drugbank_target|Q16099 Glutamate receptor ionotropic, kainate 4 (DB00142; DB00237)
 OpenBabel12092119413D

  0  0  0     0  0            999 V3000
M  V30 BEGIN CTAB
M  V30 COUNTS 15051 15217 0 0 0
M  V30 BEGIN ATOM
M  V30 1 H -0.908 1.98254 -0.117106 0
M  V30 2 N 0 1.576 0 0
M  V30 3 C 0.933 2.03868 1.02534 0
M  V30 4 C 1.911 0.928543 1.3348 0
M  V30 5 O 3.095 1.19667 1.45644 0
M  V30 6 C 0.222 2.43627 2.35294 0
M  V30 7 C -0.732 3.65373 2.2001 0
M  V30 8 S 0.101 5.13292 1.52614 0
M  V30 9 C 1.257 5.56322 2.86805 0
M  V30 10 H 1.49 2.90518 0.631377 0
M  V30 11 H -0.977 1.52953 0.210867 0
M  V30 12 H 0.981 2.67203 3.11629 0
M  V30 13 H -0.358 1.57376 2.7183 0
M  V30 14 H -1.165 3.90944 3.18086 0
M  V30 15 H -1.563 3.418 1.51819 0
M  V30 16 H 0.729 5.58782 3.83104 0
M  V30 17 H 1.672 6.56266 2.65933 0
M  V30 18 H 2.08 4.83886 2.90714 0
M  V30 19 N 1.4781 -0.272755 1.55222 0
M  V30 20 C 2.8891 -0.84378 1.66545 0
M  V30 21 C 3.2401 -1.87035 0.592641 0
M  V30 22 O 2.3651 -2.14761 -0.265818 0
M  V30 23 C 2.9601 -1.53723 3.01918 0
M  V30 24 C 1.5191 -2.05628 3.15268 0
M  V30 25 C 0.6661 -0.898424 2.62343 0
M  V30 26 H 3.6171 -0.0490998 1.58624 0
M  V30 27 H 3.6381 -2.40421 2.94921 0
M  V30 28 H 3.1501 -0.78983 3.79978 0
M  V30 29 H 1.2511 -2.83329 2.41983 0
M  V30 30 H 1.3641 -2.27142 4.21833 0
M  V30 31 H -0.2719 -1.29186 2.19506 0
M  V30 32 H 0.5111 -0.164528 3.42906 0
M  V30 33 N 2.9562 -1.48159 -0.537278 0
M  V30 34 C 4.3722 -1.34118 -0.865129 0
M  V30 35 C 4.5722 -0.346678 -1.98495 0
M  V30 36 O 3.6282 0.234715 -2.51407 0
M  V30 37 C 4.9412 -2.73963 -1.23954 0
M  V30 38 C 6.4892 -2.82397 -1.34984 0
M  V30 39 C 6.9642 -4.22928 -1.75772 0
M  V30 40 N 8.4552 -4.25566 -1.82887 0
M  V30 41 C 9.1902 -5.31235 -2.15817 0
M  V30 42 N 8.6862 -6.47189 -2.47222 0
M  V30 43 N 10.4792 -5.18624 -2.16761 0
M  V30 44 H 2.6302 -2.1144 0.201715 0
M  V30 45 H 4.8932 -0.947598 0.0275949 0
M  V30 46 H 4.5992 -3.48264 -0.490381 0
M  V30 47 H 4.4732 -3.0702 -2.19132 0
M  V30 48 H 6.8602 -2.08356 -2.08978 0
M  V30 49 H 6.9412 -2.5297 -0.379448 0
M  V30 50 H 6.5852 -4.97482 -1.02341 0
M  V30 51 H 6.5152 -4.49794 -2.73848 0
M  V30 52 H 9.0062 -3.41924 -1.60924 0
M  V30 53 H 9.3192 -7.23564 -2.71433 0
M  V30 54 H 7.6642 -6.50476 -2.44757 0
M  V30 55 H 10.8552 -4.27056 -1.91679 0
M  V30 56 H 11.0282 -6.01078 -2.42093 0
M  V30 57 N 4.4343 0.785586 -1.36625 0
M  V30 58 C 5.6803 1.54591 -1.31261 0
M  V30 59 C 6.0133 1.93906 0.106823 0
M  V30 60 O 5.2883 1.63007 1.06108 0
M  V30 61 C 5.5713 2.82038 -2.23889 0
M  V30 62 C 5.4243 2.49066 -3.74548 0
M  V30 63 C 6.7433 3.83887 -2.15217 0
M  V30 64 H 3.8623 0.560846 -0.478143 0
M  V30 65 H 6.5043 0.902278 -1.67209 0
M  V30 66 H 4.6543 3.36961 -1.93363 0
M  V30 67 H 6.3263 2.00164 -4.15611 0
M  V30 68 H 4.5693 1.81954 -3.93796 0
M  V30 69 H 5.2403 3.40109 -4.34776 0
M  V30 70 H 7.7163 3.38421 -2.42096 0
M  V30 71 H 6.5923 4.70806 -2.82193 0
M  V30 72 H 6.8533 4.27131 -1.14068 0
M  V30 73 N 5.9124 1.20967 1.01018 0
M  V30 74 C 7.1374 1.0503 1.78839 0
M  V30 75 C 7.5624 -0.395752 1.8389 0
M  V30 76 O 6.9204 -1.28529 1.27867 0
M  V30 77 C 6.9684 1.64602 3.2084 0
M  V30 78 O 6.0724 0.887988 4.02726 0
M  V30 79 H 5.4134 0.369987 0.551367 0
M  V30 80 H 7.9434 1.60399 1.27018 0
M  V30 81 H 7.9534 1.68607 3.71532 0
M  V30 82 H 6.6284 2.69841 3.16479 0
M  V30 83 H 5.2054 0.922648 3.61305 0
M  V30 84 N 7.3905 -1.2043 1.01659 0
M  V30 85 C 8.3535 -2.21433 0.591616 0
M  V30 86 C 9.3535 -1.57203 -0.338226 0
M  V30 87 O 10.5435 -1.73737 -0.126918 0
M  V30 88 C 7.6755 -3.40628 -0.136058 0
M  V30 89 H 8.8685 -2.60545 1.48514 0
M  V30 90 H 6.4215 -1.33893 0.806379 0
M  V30 91 H 7.1565 -3.07019 -1.04449 0
M  V30 92 H 6.9415 -3.88475 0.531917 0
M  V30 93 H 8.4315 -4.15475 -0.420735 0
M  V30 94 N 8.8686 -0.792821 -1.36206 0
M  V30 95 C 10.2796 -0.429513 -1.81692 0
M  V30 96 C 10.6306 1.04695 -1.65932 0
M  V30 97 O 9.7556 1.81256 -1.18218 0
M  V30 98 C 10.3506 -0.772831 -3.29868 0
M  V30 99 C 8.9096 -0.462307 -3.7355 0
M  V30 100 C 8.0566 -1.00569 -2.5842 0
M  V30 101 H 11.0076 -0.985672 -1.24379 0
M  V30 102 H 11.0286 -0.0651928 -3.80444 0
M  V30 103 H 10.5406 -1.84747 -3.41307 0
M  V30 104 H 8.6416 0.604158 -3.67669 0
M  V30 105 H 8.7546 -0.985299 -4.68859 0
M  V30 106 H 7.1186 -0.428734 -2.51066 0
M  V30 107 H 7.9016 -2.08616 -2.72643 0
M  V30 108 N 10.3467 1.47872 -0.545128 0
M  V30 109 C 11.2767 2.32661 0.197793 0
M  V30 110 C 12.2577 1.43041 0.920504 0
M  V30 111 O 13.4427 1.71912 0.90333 0
M  V30 112 C 10.5727 3.24569 1.23582 0
M  V30 113 C 9.5267 4.23333 0.630323 0
M  V30 114 C 8.8527 5.0448 1.77211 0
M  V30 115 C 10.1527 5.20704 -0.407974 0
M  V30 116 H 11.8467 2.95024 -0.510045 0
M  V30 117 H 9.3927 1.4187 -0.246731 0
M  V30 118 H 11.3457 3.8272 1.76362 0
M  V30 119 H 10.0697 2.60236 1.97344 0
M  V30 120 H 8.7287 3.6639 0.123922 0
M  V30 121 H 8.3767 4.36561 2.49847 0
M  V30 122 H 8.0767 5.71339 1.37281 0
M  V30 123 H 9.6007 5.65487 2.3034 0
M  V30 124 H 11.0147 5.7329 0.033305 0
M  V30 125 H 9.4117 5.95699 -0.725486 0
M  V30 126 H 10.4817 4.66917 -1.30828 0
M  V30 127 N 11.8248 0.280983 1.55075 0
M  V30 128 C 13.0708 -0.33461 2.00021 0
M  V30 129 C 13.4038 -1.55063 1.16915 0
M  V30 130 O 12.6788 -1.93006 0.240646 0
M  V30 131 C 12.9618 -0.711007 3.53011 0
M  V30 132 C 12.8148 0.512766 4.46868 0
M  V30 133 C 14.1338 -1.54522 4.12081 0
M  V30 134 H 11.2528 -0.120147 0.727141 0
M  V30 135 H 13.8948 0.389097 1.85973 0
M  V30 136 H 12.0448 -1.32761 3.65112 0
M  V30 137 H 13.7168 1.15131 4.46702 0
M  V30 138 H 11.9598 1.14975 4.18286 0
M  V30 139 H 12.6308 0.205556 5.51617 0
M  V30 140 H 15.1068 -1.02442 4.03293 0
M  V30 141 H 13.9828 -1.77739 5.19327 0
M  V30 142 H 14.2438 -2.52813 3.62682 0
M  V30 143 N 13.3029 -1.57598 0.00835791 0
M  V30 144 C 14.2329 -2.1198 -0.979113 0
M  V30 145 C 15.2139 -1.03091 -1.35301 0
M  V30 146 O 16.3989 -1.30818 -1.43528 0
M  V30 147 C 13.5289 -2.62995 -2.26828 0
M  V30 148 C 12.4829 -3.76485 -2.03576 0
M  V30 149 C 11.8089 -4.13846 -3.38579 0
M  V30 150 C 13.1089 -5.0342 -1.39161 0
M  V30 151 H 14.8029 -2.94738 -0.526281 0
M  V30 152 H 12.3489 -1.41783 -0.251704 0
M  V30 153 H 14.3019 -2.99669 -2.96271 0
M  V30 154 H 13.0259 -1.7737 -2.7424 0
M  V30 155 H 11.6849 -3.40217 -1.36557 0
M  V30 156 H 11.3329 -3.25232 -3.83709 0
M  V30 157 H 11.0329 -4.90312 -3.23834 0
M  V30 158 H 12.5569 -4.53086 -4.09323 0
M  V30 159 H 13.9709 -5.37812 -1.98573 0
M  V30 160 H 12.3679 -5.84746 -1.34878 0
M  V30 161 H 13.4379 -4.83548 -0.361868 0
M  V30 162 N 14.781 0.264519 -1.55364 0
M  V30 163 C 15.711 1.33121 -1.91836 0
M  V30 164 C 16.692 1.51101 -0.781192 0
M  V30 165 O 17.877 1.64003 -1.04003 0
M  V30 166 C 15.007 2.68921 -2.19769 0
M  V30 167 C 13.961 2.65661 -3.35571 0
M  V30 168 C 13.287 4.05093 -3.49004 0
M  V30 169 C 14.587 2.24187 -4.71739 0
M  V30 170 H 16.281 1.02844 -2.81182 0
M  V30 171 H 13.827 0.493286 -1.35287 0
M  V30 172 H 15.78 3.43663 -2.43872 0
M  V30 173 H 14.504 3.00799 -1.27231 0
M  V30 174 H 13.163 1.93377 -3.1145 0
M  V30 175 H 12.811 4.34206 -2.53917 0
M  V30 176 H 12.511 4.03804 -4.26868 0
M  V30 177 H 14.035 4.81561 -3.75408 0
M  V30 178 H 15.449 2.88654 -4.9533 0
M  V30 179 H 13.846 2.34044 -5.52579 0
M  V30 180 H 14.916 1.19327 -4.69988 0
M  V30 181 N 16.2591 1.48442 0.529413 0
M  V30 182 C 17.6701 1.5002 1.11134 0
M  V30 183 C 18.0211 0.27031 1.94329 0
M  V30 184 O 17.1461 -0.622507 2.07253 0
M  V30 185 C 17.7411 2.71834 2.02217 0
M  V30 186 C 16.3001 2.76283 2.55627 0
M  V30 187 C 15.4471 2.43542 1.326 0
M  V30 188 H 18.3981 1.5555 0.314641 0
M  V30 189 H 18.4191 2.50384 2.8651 0
M  V30 190 H 17.9311 3.61331 1.41639 0
M  V30 191 H 16.0321 1.90995 3.19924 0
M  V30 192 H 16.1451 3.77725 2.94721 0
M  V30 193 H 14.5091 1.94709 1.64196 0
M  V30 194 H 15.2921 3.3528 0.737734 0
M  V30 195 N 17.7372 -0.778329 1.37039 0
M  V30 196 C 18.7002 -1.87301 1.32102 0
M  V30 197 C 19.7002 -1.59198 0.226405 0
M  V30 198 O 20.8902 -1.67403 0.481861 0
M  V30 199 C 18.0222 -3.24309 1.05055 0
M  V30 200 H 19.2152 -1.93093 2.29467 0
M  V30 201 H 16.7682 -0.977358 1.21973 0
M  V30 202 H 17.5032 -3.24196 0.0819373 0
M  V30 203 H 17.2882 -3.46098 1.84279 0
M  V30 204 H 18.7782 -4.04382 1.04234 0
M  V30 205 N 19.2153 -1.21501 -1.00376 0
M  V30 206 C 20.4613 -1.04457 -1.74529 0
M  V30 207 C 20.8163 0.417386 -1.87818 0
M  V30 208 O 20.1093 1.30556 -1.40234 0
M  V30 209 C 20.3033 -1.67673 -3.15627 0
M  V30 210 C 20.1323 -3.19865 -3.16096 0
M  V30 211 C 18.9023 -3.88915 -3.22604 0
M  V30 212 C 21.1003 -4.16936 -3.01112 0
M  V30 213 N 19.0823 -5.28284 -3.12712 0
M  V30 214 C 20.4533 -5.43066 -2.99131 0
M  V30 215 C 22.5083 -4.07968 -2.85423 0
M  V30 216 C 21.2113 -6.6126 -2.83068 0
M  V30 217 C 23.2373 -5.258 -2.70718 0
M  V30 218 C 22.5993 -6.50842 -2.69414 0
M  V30 219 H 18.6983 -0.436584 -0.648782 0
M  V30 220 H 21.2823 -1.53875 -1.19293 0
M  V30 221 H 19.4533 -1.20822 -3.6913 0
M  V30 222 H 21.1853 -1.43824 -3.78281 0
M  V30 223 H 17.9403 -3.39847 -3.2985 0
M  V30 224 H 18.3643 -6.01284 -3.11105 0
M  V30 225 H 23.0063 -3.1209 -2.85236 0
M  V30 226 H 20.7243 -7.57298 -2.82002 0
M  V30 227 H 24.3103 -5.20683 -2.59577 0
M  V30 228 H 23.1903 -7.40485 -2.5817 0
M  V30 229 N 20.6934 1.19889 -1.02296 0
M  V30 230 C 21.6234 2.25141 -0.619174 0
M  V30 231 C 22.6044 1.66051 0.368915 0
M  V30 232 O 23.7894 1.92546 0.252941 0
M  V30 233 C 20.9194 3.4728 0.0368783 0
M  V30 234 C 19.8734 4.19005 -0.872865 0
M  V30 235 C 19.1994 5.34637 -0.0822402 0
M  V30 236 C 20.4994 4.74452 -2.18387 0
M  V30 237 H 22.1934 2.59171 -1.49903 0
M  V30 238 H 19.7394 1.24579 -0.722222 0
M  V30 239 H 21.6924 4.20098 0.330958 0
M  V30 240 H 20.4164 3.12433 0.95149 0
M  V30 241 H 19.0754 3.48061 -1.15105 0
M  V30 242 H 18.7234 4.96034 0.83422 0
M  V30 243 H 18.4234 5.83557 -0.688149 0
M  V30 244 H 19.9474 6.10255 0.205238 0
M  V30 245 H 21.3614 5.39055 -1.95172 0
M  V30 246 H 19.7584 5.33834 -2.74119 0
M  V30 247 H 20.8284 3.92844 -2.84257 0
M  V30 248 N 22.1715 0.800033 1.35784 0
M  V30 249 C 23.4175 0.377901 1.99248 0
M  V30 250 C 23.7505 -1.05052 1.63333 0
M  V30 251 O 23.0255 -1.72768 0.893385 0
M  V30 252 C 23.3085 0.553922 3.55814 0
M  V30 253 C 23.1615 2.0268 4.01548 0
M  V30 254 C 24.4805 -0.0244802 4.40093 0
M  V30 255 H 21.5995 0.138782 0.723815 0
M  V30 256 H 24.2415 1.00835 1.61035 0
M  V30 257 H 22.3915 0.0172398 3.88496 0
M  V30 258 H 24.0635 2.62536 3.79305 0
M  V30 259 H 22.3065 2.5256 3.52698 0
M  V30 260 H 22.9775 2.10087 5.10458 0
M  V30 261 H 25.4535 0.433775 4.13833 0
M  V30 262 H 24.3295 0.128637 5.48749 0
M  V30 263 H 24.5905 -1.11758 4.27741 0
M  V30 264 N 23.6496 -1.47581 0.552962 0
M  V30 265 C 24.5826 -2.26883 -0.244857 0
M  V30 266 C 25.5606 -1.33784 -0.924147 0
M  V30 267 O 26.7446 -1.6316 -0.943981 0
M  V30 268 C 23.8716 -3.10695 -1.34856 0
M  V30 269 C 22.9176 -4.19339 -0.778268 0
M  V30 270 S 23.7506 -5.34207 0.37184 0
M  V30 271 C 24.9066 -6.21584 -0.733779 0
M  V30 272 H 25.1396 -2.94202 0.428087 0
M  V30 273 H 22.6726 -1.50628 0.339197 0
M  V30 274 H 24.6306 -3.59555 -1.98066 0
M  V30 275 H 23.2916 -2.42746 -1.99332 0
M  V30 276 H 22.4846 -4.77695 -1.60696 0
M  V30 277 H 22.0866 -3.73338 -0.222422 0
M  V30 278 H 24.3786 -6.57676 -1.62692 0
M  V30 279 H 25.3216 -7.07851 -0.187668 0
M  V30 280 H 25.7296 -5.55125 -1.02454 0
M  V30 281 N 25.1277 -0.289203 -1.54924 0
M  V30 282 C 26.3737 0.323998 -2.00195 0
M  V30 283 C 26.7067 1.54441 -1.17735 0
M  V30 284 O 25.9817 1.92875 -0.250878 0
M  V30 285 C 26.2647 0.692276 -3.53383 0
M  V30 286 C 26.1177 -0.536457 -4.46589 0
M  V30 287 C 27.4367 1.52335 -4.12895 0
M  V30 288 H 24.5557 0.116289 -0.727768 0
M  V30 289 H 27.1977 -0.398954 -1.85764 0
M  V30 290 H 25.3477 1.30822 -3.65811 0
M  V30 291 H 27.0197 -1.17499 -4.46085 0
M  V30 292 H 25.2627 -1.17192 -4.1767 0
M  V30 293 H 25.9337 -0.234806 -5.515 0
M  V30 294 H 28.4097 1.00302 -4.0383 0
M  V30 295 H 27.2857 1.74982 -5.20262 0
M  V30 296 H 27.5467 2.50886 -3.64018 0
M  V30 297 N 26.6058 1.57591 -0.0167156 0
M  V30 298 C 27.5688 2.08393 0.954204 0
M  V30 299 C 28.5688 0.996531 1.26198 0
M  V30 300 O 29.7588 1.25858 1.20438 0
M  V30 301 C 26.8908 2.5394 2.27436 0
M  V30 302 H 28.0838 2.95455 0.514451 0
M  V30 303 H 25.6368 1.54582 0.231089 0
M  V30 304 H 26.3718 1.70171 2.76066 0
M  V30 305 H 26.1568 3.33371 2.06412 0
M  V30 306 H 27.6468 2.93512 2.97053 0
M  V30 307 N 28.0839 -0.256276 1.55502 0
M  V30 308 C 29.3239 -0.993081 1.78654 0
M  V30 309 C 29.6879 -1.8288 0.584724 0
M  V30 310 O 30.8889 -2.59665 0.694822 0
M  V30 311 C 29.1599 -1.83856 3.06483 0
M  V30 312 S 30.7189 -2.63573 3.5082 0
M  V30 313 H 27.5369 -0.334199 0.62756 0
M  V30 314 H 30.1389 -0.26184 1.93739 0
M  V30 315 H 28.8429 -1.21414 3.92029 0
M  V30 316 H 28.3739 -2.61271 2.94111 0
M  V30 317 H 30.3889 -3.86312 3.11412 0
M  V30 318 N 29.562 -1.4872 -0.521534 0
M  V30 319 C 30.787 -1.61101 -1.30618 0
M  V30 320 C 31.212 -0.274611 -1.86085 0
M  V30 321 O 30.57 0.754937 -1.64834 0
M  V30 322 C 30.618 -2.66709 -2.4269 0
M  V30 323 O 29.722 -2.24456 -3.45967 0
M  V30 324 H 29.063 -0.539921 -0.386499 0
M  V30 325 H 31.593 -1.94767 -0.626645 0
M  V30 326 H 31.603 -2.88245 -2.88754 0
M  V30 327 H 30.278 -3.63727 -2.01682 0
M  V30 328 H 28.855 -2.13168 -3.05964 0
M  V30 329 N 31.0401 0.771051 -1.3745 0
M  V30 330 C 32.4511 1.34737 -1.29239 0
M  V30 331 C 32.8021 1.96109 0.0596908 0
M  V30 332 O 31.9271 1.93865 0.961534 0
M  V30 333 C 32.5221 2.44973 -2.34037 0
M  V30 334 C 31.0811 2.98372 -2.29458 0
M  V30 335 C 30.2281 1.71595 -2.17831 0
M  V30 336 H 33.1791 0.571256 -1.48062 0
M  V30 337 H 33.2001 3.24471 -1.98744 0
M  V30 338 H 32.7121 2.00276 -3.32432 0
M  V30 339 H 30.8131 3.47443 -1.34589 0
M  V30 340 H 30.9261 3.53939 -3.229 0
M  V30 341 H 29.2901 1.94547 -1.64388 0
M  V30 342 H 30.0731 1.29001 -3.18141 0
M  V30 343 N 32.5182 1.22032 0.997298 0
M  V30 344 C 33.4682 0.953838 2.07089 0
M  V30 345 C 34.4522 -0.0938669 1.60626 0
M  V30 346 O 35.6442 0.116078 1.76619 0
M  V30 347 C 32.7732 0.528726 3.39204 0
M  V30 348 C 31.8592 1.61092 3.92314 0
M  V30 349 N 32.2502 2.83768 4.18699 0
M  V30 350 C 30.5482 1.48158 4.20672 0
M  V30 351 C 31.2492 3.53715 4.61802 0
M  V30 352 N 30.2252 2.81174 4.65233 0
M  V30 353 H 34.0272 1.88577 2.25424 0
M  V30 354 H 31.5412 1.11719 1.17867 0
M  V30 355 H 33.5382 0.31915 4.15677 0
M  V30 356 H 32.1982 -0.39635 3.22272 0
M  V30 357 H 33.2092 3.20238 4.07023 0
M  V30 358 H 29.8862 0.622369 4.12835 0
M  V30 359 H 31.2762 4.58793 4.90875 0
M  V30 360 N 33.9963 -1.19345 1.0293 0
M  V30 361 C 35.2213 -1.93538 0.745511 0
M  V30 362 C 35.6463 -1.75007 -0.689511 0
M  V30 363 O 35.0043 -1.05265 -1.47611 0
M  V30 364 C 35.0523 -3.43336 1.10239 0
M  V30 365 O 34.1563 -4.11806 0.221289 0
M  V30 366 H 33.4973 -0.604193 0.275404 0
M  V30 367 H 36.0273 -1.5141 1.37609 0
M  V30 368 H 36.0373 -3.94004 1.05947 0
M  V30 369 H 34.7123 -3.56146 2.14786 0
M  V30 370 H 33.2893 -3.715 0.322842 0
M  V30 371 N 35.4744 -0.807222 -1.35358 0
M  V30 372 C 36.4044 -0.232509 -2.3234 0
M  V30 373 C 37.3854 0.642386 -1.57504 0
M  V30 374 O 38.5704 0.572526 -1.85569 0
M  V30 375 C 35.7004 0.619238 -3.41735 0
M  V30 376 C 34.6544 -0.157215 -4.27711 0
M  V30 377 C 33.9804 0.816273 -5.28433 0
M  V30 378 C 35.2804 -1.35656 -5.04376 0
M  V30 379 H 36.9744 -1.04276 -2.80654 0
M  V30 380 H 34.5204 -0.50288 -1.34934 0
M  V30 381 H 36.4734 1.03137 -4.08584 0
M  V30 382 H 35.1974 1.46239 -2.92031 0
M  V30 383 H 33.8564 -0.550525 -3.62443 0
M  V30 384 H 33.5044 1.65494 -4.74996 0
M  V30 385 H 33.2044 0.301067 -5.86828 0
M  V30 386 H 34.7284 1.22659 -5.98153 0
M  V30 387 H 36.1424 -1.01927 -5.64166 0
M  V30 388 H 34.5394 -1.8063 -5.7227 0
M  V30 389 H 35.6094 -2.14288 -4.34981 0
M  V30 390 N 36.9525 1.47285 -0.560781 0
M  V30 391 C 38.3685 1.58065 -0.22081 0
M  V30 392 C 38.5685 1.55892 1.27671 0
M  V30 393 O 37.6245 1.46422 2.0571 0
M  V30 394 C 38.9375 2.88418 -0.850625 0
M  V30 395 C 40.4855 3.02009 -0.822184 0
M  V30 396 C 40.9605 4.35066 -1.43113 0
M  V30 397 N 42.4515 4.41711 -1.39448 0
M  V30 398 C 43.1865 5.43237 -1.83525 0
M  V30 399 N 42.6825 6.51555 -2.35474 0
M  V30 400 N 44.4755 5.34304 -1.74574 0
M  V30 401 H 36.6265 1.46941 -1.53369 0
M  V30 402 H 38.8895 0.699558 -0.639783 0
M  V30 403 H 38.5955 2.95755 -1.9032 0
M  V30 404 H 38.4695 3.75612 -0.345773 0
M  V30 405 H 40.8565 2.94266 0.221714 0
M  V30 406 H 40.9375 2.16347 -1.36483 0
M  V30 407 H 40.5815 4.43565 -2.47412 0
M  V30 408 H 40.5115 5.19465 -0.863899 0
M  V30 409 H 43.0025 3.64027 -1.01452 0
M  V30 410 H 43.3155 7.25203 -2.67021 0
M  V30 411 H 41.6605 6.52435 -2.39487 0
M  V30 412 H 44.8515 4.48581 -1.33763 0
M  V30 413 H 45.0245 6.13288 -2.09242 0
M  V30 414 N 38.4306 0.297415 1.54768 0
M  V30 415 C 39.6796 -0.313669 1.99246 0
M  V30 416 C 39.9926 -1.55281 1.18942 0
M  V30 417 O 41.1986 -2.23825 1.5367 0
M  V30 418 C 39.6546 -0.609407 3.54703 0
M  V30 419 C 39.2626 0.611192 4.43811 0
M  V30 420 C 41.0066 -1.18188 4.07715 0
M  V30 421 C 38.9136 0.288805 5.90694 0
M  V30 422 H 37.8436 -0.120979 0.744231 0
M  V30 423 H 40.4946 0.40556 1.78962 0
M  V30 424 H 38.8766 -1.38813 3.70873 0
M  V30 425 H 40.0506 1.3875 4.39414 0
M  V30 426 H 38.3656 1.10205 4.01552 0
M  V30 427 H 40.9626 -1.43727 5.15021 0
M  V30 428 H 41.3056 -2.12299 3.58099 0
M  V30 429 H 41.8386 -0.464944 3.95074 0
M  V30 430 H 38.5776 1.19838 6.44453 0
M  V30 431 H 38.0976 -0.450305 5.98107 0
M  V30 432 H 39.7766 -0.110933 6.46905 0
M  V30 433 N 39.9087 -1.5758 0.0250728 0
M  V30 434 C 40.8717 -2.08896 -0.943139 0
M  V30 435 C 41.8717 -1.00321 -1.25668 0
M  V30 436 O 43.0617 -1.26495 -1.19769 0
M  V30 437 C 40.1937 -2.55143 -2.26086 0
M  V30 438 H 41.3867 -2.95723 -0.498775 0
M  V30 439 H 38.9397 -1.54703 -0.222888 0
M  V30 440 H 39.6747 -1.71633 -2.75159 0
M  V30 441 H 39.4597 -3.34461 -2.04641 0
M  V30 442 H 40.9497 -2.95083 -2.95492 0
M  V30 443 N 41.3868 0.248026 -1.55636 0
M  V30 444 C 42.3498 1.29044 -1.89421 0
M  V30 445 C 43.3498 1.41134 -0.770581 0
M  V30 446 O 44.5398 1.39854 -1.03858 0
M  V30 447 C 41.6718 2.66831 -2.12165 0
M  V30 448 H 42.8648 1.00305 -2.82629 0
M  V30 449 H 40.4178 0.487265 -1.48511 0
M  V30 450 H 41.1528 3.00711 -1.21422 0
M  V30 451 H 40.9378 2.59438 -2.93997 0
M  V30 452 H 42.4278 3.42103 -2.3949 0
M  V30 453 N 42.8649 1.48995 0.513639 0
M  V30 454 C 44.1139 1.57093 1.2651 0
M  V30 455 C 44.4269 0.257091 1.93903 0
M  V30 456 O 45.6329 0.216478 2.70636 0
M  V30 457 C 44.0889 2.77118 2.29638 0
M  V30 458 C 43.6969 4.15209 1.68241 0
M  V30 459 C 45.4409 2.94538 3.05692 0
M  V30 460 C 43.3479 5.26474 2.69406 0
M  V30 461 H 42.2779 0.584876 0.475854 0
M  V30 462 H 44.9289 1.7536 0.540487 0
M  V30 463 H 43.3109 2.52319 3.05207 0
M  V30 464 H 44.4849 4.50094 0.987505 0
M  V30 465 H 42.7999 4.03042 1.04623 0
M  V30 466 H 45.3969 3.74832 3.8132 0
M  V30 467 H 45.7399 2.04614 3.62545 0
M  V30 468 H 46.2729 3.19316 2.37238 0
M  V30 469 H 43.0119 6.18417 2.17351 0
M  V30 470 H 42.5319 4.96058 3.37175 0
M  V30 471 H 44.2109 5.55277 3.32078 0
M  V30 472 N 44.343 -0.763751 1.37857 0
M  V30 473 C 45.273 -1.89103 1.36975 0
M  V30 474 C 46.254 -1.68439 0.237152 0
M  V30 475 O 47.439 -1.8918 0.438713 0
M  V30 476 C 44.569 -3.26496 1.18395 0
M  V30 477 C 43.523 -3.61741 2.28751 0
M  V30 478 C 42.849 -4.97762 1.95286 0
M  V30 479 C 44.149 -3.67665 3.70972 0
M  V30 480 H 45.843 -1.90099 2.31307 0
M  V30 481 H 43.389 -0.91319 1.11341 0
M  V30 482 H 45.342 -4.05003 1.16406 0
M  V30 483 H 44.066 -3.25955 0.205215 0
M  V30 484 H 42.725 -2.85547 2.29909 0
M  V30 485 H 42.373 -4.93769 0.959221 0
M  V30 486 H 42.073 -5.22313 2.69189 0
M  V30 487 H 43.597 -5.7866 1.94898 0
M  V30 488 H 45.011 -4.36307 3.719 0
M  V30 489 H 43.408 -4.03718 4.43995 0
M  V30 490 H 44.478 -2.68134 4.0402 0
M  V30 491 N 45.8211 -1.22559 -0.990812 0
M  V30 492 C 47.0981 -0.959875 -1.70428 0
M  V30 493 C 47.4781 0.524455 -2.04481 0
M  V30 494 O 46.8261 1.49302 -1.72977 0
M  V30 495 C 47.0361 -1.85955 -2.95333 0
M  V30 496 C 48.3841 -2.11687 -3.68068 0
M  V30 497 O 49.4081 -1.8342 -3.05345 0
M  V30 498 O 48.2671 -2.59572 -4.80921 0
M  V30 499 H 45.3611 -0.361154 -0.743974 0
M  V30 500 H 47.9071 -1.33554 -1.04697 0
M  V30 501 H 46.6791 -2.86346 -2.66687 0
M  V30 502 H 46.3021 -1.4856 -3.68803 0
M  V30 503 N 47.2992 1.18797 -1.03562 0
M  V30 504 C 48.5762 1.84469 -0.650434 0
M  V30 505 C 48.9562 1.92319 0.870433 0
M  V30 506 O 48.3042 1.44528 1.76986 0
M  V30 507 C 48.5142 3.2306 -1.32036 0
M  V30 508 C 49.8622 3.9915 -1.44792 0
M  V30 509 O 50.8862 3.32481 -1.27806 0
M  V30 510 O 49.7452 5.18587 -1.72423 0
M  V30 511 H 46.8392 0.795251 -0.226946 0
M  V30 512 H 49.3852 1.26231 -1.13419 0
M  V30 513 H 48.1572 3.1222 -2.3587 0
M  V30 514 H 47.7802 3.88949 -0.8249 0
M  V30 515 N 48.7773 0.814389 1.34928 0
M  V30 516 C 50.1883 0.458364 1.80986 0
M  V30 517 C 50.5393 -1.02042 1.67577 0
M  V30 518 O 49.6643 -1.79352 1.21086 0
M  V30 519 C 50.2593 0.825212 3.28597 0
M  V30 520 C 48.8183 0.521677 3.72767 0
M  V30 521 C 47.9653 1.04668 2.56788 0
M  V30 522 H 50.9163 1.00533 1.22795 0
M  V30 523 H 50.9373 0.12571 3.80292 0
M  V30 524 H 50.4493 1.90154 3.38324 0
M  V30 525 H 48.5503 -0.545589 3.68584 0
M  V30 526 H 48.6633 1.05977 4.67232 0
M  V30 527 H 47.0273 0.468622 2.50352 0
M  V30 528 H 47.8103 2.12927 2.6929 0
M  V30 529 N 50.2554 -1.46986 0.568584 0
M  V30 530 C 51.1884 -2.27129 -0.220779 0
M  V30 531 C 52.1664 -1.34757 -0.909905 0
M  V30 532 O 53.3504 -1.64152 -0.926622 0
M  V30 533 C 50.4774 -3.12108 -1.31553 0
M  V30 534 C 49.5234 -4.20141 -0.733748 0
M  V30 535 S 50.3564 -5.33783 0.428479 0
M  V30 536 C 51.5124 -6.22327 -0.667811 0
M  V30 537 H 51.7454 -2.93731 0.459267 0
M  V30 538 H 49.2784 -1.5026 0.355154 0
M  V30 539 H 51.2364 -3.61636 -1.94241 0
M  V30 540 H 49.8974 -2.44847 -1.96746 0
M  V30 541 H 49.0904 -4.79373 -1.5562 0
M  V30 542 H 48.6924 -3.73553 -0.182812 0
M  V30 543 H 50.9844 -6.59364 -1.55708 0
M  V30 544 H 51.9274 -7.0801 -0.11258 0
M  V30 545 H 52.3354 -5.5618 -0.965601 0
M  V30 546 N 51.7335 -0.305618 -1.54608 0
M  V30 547 C 52.6435 0.57778 -2.27374 0
M  V30 548 C 53.6595 1.14451 -1.31061 0
M  V30 549 O 54.8355 1.16831 -1.6405 0
M  V30 550 C 51.9005 1.73123 -3.00382 0
M  V30 551 C 50.9615 1.19812 -4.12242 0
M  V30 552 C 50.1945 2.2966 -4.81759 0
M  V30 553 O 50.4175 3.49651 -4.50666 0
M  V30 554 O 49.3515 1.96091 -5.69062 0
M  V30 555 H 53.1775 -0.012624 -3.03697 0
M  V30 556 H 50.7625 -0.0719184 -1.49227 0
M  V30 557 H 52.6445 2.40315 -3.4616 0
M  V30 558 H 51.3195 2.30815 -2.26949 0
M  V30 559 H 50.2265 0.491798 -3.70853 0
M  V30 560 H 51.5595 0.666566 -4.87666 0
M  V30 561 N 53.2116 1.57565 -0.0334293 0
M  V30 562 C 54.4516 1.93844 0.648379 0
M  V30 563 C 54.8156 0.910387 1.69044 0
M  V30 564 O 56.0166 1.15952 2.42505 0
M  V30 565 C 54.2876 3.35017 1.24492 0
M  V30 566 S 55.8466 3.93229 1.94721 0
M  V30 567 H 52.6646 0.678231 0.213364 0
M  V30 568 H 55.2666 1.95254 -0.0981253 0
M  V30 569 H 53.9706 4.07652 0.474128 0
M  V30 570 H 53.5016 3.37061 2.02864 0
M  V30 571 H 55.5166 3.77014 3.22606 0
M  V30 572 N 54.6897 -0.239769 1.55765 0
M  V30 573 C 55.9147 -0.988373 1.82335 0
M  V30 574 C 56.3397 -1.77886 0.611421 0
M  V30 575 O 55.6977 -1.75889 -0.439639 0
M  V30 576 C 55.7457 -1.89627 3.06715 0
M  V30 577 O 54.8497 -2.98904 2.84131 0
M  V30 578 H 54.1907 -0.280858 0.601677 0
M  V30 579 H 56.7207 -0.258597 2.02959 0
M  V30 580 H 56.7307 -2.30957 3.36338 0
M  V30 581 H 55.4057 -1.31511 3.9456 0
M  V30 582 H 53.9827 -2.61651 2.65694 0
M  V30 583 N 56.1678 -1.49265 -0.50573 0
M  V30 584 C 57.5838 -1.35923 -0.836486 0
M  V30 585 C 57.7838 -0.388704 -1.97715 0
M  V30 586 O 56.8398 0.181336 -2.51848 0
M  V30 587 C 58.1528 -2.76531 -1.18115 0
M  V30 588 C 59.7008 -2.85197 -1.28964 0
M  V30 589 C 60.1758 -4.26561 -1.66761 0
M  V30 590 N 61.6668 -4.2935 -1.73819 0
M  V30 591 C 62.4018 -5.35693 -2.045 0
M  V30 592 N 61.8978 -6.52287 -2.33438 0
M  V30 593 N 63.6908 -5.23105 -2.05711 0
M  V30 594 H 55.8418 -2.10965 0.246519 0
M  V30 595 H 58.1048 -0.9468 0.0476887 0
M  V30 596 H 57.8108 -3.49226 -0.416398 0
M  V30 597 H 57.6848 -3.11599 -2.1257 0
M  V30 598 H 60.0718 -2.12742 -2.04511 0
M  V30 599 H 60.1528 -2.53718 -0.325704 0
M  V30 600 H 59.7968 -4.99541 -0.917656 0
M  V30 601 H 59.7268 -4.55502 -2.64246 0
M  V30 602 H 62.2178 -3.4526 -1.53635 0
M  V30 603 H 62.5308 -7.29158 -2.56024 0
M  V30 604 H 60.8758 -6.55521 -2.30905 0
M  V30 605 H 64.0668 -4.31026 -1.82577 0
M  V30 606 H 64.2398 -6.06078 -2.29289 0
M  V30 607 N 57.6459 0.756429 -1.3826 0
M  V30 608 C 58.8939 1.51248 -1.34047 0
M  V30 609 C 59.2149 1.94875 0.0698372 0
M  V30 610 O 58.4849 1.67436 1.01696 0
M  V30 611 H 57.0649 0.561018 -0.493222 0
M  V30 612 H 59.7269 0.899347 -1.7291 0
M  V30 613 H 58.8229 2.40472 -1.98947 0
M  V30 614 N 59.124 1.23083 0.984299 0
M  V30 615 C 60.034 1.02515 2.11016 0
M  V30 616 C 61.05 -0.0291702 1.73976 0
M  V30 617 O 62.226 0.165434 2.00719 0
M  V30 618 C 59.291 0.614673 3.41208 0
M  V30 619 C 58.352 1.74359 3.92297 0
M  V30 620 C 57.585 1.35261 5.16275 0
M  V30 621 O 57.808 0.235136 5.69915 0
M  V30 622 O 56.742 2.17227 5.61334 0
M  V30 623 H 60.568 1.96862 2.31255 0
M  V30 624 H 58.153 1.01753 1.09392 0
M  V30 625 H 60.035 0.396518 4.1953 0
M  V30 626 H 58.71 -0.299851 3.22308 0
M  V30 627 H 57.617 2.01635 3.1511 0
M  V30 628 H 58.95 2.63629 4.15645 0
M  V30 629 N 60.6021 -1.18246 1.0419 0
M  V30 630 C 62.0181 -1.40269 0.761366 0
M  V30 631 C 62.2181 -1.90777 -0.648578 0
M  V30 632 O 61.2741 -2.0929 -1.41258 0
M  V30 633 C 62.5871 -2.40237 1.8085 0
M  V30 634 C 64.1351 -2.53961 1.82955 0
M  V30 635 C 64.6101 -3.57194 2.86664 0
M  V30 636 N 66.1011 -3.64702 2.85563 0
M  V30 637 C 66.8361 -4.44309 3.6246 0
M  V30 638 N 66.3321 -5.27514 4.49111 0
M  V30 639 N 68.1251 -4.39084 3.50944 0
M  V30 640 H 60.2761 -0.837882 1.95175 0
M  V30 641 H 62.5391 -0.430608 0.84456 0
M  V30 642 H 62.2451 -2.10176 2.81991 0
M  V30 643 H 62.1191 -3.39601 1.64168 0
M  V30 644 H 64.5061 -2.83338 0.824855 0
M  V30 645 H 64.5871 -1.54706 2.03715 0
M  V30 646 H 64.2311 -3.28558 3.87314 0
M  V30 647 H 64.1611 -4.5613 2.6316 0
M  V30 648 H 66.6521 -3.05289 2.22727 0
M  V30 649 H 66.9651 -5.85411 5.04493 0
M  V30 650 H 65.3101 -5.2693 4.53178 0
M  V30 651 H 68.5011 -3.7313 2.82651 0
M  V30 652 H 68.6741 -5.00883 4.11121 0
M  V30 653 N 62.0802 -0.821533 -1.34494 0
M  V30 654 C 63.0102 -0.257138 -2.3208 0
M  V30 655 C 63.9912 0.625645 -1.58176 0
M  V30 656 O 65.1762 0.552811 -1.86166 0
M  V30 657 C 62.3062 0.582958 -3.42372 0
M  V30 658 C 61.2602 -0.202571 -4.2752 0
M  V30 659 C 60.5862 0.760179 -5.29269 0
M  V30 660 C 61.8862 -1.40998 -5.02908 0
M  V30 661 H 63.5802 -1.07247 -2.79532 0
M  V30 662 H 61.1262 -0.517163 -1.34393 0
M  V30 663 H 63.0792 0.987972 -4.09655 0
M  V30 664 H 61.8032 1.43133 -2.93565 0
M  V30 665 H 60.4622 -0.588936 -3.61838 0
M  V30 666 H 60.1102 1.60447 -4.76724 0
M  V30 667 H 59.8102 0.238809 -5.87115 0
M  V30 668 H 61.3342 1.16308 -5.9942 0
M  V30 669 H 62.7482 -1.07905 -5.63054 0
M  V30 670 H 61.1452 -1.86689 -5.70322 0
M  V30 671 H 62.2152 -2.1889 -4.32684 0
M  V30 672 N 63.5583 1.46682 -0.576371 0
M  V30 673 C 64.7833 2.07304 -0.0630475 0
M  V30 674 C 65.2083 1.42329 1.2298 0
M  V30 675 O 64.5663 0.504865 1.74129 0
M  V30 676 C 64.6143 3.60472 0.095895 0
M  V30 677 O 63.7183 3.95927 1.15394 0
M  V30 678 H 63.0593 0.661288 -0.0599463 0
M  V30 679 H 65.5893 1.88417 -0.797511 0
M  V30 680 H 65.5993 4.06865 0.304071 0
M  V30 681 H 64.2743 4.07157 -0.84828 0
M  V30 682 H 62.8513 3.61252 0.924724 0
M  V30 683 N 65.0364 0.313813 1.54444 0
M  V30 684 C 66.2854 -0.292519 1.99568 0
M  V30 685 C 66.5984 -1.54011 1.20582 0
M  V30 686 O 67.8044 -2.22183 1.56035 0
M  V30 687 C 66.2604 -0.571752 3.55329 0
M  V30 688 C 65.8684 0.658229 4.43138 0
M  V30 689 C 67.6124 -1.13857 4.08946 0
M  V30 690 C 65.5194 0.351439 5.90355 0
M  V30 691 H 64.4494 -0.113079 0.745472 0
M  V30 692 H 67.1004 0.424518 1.78522 0
M  V30 693 H 65.4824 -1.34872 3.72325 0
M  V30 694 H 66.6564 1.43403 4.37918 0
M  V30 695 H 64.9714 1.14458 4.0036 0
M  V30 696 H 67.5684 -1.38257 5.16516 0
M  V30 697 H 67.9114 -2.08489 3.6033 0
M  V30 698 H 68.4444 -0.423015 3.95544 0
M  V30 699 H 65.1834 1.26667 6.43145 0
M  V30 700 H 64.7034 -0.386842 5.98551 0
M  V30 701 H 66.3824 -0.0423134 6.46986 0
M  V30 702 N 66.5145 -1.57545 0.0417849 0
M  V30 703 C 67.7425 -1.96624 -0.643928 0
M  V30 704 C 68.1575 -0.918897 -1.64929 0
M  V30 705 O 67.5145 0.0979323 -1.82237 0
M  V30 706 C 67.5655 -3.35781 -1.33914 0
M  V30 707 O 67.2865 -4.365 -0.374048 0
M  V30 708 C 68.7875 -3.89566 -2.1155 0
M  V30 709 H 66.0075 -0.647316 -0.176702 0
M  V30 710 H 68.5515 -2.04229 0.105304 0
M  V30 711 H 66.7065 -3.29357 -2.03968 0
M  V30 712 H 67.1205 -5.17248 -0.869179 0
M  V30 713 H 68.5945 -4.89242 -2.55628 0
M  V30 714 H 69.0715 -3.24488 -2.9598 0
M  V30 715 H 69.6775 -3.99298 -1.46427 0
M  V30 716 N 67.9926 0.231505 -1.5589 0
M  V30 717 C 68.9226 1.29022 -1.94617 0
M  V30 718 C 69.9036 1.4941 -0.813067 0
M  V30 719 O 71.0886 1.6176 -1.07459 0
M  V30 720 C 68.2186 2.64199 -2.25424 0
M  V30 721 C 67.1726 2.58484 -3.41131 0
M  V30 722 C 66.4986 3.97599 -3.57518 0
M  V30 723 C 67.7986 2.1413 -4.76388 0
M  V30 724 H 69.4926 0.968563 -2.83301 0
M  V30 725 H 67.0386 0.464479 -1.36303 0
M  V30 726 H 68.9916 3.38413 -2.51107 0
M  V30 727 H 67.7156 2.98032 -1.33583 0
M  V30 728 H 66.3746 1.86727 -3.15481 0
M  V30 729 H 66.0226 4.28723 -2.6307 0
M  V30 730 H 65.7226 3.94659 -4.35337 0
M  V30 731 H 67.2466 4.7349 -3.85538 0
M  V30 732 H 68.6606 2.78083 -5.01341 0
M  V30 733 H 67.0576 2.2227 -5.57419 0
M  V30 734 H 68.1276 1.09331 -4.72414 0
M  V30 735 N 69.4707 1.49531 0.497807 0
M  V30 736 C 70.4337 1.65916 1.58128 0
M  V30 737 C 71.4337 0.530825 1.51786 0
M  V30 738 O 72.6237 0.797342 1.54881 0
M  V30 739 C 69.7557 1.65951 2.9778 0
M  V30 740 H 70.9487 2.62556 1.44929 0
M  V30 741 H 68.5017 1.38611 0.722275 0
M  V30 742 H 69.2367 0.709065 3.16453 0
M  V30 743 H 69.0217 2.47897 3.03792 0
M  V30 744 H 70.5117 1.80673 3.76493 0
M  V30 745 N 70.9488 -0.749086 1.3866 0
M  V30 746 C 71.8958 -1.86291 1.36251 0
M  V30 747 C 72.8658 -1.64578 0.224347 0
M  V30 748 O 74.0508 -1.86181 0.417279 0
M  V30 749 C 71.1908 -3.23644 1.19786 0
M  V30 750 C 70.3038 -3.57158 2.43027 0
M  V30 751 C 69.4388 -4.83838 2.19258 0
M  V30 752 C 68.4778 -5.10152 3.38247 0
M  V30 753 N 67.6148 -6.28029 3.13884 0
M  V30 754 H 72.4548 -1.87685 2.3147 0
M  V30 755 H 69.9918 -0.917287 1.14997 0
M  V30 756 H 71.9498 -4.0291 1.08254 0
M  V30 757 H 70.5798 -3.21566 0.282031 0
M  V30 758 H 69.6318 -2.72701 2.65214 0
M  V30 759 H 70.9438 -3.7253 3.31697 0
M  V30 760 H 70.0978 -5.71057 2.04888 0
M  V30 761 H 68.8368 -4.70614 1.2796 0
M  V30 762 H 67.8418 -4.21401 3.53131 0
M  V30 763 H 69.0668 -5.25271 4.30427 0
M  V30 764 H 67.0128 -6.1612 2.25238 0
M  V30 765 H 66.9298 -6.43922 3.96106 0
M  V30 766 H 68.1978 -7.18124 3.03179 0
M  V30 767 N 72.4269 -1.23603 -0.977757 0
M  V30 768 C 73.3749 -1.01704 -2.09187 0
M  V30 769 C 74.3689 0.0448214 -1.69341 0
M  V30 770 O 75.5749 -0.108902 -1.7967 0
M  V30 771 H 71.9499 -0.311803 -0.684312 0
M  V30 772 H 73.9209 -1.96207 -2.24823 0
M  V30 773 C 72.6699 -0.627746 -3.41986 0
M  V30 774 H 71.9929 -1.43656 -3.73099 0
M  V30 775 H 73.4329 -0.514053 -4.20872 0
M  V30 776 C 71.8919 0.664238 -3.30287 0
M  V30 777 O 72.4219 1.71268 -3.6336 0
M  V30 778 N 70.6279 0.641156 -2.83439 0
M  V30 779 H 70.1749 -0.212376 -2.56723 0
M  V30 780 H 70.1329 1.50583 -2.75993 0
M  V30 781 N 73.905 1.17692 -1.04816 0
M  V30 782 C 75.321 1.39863 -0.768794 0
M  V30 783 C 75.521 1.91118 0.638451 0
M  V30 784 O 74.577 2.10036 1.40146 0
M  V30 785 C 75.89 2.39274 -1.82122 0
M  V30 786 C 77.438 2.52987 -1.843 0
M  V30 787 C 77.913 3.55669 -2.88555 0
M  V30 788 N 79.404 3.63183 -2.87493 0
M  V30 789 C 80.139 4.42381 -3.64811 0
M  V30 790 N 79.635 5.25125 -4.51903 0
M  V30 791 N 81.428 4.37217 -3.53267 0
M  V30 792 H 73.579 0.82752 -1.95617 0
M  V30 793 H 75.842 0.426123 -0.846831 0
M  V30 794 H 75.548 2.08678 -2.83102 0
M  V30 795 H 75.422 3.38725 -1.65967 0
M  V30 796 H 77.809 2.82896 -0.839869 0
M  V30 797 H 77.89 1.53623 -2.04532 0
M  V30 798 H 77.534 3.26499 -3.89051 0
M  V30 799 H 77.464 4.54728 -2.65575 0
M  V30 800 H 79.955 3.04103 -2.24343 0
M  V30 801 H 80.268 5.82728 -5.07591 0
M  V30 802 H 78.613 5.24519 -4.55966 0
M  V30 803 H 81.804 3.71626 -2.84625 0
M  V30 804 H 81.977 4.98696 -4.13771 0
M  V30 805 N 75.3831 0.828654 1.34056 0
M  V30 806 C 76.6321 0.415828 1.97367 0
M  V30 807 C 76.9451 -1.02796 1.6641 0
M  V30 808 O 78.1511 -1.54497 2.23255 0
M  V30 809 C 76.6071 0.692601 3.53173 0
M  V30 810 C 76.2151 2.15038 3.93017 0
M  V30 811 C 77.9591 0.346222 4.23086 0
M  V30 812 C 75.8661 2.37174 5.41758 0
M  V30 813 H 74.7961 0.151755 0.738571 0
M  V30 814 H 77.4471 1.01581 1.52819 0
M  V30 815 H 75.8291 0.0223764 3.95994 0
M  V30 816 H 77.0031 2.86024 3.61285 0
M  V30 817 H 75.3181 2.45875 3.36057 0
M  V30 818 H 77.9151 0.48937 5.32456 0
M  V30 819 H 78.2581 -0.709842 4.10204 0
M  V30 820 H 78.7911 0.971258 3.85761 0
M  V30 821 H 75.5301 3.41308 5.59633 0
M  V30 822 H 75.0501 1.70738 5.74986 0
M  V30 823 H 76.7291 2.19818 6.08514 0
M  V30 824 N 76.8612 -1.46375 0.584142 0
M  V30 825 C 77.8092 -2.32042 -0.161047 0
M  V30 826 C 78.8032 -1.44569 -0.882966 0
M  V30 827 O 80.0092 -1.61186 -0.801191 0
M  V30 828 H 76.3842 -0.748659 -0.0708033 0
M  V30 829 H 78.3552 -2.92704 0.580269 0
M  V30 830 C 77.1042 -3.27762 -1.1605 0
M  V30 831 H 76.4272 -3.95051 -0.614419 0
M  V30 832 H 77.8672 -3.90481 -1.65228 0
M  V30 833 C 76.3262 -2.53218 -2.22221 0
M  V30 834 O 76.8562 -2.29628 -3.29597 0
M  V30 835 N 75.0622 -2.13756 -1.96868 0
M  V30 836 H 74.6092 -2.33142 -1.09557 0
M  V30 837 H 74.5672 -1.642 -2.68115 0
M  V30 838 N 78.3393 -0.321999 -1.54275 0
M  V30 839 C 79.7553 0.0306999 -1.5957 0
M  V30 840 C 79.9553 1.50614 -1.33857 0
M  V30 841 O 79.0113 2.2619 -1.12223 0
M  V30 842 C 80.3243 -0.386122 -2.98211 0
M  V30 843 C 81.8723 -0.336647 -3.11184 0
M  V30 844 C 82.3473 -0.728607 -4.52167 0
M  V30 845 N 83.8383 -0.681952 -4.58152 0
M  V30 846 C 84.5733 -0.957449 -5.6535 0
M  V30 847 N 84.0693 -1.3 -6.80494 0
M  V30 848 N 85.8623 -0.883113 -5.55119 0
M  V30 849 H 78.0133 -1.28332 -1.69247 0
M  V30 850 H 80.2763 -0.521716 -0.791528 0
M  V30 851 H 79.9823 -1.41404 -3.22022 0
M  V30 852 H 79.8563 0.249662 -3.76373 0
M  V30 853 H 82.2433 0.682058 -2.8711 0
M  V30 854 H 82.3243 -1.00734 -2.3513 0
M  V30 855 H 81.9683 -1.74522 -4.76974 0
M  V30 856 H 81.8983 -0.0356152 -5.26588 0
M  V30 857 H 84.3893 -0.428985 -3.75457 0
M  V30 858 H 84.7023 -1.49563 -7.58189 0
M  V30 859 H 83.0473 -1.33824 -6.81994 0
M  V30 860 H 86.2383 -0.615001 -4.64042 0
M  V30 861 H 86.4113 -1.10118 -6.38575 0
M  V30 862 N 79.8174 1.5752 -0.0501392 0
M  V30 863 C 80.7804 2.1037 0.909786 0
M  V30 864 C 81.7804 1.02308 1.24056 0
M  V30 865 O 82.9704 1.28385 1.17741 0
M  V30 866 C 80.1024 2.58708 2.21998 0
M  V30 867 H 81.2954 2.96479 0.451665 0
M  V30 868 H 78.8484 1.55038 0.198248 0
M  V30 869 H 79.5834 1.75989 2.72394 0
M  V30 870 H 79.3684 3.37675 1.99295 0
M  V30 871 H 80.8584 2.99747 2.9076 0
M  V30 872 N 81.2955 -0.223234 1.56011 0
M  V30 873 C 82.7065 -0.790368 1.69145 0
M  V30 874 C 83.0575 -1.85055 0.651845 0
M  V30 875 O 82.1825 -2.15498 -0.197359 0
M  V30 876 C 82.7775 -1.4404 3.06656 0
M  V30 877 C 81.3365 -1.95494 3.2165 0
M  V30 878 C 80.4835 -0.814506 2.65068 0
M  V30 879 H 83.4345 0.00139011 1.587 0
M  V30 880 H 83.4555 -2.30916 3.0242 0
M  V30 881 H 82.9675 -0.668543 3.82298 0
M  V30 882 H 81.0685 -2.75487 2.50874 0
M  V30 883 H 81.1815 -2.13607 4.28846 0
M  V30 884 H 79.5455 -1.22137 2.23505 0
M  V30 885 H 80.3285 -0.0553515 3.43255 0
M  V30 886 N 82.7736 -1.49793 -0.48987 0
M  V30 887 C 83.6836 -1.70036 -1.61632 0
M  V30 888 C 84.6996 -0.583102 -1.63939 0
M  V30 889 O 85.8756 -0.859169 -1.82154 0
M  V30 890 C 82.9406 -1.77277 -2.97949 0
M  V30 891 C 82.0016 -3.00918 -3.06181 0
M  V30 892 C 81.2346 -3.07804 -4.35996 0
M  V30 893 O 81.4576 -2.21982 -5.25433 0
M  V30 894 O 80.3916 -4.00369 -4.49431 0
M  V30 895 H 84.2176 -2.65486 -1.47482 0
M  V30 896 H 81.8026 -1.33666 -0.667362 0
M  V30 897 H 83.6846 -1.84329 -3.78947 0
M  V30 898 H 82.3596 -0.850076 -3.12339 0
M  V30 899 H 81.2666 -2.99377 -2.2433 0
M  V30 900 H 82.5996 -3.92704 -2.96723 0
M  V30 901 N 84.2517 0.741722 -1.39055 0
M  V30 902 C 85.6677 1.04638 -1.20512 0
M  V30 903 C 85.8677 2.01405 -0.0620218 0
M  V30 904 O 84.9237 2.45547 0.588457 0
M  V30 905 C 86.2367 1.6151 -2.53643 0
M  V30 906 C 87.7847 1.73623 -2.6043 0
M  V30 907 C 88.2597 2.33906 -3.93767 0
M  V30 908 N 89.7507 2.41323 -3.9537 0
M  V30 909 C 90.4857 2.88888 -4.95309 0
M  V30 910 N 89.9817 3.36401 -6.05645 0
M  V30 911 N 91.7747 2.88037 -4.82692 0
M  V30 912 H 83.9257 0.0998155 -2.12165 0
M  V30 913 H 86.1887 0.106907 -0.941953 0
M  V30 914 H 85.8947 0.978739 -3.37807 0
M  V30 915 H 85.7687 2.60411 -2.72885 0
M  V30 916 H 88.1557 2.36384 -1.76655 0
M  V30 917 H 88.2367 0.733945 -2.45045 0
M  V30 918 H 87.8807 1.71776 -4.7797 0
M  V30 919 H 87.8107 3.34799 -4.06469 0
M  V30 920 H 90.3017 2.07734 -3.15682 0
M  V30 921 H 90.6147 3.71186 -6.77821 0
M  V30 922 H 88.9597 3.34427 -6.09248 0
M  V30 923 H 92.1507 2.50237 -3.95599 0
M  V30 924 H 92.3237 3.24792 -5.60726 0
M  V30 925 N 85.7298 1.2412 0.971189 0
M  V30 926 C 86.6598 1.05508 2.08304 0
M  V30 927 C 87.6408 -0.0308864 1.70072 0
M  V30 928 O 88.8258 0.135521 1.93727 0
M  V30 929 C 85.9558 0.655365 3.4106 0
M  V30 930 C 84.9098 1.68971 3.93234 0
M  V30 931 C 84.2358 1.14516 5.22293 0
M  V30 932 C 85.5358 3.08487 4.21465 0
M  V30 933 H 87.2298 1.98507 2.24132 0
M  V30 934 H 84.7758 0.955821 1.07704 0
M  V30 935 H 86.7288 0.51217 4.18276 0
M  V30 936 H 85.4528 -0.31032 3.25122 0
M  V30 937 H 84.1118 1.82106 3.18171 0
M  V30 938 H 83.7598 0.170189 5.02712 0
M  V30 939 H 83.4598 1.83635 5.58168 0
M  V30 940 H 84.9838 1.01401 6.02121 0
M  V30 941 H 86.3978 2.98601 4.89398 0
M  V30 942 H 84.7948 3.74926 4.68562 0
M  V30 943 H 85.8648 3.56787 3.28376 0
M  V30 944 N 87.2079 -1.17134 1.05439 0
M  V30 945 C 88.4559 -1.87085 0.764429 0
M  V30 946 C 88.7769 -1.81584 -0.710787 0
M  V30 947 O 88.0469 -1.24349 -1.51374 0
M  V30 948 H 86.6269 -0.692627 0.279779 0
M  V30 949 H 89.2889 -1.42087 1.33406 0
M  V30 950 H 88.3849 -2.92759 1.0816 0
M  V30 951 N 88.686 -0.835752 -1.33615 0
M  V30 952 C 89.633 -0.26473 -2.29277 0
M  V30 953 C 90.603 0.617712 -1.54187 0
M  V30 954 O 91.788 0.556641 -1.825 0
M  V30 955 C 88.928 0.556777 -3.40579 0
M  V30 956 C 88.041 -0.349339 -4.30585 0
M  V30 957 C 87.176 0.482969 -5.29 0
M  V30 958 C 86.215 -0.421732 -6.10645 0
M  V30 959 N 85.352 0.372262 -7.01112 0
M  V30 960 H 90.192 -1.08582 -2.77514 0
M  V30 961 H 87.729 -0.546927 -1.36554 0
M  V30 962 H 89.687 1.04852 -4.03809 0
M  V30 963 H 88.317 1.34286 -2.93542 0
M  V30 964 H 87.369 -0.959372 -3.68104 0
M  V30 965 H 88.681 -1.04445 -4.87742 0
M  V30 966 H 87.835 1.03866 -5.97743 0
M  V30 967 H 86.574 1.21153 -4.72412 0
M  V30 968 H 85.579 -0.989464 -5.40823 0
M  V30 969 H 86.804 -1.14861 -6.69316 0
M  V30 970 H 84.75 1.08426 -6.46977 0
M  V30 971 H 84.667 -0.264198 -7.55538 0
M  V30 972 H 85.935 0.910293 -7.74167 0
M  V30 973 N 90.1641 1.46063 -0.591896 0
M  V30 974 C 91.1271 2.28854 0.125973 0
M  V30 975 C 92.1271 1.38903 0.810107 0
M  V30 976 O 93.3171 1.61186 0.66066 0
M  V30 977 C 90.4491 3.19526 1.1881 0
M  V30 978 H 91.6421 2.93802 -0.601717 0
M  V30 979 H 89.1951 1.52325 -0.350254 0
M  V30 980 H 89.9301 2.59345 1.94707 0
M  V30 981 H 89.7151 3.85766 0.701936 0
M  V30 982 H 91.2051 3.81817 1.69132 0
M  V30 983 N 91.6422 0.330177 1.54103 0
M  V30 984 C 92.5892 -0.532762 2.24567 0
M  V30 985 C 93.5592 -1.10635 1.23892 0
M  V30 986 O 94.7442 -1.14546 1.5259 0
M  V30 987 C 91.8842 -1.6845 3.01195 0
M  V30 988 C 90.9972 -1.13951 4.167 0
M  V30 989 C 90.1322 -2.25746 4.80845 0
M  V30 990 C 89.1712 -1.6853 5.88442 0
M  V30 991 N 88.3082 -2.74014 6.46421 0
M  V30 992 H 93.1482 0.0746905 2.97906 0
M  V30 993 H 90.6852 0.048632 1.4702 0
M  V30 994 H 92.6432 -2.36234 3.43874 0
M  V30 995 H 91.2732 -2.26314 2.30178 0
M  V30 996 H 90.3252 -0.35301 3.78758 0
M  V30 997 H 91.6372 -0.680892 4.94131 0
M  V30 998 H 90.7912 -3.01422 5.26526 0
M  V30 999 H 89.5302 -2.74947 4.0281 0
M  V30 1000 H 88.5352 -0.913543 5.42157 0
M  V30 1001 H 89.7602 -1.20198 6.68378 0
M  V30 1002 H 87.7062 -3.22494 5.71256 0
M  V30 1003 H 87.6232 -2.32735 7.19285 0
M  V30 1004 H 88.8912 -3.49499 6.96757 0
M  V30 1005 N 93.1203 -1.57491 0.0584922 0
M  V30 1006 C 94.3663 -1.93264 -0.614558 0
M  V30 1007 C 94.6993 -0.937717 -1.7006 0
M  V30 1008 O 93.9743 0.0351652 -1.94468 0
M  V30 1009 C 94.2573 -3.3938 -1.20386 0
M  V30 1010 C 94.1103 -4.49625 -0.125375 0
M  V30 1011 C 95.4293 -3.86039 -2.11334 0
M  V30 1012 H 92.5483 -0.702791 -0.221933 0
M  V30 1013 H 95.1903 -1.8961 0.12175 0
M  V30 1014 H 93.3403 -3.42626 -1.83139 0
M  V30 1015 H 95.0123 -4.58506 0.506971 0
M  V30 1016 H 93.2553 -4.30354 0.545672 0
M  V30 1017 H 93.9263 -5.48967 -0.577861 0
M  V30 1018 H 96.4023 -3.84716 -1.58534 0
M  V30 1019 H 95.2783 -4.88914 -2.49507 0
M  V30 1020 H 95.5393 -3.23215 -3.01636 0
M  V30 1021 N 94.5984 0.214957 -1.56127 0
M  V30 1022 C 95.5084 1.28727 -1.96129 0
M  V30 1023 C 96.5244 1.50916 -0.866044 0
M  V30 1024 O 97.7004 1.63918 -1.17016 0
M  V30 1025 C 94.7654 2.61569 -2.27558 0
M  V30 1026 C 93.8264 2.47625 -3.50685 0
M  V30 1027 C 93.0594 3.74132 -3.80606 0
M  V30 1028 O 93.2824 4.77438 -3.12104 0
M  V30 1029 O 92.2164 3.70849 -4.74083 0
M  V30 1030 H 96.0424 0.977855 -2.87527 0
M  V30 1031 H 93.6274 0.418358 -1.43423 0
M  V30 1032 H 95.5094 3.40012 -2.48938 0
M  V30 1033 H 94.1844 2.92178 -1.39332 0
M  V30 1034 H 93.0914 1.67361 -3.34576 0
M  V30 1035 H 94.4244 2.21954 -4.39315 0
M  V30 1036 N 96.0765 1.50051 0.48192 0
M  V30 1037 C 97.3225 1.60736 1.2366 0
M  V30 1038 C 97.6555 0.301786 1.91841 0
M  V30 1039 O 96.9305 -0.696025 1.8162 0
M  V30 1040 C 97.2135 2.78009 2.28874 0
M  V30 1041 C 97.0665 4.18416 1.65069 0
M  V30 1042 C 98.3855 2.90867 3.30279 0
M  V30 1043 H 95.5045 0.585031 0.448228 0
M  V30 1044 H 98.1465 1.82402 0.531946 0
M  V30 1045 H 96.2965 2.59667 2.88973 0
M  V30 1046 H 97.9685 4.48322 1.0865 0
M  V30 1047 H 96.2115 4.23177 0.954148 0
M  V30 1048 H 96.8825 4.96381 2.41474 0
M  V30 1049 H 99.3585 3.07623 2.80191 0
M  V30 1050 H 98.2345 3.74566 4.01238 0
M  V30 1051 H 98.4955 2.01021 3.93755 0
M  V30 1052 N 97.5546 -0.734337 1.39446 0
M  V30 1053 C 98.8316 -1.48579 1.27215 0
M  V30 1054 C 99.2116 -2.1077 -0.117968 0
M  V30 1055 O 98.5596 -1.98646 -1.12924 0
M  V30 1056 C 98.7696 -2.53667 2.39696 0
M  V30 1057 C 100.118 -3.20031 2.79044 0
M  V30 1058 O 101.142 -2.6398 2.39151 0
M  V30 1059 O 100.001 -4.21455 3.47905 0
M  V30 1060 H 97.0946 -0.659816 0.49857 0
M  V30 1061 H 99.6406 -0.768106 1.51322 0
M  V30 1062 H 98.4126 -2.06096 3.32626 0
M  V30 1063 H 98.0356 -3.32994 2.17258 0
M  V30 1064 N 99.0327 -1.24633 -0.964593 0
M  V30 1065 C 100.282 -1.08188 -1.7023 0
M  V30 1066 C 100.595 0.37873 -1.91898 0
M  V30 1067 O 101.801 0.663427 -2.6327 0
M  V30 1068 C 100.257 -1.88773 -3.06419 0
M  V30 1069 C 99.8647 -3.39263 -2.92582 0
M  V30 1070 C 101.609 -1.80867 -3.84041 0
M  V30 1071 C 99.5157 -4.1218 -4.24101 0
M  V30 1072 H 98.4457 -0.401245 -0.638372 0
M  V30 1073 H 101.097 -1.48742 -1.07462 0
M  V30 1074 H 99.4787 -1.41035 -3.70034 0
M  V30 1075 H 100.653 -3.94603 -2.37961 0
M  V30 1076 H 98.9677 -3.48154 -2.28424 0
M  V30 1077 H 101.565 -2.32646 -4.81435 0
M  V30 1078 H 101.908 -0.774543 -4.09031 0
M  V30 1079 H 102.441 -2.26301 -3.27159 0
M  V30 1080 H 99.1797 -5.15965 -4.04303 0
M  V30 1081 H 98.6997 -3.61626 -4.78526 0
M  V30 1082 H 100.379 -4.19349 -4.92702 0
M  V30 1083 N 100.511 1.16574 -1.06058 0
M  V30 1084 C 101.758 1.87047 -0.775873 0
M  V30 1085 C 102.086 1.81562 0.697534 0
M  V30 1086 O 101.341 1.22445 1.52662 0
M  V30 1087 C 101.64 3.36195 -1.21275 0
M  V30 1088 C 101.306 3.6188 -2.68986 0
M  V30 1089 C 99.9678 3.68599 -3.09335 0
M  V30 1090 C 102.32 3.72648 -3.64394 0
M  V30 1091 C 99.6478 3.83584 -4.43937 0
M  V30 1092 C 102 3.89154 -4.98741 0
M  V30 1093 C 100.664 3.94114 -5.3873 0
M  V30 1094 H 99.9338 0.684452 -0.283912 0
M  V30 1095 H 102.581 1.37853 -1.32925 0
M  V30 1096 H 100.886 3.87505 -0.578528 0
M  V30 1097 H 102.583 3.89103 -0.969542 0
M  V30 1098 H 99.1728 3.57281 -2.36744 0
M  V30 1099 H 103.357 3.66769 -3.34356 0
M  V30 1100 H 98.6128 3.85677 -4.74409 0
M  V30 1101 H 102.787 3.96427 -5.72554 0
M  V30 1102 H 100.414 4.05478 -6.43033 0
M  V30 1103 N 101.989 0.842826 1.3317 0
M  V30 1104 C 102.899 0.281444 2.32906 0
M  V30 1105 C 103.915 -0.594587 1.63526 0
M  V30 1106 O 105.091 -0.49777 1.95152 0
M  V30 1107 C 102.156 -0.530929 3.42611 0
M  V30 1108 C 101.217 0.369843 4.27704 0
M  V30 1109 C 100.45 -0.403853 5.3217 0
M  V30 1110 O 100.673 -1.63513 5.46461 0
M  V30 1111 O 99.6069 0.224199 6.01482 0
M  V30 1112 H 103.433 1.10744 2.82789 0
M  V30 1113 H 101.018 0.60545 1.36582 0
M  V30 1114 H 102.9 -0.992437 4.09547 0
M  V30 1115 H 101.575 -1.33392 2.94938 0
M  V30 1116 H 100.482 0.879275 3.6362 0
M  V30 1117 H 101.815 1.13771 4.78871 0
M  V30 1118 N 103.467 -1.45747 0.599634 0
M  V30 1119 C 104.397 -2.33235 -0.111306 0
M  V30 1120 C 105.378 -1.46359 -0.866781 0
M  V30 1121 O 106.563 -1.75146 -0.838904 0
M  V30 1122 C 103.693 -3.28932 -1.11451 0
M  V30 1123 C 102.647 -4.25381 -0.472772 0
M  V30 1124 C 101.973 -5.1071 -1.58365 0
M  V30 1125 C 103.273 -5.18831 0.600948 0
M  V30 1126 H 104.967 -2.92927 0.61919 0
M  V30 1127 H 102.513 -1.40857 0.299215 0
M  V30 1128 H 104.466 -3.89002 -1.62036 0
M  V30 1129 H 103.19 -2.67381 -1.8755 0
M  V30 1130 H 101.849 -3.66598 0.0121472 0
M  V30 1131 H 101.497 -4.45533 -2.33473 0
M  V30 1132 H 101.197 -5.7604 -1.15982 0
M  V30 1133 H 102.721 -5.73647 -2.09194 0
M  V30 1134 H 104.135 -5.73019 0.179491 0
M  V30 1135 H 102.532 -5.92595 0.946076 0
M  V30 1136 H 103.602 -4.6174 1.48068 0
M  V30 1137 N 104.945 -0.338344 -1.53925 0
M  V30 1138 C 105.875 0.51328 -2.27789 0
M  V30 1139 C 106.856 1.107 -1.29149 0
M  V30 1140 O 108.041 1.12937 -1.57984 0
M  V30 1141 C 105.171 1.66697 -3.04679 0
M  V30 1142 C 104.125 1.20183 -4.1078 0
M  V30 1143 C 103.451 2.44363 -4.75595 0
M  V30 1144 C 104.751 0.30605 -5.21403 0
M  V30 1145 H 106.445 -0.102883 -2.99223 0
M  V30 1146 H 103.991 -0.0509219 -1.4391 0
M  V30 1147 H 105.944 2.26915 -3.55088 0
M  V30 1148 H 104.668 2.30995 -2.30887 0
M  V30 1149 H 103.327 0.622499 -3.61276 0
M  V30 1150 H 102.975 3.07057 -3.98403 0
M  V30 1151 H 102.675 2.13925 -5.47275 0
M  V30 1152 H 104.199 3.05317 -5.28786 0
M  V30 1153 H 105.613 0.814929 -5.67478 0
M  V30 1154 H 104.01 0.0937929 -6.00027 0
M  V30 1155 H 105.08 -0.65921 -4.80398 0
M  V30 1156 N 106.423 1.57458 -0.0668435 0
M  V30 1157 C 107.839 1.56947 0.289772 0
M  V30 1158 C 108.039 1.07584 1.70376 0
M  V30 1159 O 107.095 0.739486 2.41429 0
M  V30 1160 C 108.408 3.0052 0.103943 0
M  V30 1161 C 109.956 3.12517 0.173857 0
M  V30 1162 C 110.431 4.57997 0.0163682 0
M  V30 1163 N 111.922 4.63144 0.0721352 0
M  V30 1164 C 112.657 5.73394 -0.0253794 0
M  V30 1165 N 112.153 6.92576 -0.176133 0
M  V30 1166 N 113.946 5.62091 0.0313305 0
M  V30 1167 H 106.097 1.87863 -0.991027 0
M  V30 1168 H 108.36 0.86583 -0.38606 0
M  V30 1169 H 108.066 3.40729 -0.871572 0
M  V30 1170 H 107.94 3.67304 0.858366 0
M  V30 1171 H 110.327 2.72197 1.13985 0
M  V30 1172 H 110.408 2.48381 -0.611586 0
M  V30 1173 H 110.052 4.99005 -0.946374 0
M  V30 1174 H 109.982 5.20158 0.821153 0
M  V30 1175 H 112.473 3.77436 0.187263 0
M  V30 1176 H 112.786 7.72418 -0.242821 0
M  V30 1177 H 111.131 6.94678 -0.211429 0
M  V30 1178 H 114.322 4.67867 0.147773 0
M  V30 1179 H 114.495 6.47982 -0.048121 0
M  V30 1180 N 107.901 -0.206675 1.56239 0
M  V30 1181 C 109.178 -0.954051 1.70755 0
M  V30 1182 C 109.558 -2.01841 0.618353 0
M  V30 1183 O 108.906 -2.25444 -0.372434 0
M  V30 1184 C 109.116 -1.551 3.12642 0
M  V30 1185 C 110.464 -2.03757 3.72516 0
M  V30 1186 O 111.488 -1.64965 3.15698 0
M  V30 1187 O 110.347 -2.75103 4.72208 0
M  V30 1188 H 107.441 -0.446636 0.696021 0
M  V30 1189 H 109.987 -0.197283 1.68549 0
M  V30 1190 H 108.759 -0.783212 3.83382 0
M  V30 1191 H 108.382 -2.37291 3.19028 0
M  V30 1192 N 109.379 -1.50304 -0.473955 0
M  V30 1193 C 110.604 -1.65175 -1.25427 0
M  V30 1194 C 111.029 -0.333673 -1.85117 0
M  V30 1195 O 110.387 0.702114 -1.67153 0
M  V30 1196 C 110.435 -2.74295 -2.34082 0
M  V30 1197 O 109.539 -2.35349 -3.38651 0
M  V30 1198 H 108.88 -0.551944 -0.369126 0
M  V30 1199 H 111.41 -1.96662 -0.564364 0
M  V30 1200 H 111.42 -2.97285 -2.79438 0
M  V30 1201 H 110.095 -3.69959 -1.90008 0
M  V30 1202 H 108.672 -2.22794 -2.99027 0
M  V30 1203 N 110.857 0.726932 -1.39834 0
M  V30 1204 C 111.767 1.87131 -1.41489 0
M  V30 1205 C 112.783 1.71239 -0.308757 0
M  V30 1206 O 113.959 1.93701 -0.551529 0
M  V30 1207 C 111.024 3.22811 -1.26468 0
M  V30 1208 C 110.085 3.51039 -2.47124 0
M  V30 1209 C 109.318 4.80245 -2.3281 0
M  V30 1210 O 109.541 5.54537 -1.33585 0
M  V30 1211 O 108.475 5.08554 -3.21957 0
M  V30 1212 H 112.301 1.8869 -2.3797 0
M  V30 1213 H 109.886 0.875837 -1.21035 0
M  V30 1214 H 111.768 4.03877 -1.20255 0
M  V30 1215 H 110.443 3.22005 -0.330862 0
M  V30 1216 H 109.35 2.70027 -2.58914 0
M  V30 1217 H 110.683 3.56632 -3.39227 0
M  V30 1218 N 112.336 1.25143 0.95797 0
M  V30 1219 C 113.566 1.12261 1.73439 0
M  V30 1220 C 113.974 -0.326715 1.86358 0
M  V30 1221 O 113.317 -1.2367 1.35836 0
M  V30 1222 C 113.379 1.69966 3.16784 0
M  V30 1223 C 113.043 3.18936 3.27305 0
M  V30 1224 C 114.04 4.15968 3.11877 0
M  V30 1225 C 111.725 3.59083 3.51234 0
M  V30 1226 C 113.719 5.51126 3.20217 0
M  V30 1227 C 111.406 4.9438 3.5921 0
M  V30 1228 C 112.404 5.90211 3.43716 0
M  V30 1229 O 112.092 7.23046 3.51368 0
M  V30 1230 H 111.824 0.392476 0.550399 0
M  V30 1231 H 114.378 1.65927 1.21068 0
M  V30 1232 H 112.608 1.10744 3.70503 0
M  V30 1233 H 114.297 1.52232 3.76272 0
M  V30 1234 H 115.063 3.86292 2.93264 0
M  V30 1235 H 110.942 2.84989 3.62356 0
M  V30 1236 H 114.486 6.25905 3.0804 0
M  V30 1237 H 110.383 5.23723 3.77339 0
M  V30 1238 H 111.151 7.31097 3.6802 0
M  V30 1239 N 113.814 -1.1601 1.06675 0
M  V30 1240 C 114.724 -2.24156 0.692179 0
M  V30 1241 C 115.74 -1.71507 -0.293513 0
M  V30 1242 O 116.916 -2.009 -0.141861 0
M  V30 1243 C 113.981 -3.46587 0.0884131 0
M  V30 1244 C 113.042 -4.14257 1.12646 0
M  V30 1245 C 112.275 -5.30844 0.551416 0
M  V30 1246 O 112.498 -5.66858 -0.634656 0
M  V30 1247 O 111.432 -5.87848 1.29298 0
M  V30 1248 H 115.258 -2.58513 1.59388 0
M  V30 1249 H 112.843 -1.23599 0.83926 0
M  V30 1250 H 114.725 -4.20679 -0.246361 0
M  V30 1251 H 113.4 -3.13994 -0.786712 0
M  V30 1252 H 112.307 -3.42118 1.51348 0
M  V30 1253 H 113.64 -4.50914 1.97325 0
M  V30 1254 N 115.292 -0.849877 -1.32721 0
M  V30 1255 C 116.52 -0.464754 -2.01613 0
M  V30 1256 C 116.935 0.937191 -1.63897 0
M  V30 1257 O 116.292 1.61081 -0.857856 0
M  V30 1258 C 116.343 -0.588638 -3.56675 0
M  V30 1259 O 116.064 -1.93535 -3.93034 0
M  V30 1260 C 117.565 -0.2019 -4.4284 0
M  V30 1261 H 114.785 -0.183215 -0.645502 0
M  V30 1262 H 117.329 -1.1455 -1.69407 0
M  V30 1263 H 115.484 0.0443159 -3.87375 0
M  V30 1264 H 115.898 -1.92871 -4.87751 0
M  V30 1265 H 117.372 -0.339599 -5.50954 0
M  V30 1266 H 117.849 0.857224 -4.30753 0
M  V30 1267 H 118.455 -0.809733 -4.17521 0
M  V30 1268 N 116.77 1.45427 -0.607355 0
M  V30 1269 C 117.733 2.28974 0.101693 0
M  V30 1270 C 118.733 1.39754 0.795329 0
M  V30 1271 O 119.923 1.61878 0.643527 0
M  V30 1272 C 117.055 3.20768 1.15414 0
M  V30 1273 H 118.248 2.93147 -0.632844 0
M  V30 1274 H 115.801 1.51945 -0.366391 0
M  V30 1275 H 116.536 2.61395 1.91945 0
M  V30 1276 H 116.321 3.86489 0.66098 0
M  V30 1277 H 117.811 3.83589 1.65073 0
M  V30 1278 N 118.248 0.346503 1.53744 0
M  V30 1279 C 119.158 -0.517293 2.28826 0
M  V30 1280 C 120.174 -1.10935 1.3405 0
M  V30 1281 O 121.35 -1.1244 1.6709 0
M  V30 1282 C 118.415 -1.65098 3.04866 0
M  V30 1283 C 117.476 -1.0884 4.15274 0
M  V30 1284 C 116.709 -2.16806 4.87679 0
M  V30 1285 O 116.932 -3.3758 4.59778 0
M  V30 1286 O 115.866 -1.80934 5.74061 0
M  V30 1287 H 119.692 0.0931396 3.03557 0
M  V30 1288 H 117.277 0.111458 1.48984 0
M  V30 1289 H 119.159 -2.31053 3.5241 0
M  V30 1290 H 117.834 -2.24717 2.32989 0
M  V30 1291 H 116.741 -0.3933 3.72027 0
M  V30 1292 H 118.074 -0.537036 4.89261 0
M  V30 1293 N 119.726 -1.57421 0.075193 0
M  V30 1294 C 120.954 -1.97946 -0.602076 0
M  V30 1295 C 121.369 -0.953674 -1.62943 0
M  V30 1296 O 120.726 0.0592551 -1.82404 0
M  V30 1297 C 120.777 -3.38546 -1.26762 0
M  V30 1298 O 120.498 -4.37195 -0.281376 0
M  V30 1299 C 121.999 -3.93966 -2.03239 0
M  V30 1300 H 119.219 -0.650918 -0.162931 0
M  V30 1301 H 121.763 -2.03959 0.148601 0
M  V30 1302 H 119.918 -3.33609 -1.96936 0
M  V30 1303 H 120.332 -5.18975 -0.759267 0
M  V30 1304 H 121.806 -4.94555 -2.45193 0
M  V30 1305 H 122.283 -3.30693 -2.8903 0
M  V30 1306 H 122.889 -4.02315 -1.37924 0
M  V30 1307 N 121.204 0.198386 -1.56346 0
M  V30 1308 C 122.137 1.27381 -1.89339 0
M  V30 1309 C 123.115 1.44106 -0.753134 0
M  V30 1310 O 124.299 1.59549 -1.00381 0
M  V30 1311 C 121.426 2.6409 -2.12071 0
M  V30 1312 C 120.472 2.64253 -3.34772 0
M  V30 1313 S 121.305 2.16013 -4.89999 0
M  V30 1314 C 122.461 3.54553 -5.15794 0
M  V30 1315 H 122.694 0.992058 -2.8026 0
M  V30 1316 H 120.227 0.401726 -1.49082 0
M  V30 1317 H 122.185 3.42786 -2.2585 0
M  V30 1318 H 120.846 2.89478 -1.21906 0
M  V30 1319 H 120.039 3.64768 -3.47794 0
M  V30 1320 H 119.641 1.93637 -3.1997 0
M  V30 1321 H 121.933 4.50396 -5.06112 0
M  V30 1322 H 122.876 3.46428 -6.1757 0
M  V30 1323 H 123.284 3.49313 -4.43442 0
M  V30 1324 N 122.682 1.50554 0.465978 0
M  V30 1325 C 123.922 1.63439 1.22747 0
M  V30 1326 C 124.286 0.329822 1.89146 0
M  V30 1327 O 125.487 0.334161 2.66715 0
M  V30 1328 C 123.758 2.78542 2.2394 0
M  V30 1329 S 125.317 3.11591 3.0896 0
M  V30 1330 H 122.135 0.576113 0.416672 0
M  V30 1331 H 124.737 1.88357 0.523641 0
M  V30 1332 H 123.441 3.71805 1.7375 0
M  V30 1333 H 122.972 2.55726 2.98944 0
M  V30 1334 H 124.987 2.55811 4.25176 0
M  V30 1335 N 124.16 -0.719506 1.40217 0
M  V30 1336 C 125.092 -1.84428 1.36084 0
M  V30 1337 C 126.105 -1.60597 0.266913 0
M  V30 1338 O 127.294 -1.70544 0.526983 0
M  V30 1339 C 124.394 -3.20757 1.094 0
M  V30 1340 C 123.567 -3.71817 2.30372 0
M  V30 1341 C 122.626 -4.86748 1.99907 0
M  V30 1342 O 121.652 -4.99603 2.72737 0
M  V30 1343 N 122.854 -5.7226 0.974635 0
M  V30 1344 H 125.619 -1.88473 2.33019 0
M  V30 1345 H 123.18 -0.900885 1.3452 0
M  V30 1346 H 125.172 -3.95235 0.870116 0
M  V30 1347 H 123.742 -3.11884 0.211452 0
M  V30 1348 H 122.962 -2.88514 2.68614 0
M  V30 1349 H 124.25 -4.02666 3.11026 0
M  V30 1350 H 123.648 -5.6448 0.371368 0
M  V30 1351 H 122.205 -6.46739 0.810656 0
M  V30 1352 N 125.638 -1.25649 -0.95132 0
M  V30 1353 C 126.887 -1.09988 -1.69073 0
M  V30 1354 C 127.2 0.358355 -1.92289 0
M  V30 1355 O 128.406 0.635466 -2.63958 0
M  V30 1356 C 126.862 -1.92012 -3.044 0
M  V30 1357 C 126.47 -3.42347 -2.88968 0
M  V30 1358 C 128.214 -1.8493 -3.82101 0
M  V30 1359 C 126.121 -4.16655 -4.19705 0
M  V30 1360 H 125.051 -0.407993 -0.63408 0
M  V30 1361 H 127.702 -1.49873 -1.05879 0
M  V30 1362 H 126.084 -1.44952 -3.68517 0
M  V30 1363 H 127.258 -3.97104 -2.33762 0
M  V30 1364 H 125.573 -3.50557 -2.24719 0
M  V30 1365 H 128.17 -2.37739 -4.78941 0
M  V30 1366 H 128.513 -0.817883 -4.08187 0
M  V30 1367 H 129.046 -2.29758 -3.2474 0
M  V30 1368 H 125.785 -5.20224 -3.98807 0
M  V30 1369 H 125.305 -3.66681 -4.74663 0
M  V30 1370 H 126.984 -4.24551 -4.88227 0
M  V30 1371 N 127.117 1.15442 -1.07289 0
M  V30 1372 C 128.047 2.22312 -0.714107 0
M  V30 1373 C 129.028 1.67467 0.298155 0
M  V30 1374 O 130.213 1.93445 0.171048 0
M  V30 1375 C 127.343 3.47124 -0.110448 0
M  V30 1376 C 126.297 4.14926 -1.04979 0
M  V30 1377 C 125.623 5.33807 -0.308924 0
M  V30 1378 C 126.923 4.64762 -2.38314 0
M  V30 1379 H 128.617 2.5258 -1.6076 0
M  V30 1380 H 126.163 1.21404 -0.77441 0
M  V30 1381 H 128.116 4.21124 0.152482 0
M  V30 1382 H 126.84 3.16187 0.81812 0
M  V30 1383 H 125.499 3.42866 -1.29764 0
M  V30 1384 H 125.147 4.99126 0.623084 0
M  V30 1385 H 124.847 5.80113 -0.935036 0
M  V30 1386 H 126.371 6.10576 -0.0537771 0
M  V30 1387 H 127.785 5.30292 -2.1786 0
M  V30 1388 H 126.182 5.21728 -2.96514 0
M  V30 1389 H 127.252 3.80434 -3.00663 0
M  V30 1390 N 128.595 0.856903 1.32268 0
M  V30 1391 C 130.006 0.515711 1.79436 0
M  V30 1392 C 130.357 -0.966586 1.70738 0
M  V30 1393 O 129.482 -1.75409 1.26731 0
M  V30 1394 C 130.077 0.929335 3.25805 0
M  V30 1395 C 128.636 0.640006 3.70919 0
M  V30 1396 C 127.783 1.12784 2.53328 0
M  V30 1397 H 130.734 1.04389 1.19535 0
M  V30 1398 H 130.755 0.246633 3.797 0
M  V30 1399 H 130.267 2.00821 3.32103 0
M  V30 1400 H 128.368 -0.428051 3.70133 0
M  V30 1401 H 128.481 1.20788 4.63624 0
M  V30 1402 H 126.845 0.548033 2.48734 0
M  V30 1403 H 127.628 2.21387 2.62379 0
M  V30 1404 N 130.073 -1.45103 0.615059 0
M  V30 1405 C 131.02 -2.30586 -0.0993978 0
M  V30 1406 C 131.99 -1.42544 -0.852669 0
M  V30 1407 O 133.175 -1.71465 -0.836917 0
M  V30 1408 C 130.315 -3.27572 -1.08583 0
M  V30 1409 C 129.428 -4.30717 -0.332656 0
M  V30 1410 C 128.563 -5.14807 -1.30947 0
M  V30 1411 C 127.602 -6.09673 -0.544538 0
M  V30 1412 N 126.739 -6.86517 -1.47101 0
M  V30 1413 H 131.579 -2.91144 0.635542 0
M  V30 1414 H 129.116 -1.4346 0.325206 0
M  V30 1415 H 131.074 -3.82276 -1.67095 0
M  V30 1416 H 129.704 -2.68751 -1.78809 0
M  V30 1417 H 128.756 -3.78615 0.368107 0
M  V30 1418 H 130.068 -4.98102 0.263842 0
M  V30 1419 H 129.222 -5.73948 -1.96643 0
M  V30 1420 H 127.961 -4.47458 -1.9399 0
M  V30 1421 H 126.966 -5.49656 0.126003 0
M  V30 1422 H 128.191 -6.79052 0.080947 0
M  V30 1423 H 126.137 -6.21851 -2.08895 0
M  V30 1424 H 126.054 -7.50281 -0.928137 0
M  V30 1425 H 127.322 -7.50194 -2.11731 0
M  V30 1426 N 131.551 -0.354651 -1.53558 0
M  V30 1427 C 132.799 0.237972 -2.00694 0
M  V30 1428 C 133.12 1.50173 -1.24391 0
M  V30 1429 O 132.39 1.92673 -0.354135 0
M  V30 1430 H 130.97 0.0909256 -0.741446 0
M  V30 1431 H 133.632 -0.478368 -1.88938 0
M  V30 1432 H 132.728 0.47264 -3.085 0
M  V30 1433 N 133.029 1.57378 -0.0835403 0
M  V30 1434 C 134.275 1.94217 0.583733 0
M  V30 1435 C 134.608 0.964653 1.68547 0
M  V30 1436 O 133.883 -0.00422258 1.945 0
M  V30 1437 C 134.166 3.41253 1.14972 0
M  V30 1438 C 134.019 4.49768 0.0538277 0
M  V30 1439 C 135.338 3.89352 2.05166 0
M  V30 1440 H 132.457 0.706233 0.210724 0
M  V30 1441 H 135.099 1.89392 -0.1519 0
M  V30 1442 H 133.249 3.45496 1.77665 0
M  V30 1443 H 134.921 4.57641 -0.579851 0
M  V30 1444 H 133.164 4.29432 -0.614068 0
M  V30 1445 H 133.835 5.49817 0.490452 0
M  V30 1446 H 136.311 3.87189 1.52393 0
M  V30 1447 H 135.187 4.92822 2.41698 0
M  V30 1448 H 135.448 3.27973 2.96456 0
M  V30 1449 N 134.507 -0.190092 1.56449 0
M  V30 1450 C 135.753 -0.911052 1.81184 0
M  V30 1451 C 136.086 -1.82699 0.658396 0
M  V30 1452 O 135.361 -1.91491 -0.340775 0
M  V30 1453 C 135.644 -1.72297 3.16205 0
M  V30 1454 C 135.497 -0.831419 4.42049 0
M  V30 1455 C 136.816 -2.69454 3.47969 0
M  V30 1456 H 133.935 -0.32977 0.659106 0
M  V30 1457 H 136.577 -0.178169 1.89163 0
M  V30 1458 H 134.727 -2.34778 3.09534 0
M  V30 1459 H 136.399 -0.220929 4.60771 0
M  V30 1460 H 134.642 -0.138406 4.33579 0
M  V30 1461 H 135.313 -1.43461 5.33032 0
M  V30 1462 H 137.789 -2.17104 3.54972 0
M  V30 1463 H 136.665 -3.23342 4.43555 0
M  V30 1464 H 136.926 -3.48744 2.71717 0
M  V30 1465 N 135.985 -1.50799 -0.457987 0
M  V30 1466 C 136.948 -1.7005 -1.53674 0
M  V30 1467 C 137.948 -0.570881 -1.50325 0
M  V30 1468 O 139.138 -0.838126 -1.52712 0
M  V30 1469 C 136.27 -1.73788 -2.93276 0
M  V30 1470 H 137.463 -2.66306 -1.37917 0
M  V30 1471 H 135.016 -1.40477 -0.685271 0
M  V30 1472 H 135.751 -0.792717 -3.14462 0
M  V30 1473 H 135.536 -2.55864 -2.97113 0
M  V30 1474 H 137.026 -1.90591 -3.71571 0
M  V30 1475 N 137.463 0.71206 -1.40597 0
M  V30 1476 C 138.709 1.47416 -1.39271 0
M  V30 1477 C 139.042 1.942 0.00388791 0
M  V30 1478 O 138.317 1.68403 0.973179 0
M  V30 1479 C 138.6 2.69774 -2.38525 0
M  V30 1480 C 138.453 2.28861 -3.87224 0
M  V30 1481 C 139.772 3.71939 -2.35264 0
M  V30 1482 H 136.891 0.534713 -0.5072 0
M  V30 1483 H 139.533 0.812375 -1.71757 0
M  V30 1484 H 137.683 3.26238 -2.10953 0
M  V30 1485 H 139.355 1.77852 -4.25636 0
M  V30 1486 H 137.598 1.60824 -4.02887 0
M  V30 1487 H 138.269 3.16584 -4.52193 0
M  V30 1488 H 140.745 3.25113 -2.59694 0
M  V30 1489 H 139.621 4.55186 -3.06753 0
M  V30 1490 H 139.882 4.20484 -1.36549 0
M  V30 1491 N 138.941 1.26152 0.944643 0
M  V30 1492 C 139.871 1.09902 2.06019 0
M  V30 1493 C 140.852 0.00519538 1.70099 0
M  V30 1494 O 142.037 0.176583 1.93396 0
M  V30 1495 C 139.167 0.727562 3.39594 0
M  V30 1496 C 138.121 1.77274 3.89561 0
M  V30 1497 C 137.447 1.25569 5.19747 0
M  V30 1498 C 138.747 3.17357 4.14827 0
M  V30 1499 H 140.441 2.03217 2.19871 0
M  V30 1500 H 137.987 0.978452 1.05652 0
M  V30 1501 H 139.94 0.600777 4.17095 0
M  V30 1502 H 138.664 -0.241287 3.25707 0
M  V30 1503 H 137.323 1.88814 3.14237 0
M  V30 1504 H 136.971 0.276783 5.02238 0
M  V30 1505 H 136.671 1.95433 5.54148 0
M  V30 1506 H 138.195 1.1415 5.99835 0
M  V30 1507 H 139.609 3.08914 4.82954 0
M  V30 1508 H 138.006 3.84781 4.60504 0
M  V30 1509 H 139.076 3.63673 3.20734 0
M  V30 1510 N 140.419 -1.14872 1.07899 0
M  V30 1511 C 141.667 -1.85422 0.803941 0
M  V30 1512 C 141.988 -1.83051 -0.67211 0
M  V30 1513 O 141.258 -1.27532 -1.48703 0
M  V30 1514 H 139.838 -0.686537 0.294408 0
M  V30 1515 H 142.5 -1.39226 1.3639 0
M  V30 1516 H 141.596 -2.90399 1.14346 0
M  V30 1517 N 141.898 -0.863906 -1.31812 0
M  V30 1518 C 143.309 -0.52522 -1.7916 0
M  V30 1519 C 143.66 0.957518 -1.71248 0
M  V30 1520 O 142.785 1.74734 -1.27659 0
M  V30 1521 C 143.38 -0.9466 -3.25307 0
M  V30 1522 C 141.939 -0.659668 -3.70574 0
M  V30 1523 C 141.086 -1.14126 -2.52726 0
M  V30 1524 H 144.037 -1.05022 -1.1898 0
M  V30 1525 H 144.058 -0.266766 -3.79564 0
M  V30 1526 H 143.57 -2.02579 -3.31034 0
M  V30 1527 H 141.671 0.408416 -3.70355 0
M  V30 1528 H 141.784 -1.23245 -4.62977 0
M  V30 1529 H 140.148 -0.561216 -2.4844 0
M  V30 1530 H 140.931 -2.22775 -2.61201 0
M  V30 1531 N 143.376 1.44774 -0.622745 0
M  V30 1532 C 144.601 2.06999 -0.128968 0
M  V30 1533 C 145.026 1.4617 1.1839 0
M  V30 1534 O 144.384 0.560007 1.72434 0
M  V30 1535 C 144.432 3.60595 -0.0188351 0
M  V30 1536 O 143.536 3.99398 1.02739 0
M  V30 1537 H 142.877 0.659047 -0.0809544 0
M  V30 1538 H 145.407 1.85784 -0.85705 0
M  V30 1539 H 145.417 4.07627 0.174476 0
M  V30 1540 H 144.092 4.04252 -0.977384 0
M  V30 1541 H 142.669 3.64011 0.809326 0
M  V30 1542 N 144.854 0.36279 1.53368 0
M  V30 1543 C 146.079 -0.231226 2.06107 0
M  V30 1544 C 146.504 -1.419 1.23474 0
M  V30 1545 O 145.862 -1.79524 0.253128 0
M  V30 1546 C 145.91 -0.605523 3.5548 0
M  V30 1547 O 145.014 -1.70312 3.7559 0
M  V30 1548 H 144.355 -0.034327 0.663112 0
M  V30 1549 H 146.885 0.522584 1.97814 0
M  V30 1550 H 146.895 -0.877314 3.98456 0
M  V30 1551 H 145.57 0.263004 4.15068 0
M  V30 1552 H 144.147 -1.4271 3.44512 0
M  V30 1553 N 146.332 -1.57332 0.0918853 0
M  V30 1554 C 147.557 -1.98995 -0.584442 0
M  V30 1555 C 147.982 -0.970528 -1.61128 0
M  V30 1556 O 147.34 0.0613904 -1.81196 0
M  V30 1557 C 147.388 -3.39636 -1.21161 0
M  V30 1558 O 146.492 -3.40447 -2.32744 0
M  V30 1559 H 145.833 -0.647165 -0.148572 0
M  V30 1560 H 148.363 -2.03873 0.172347 0
M  V30 1561 H 148.373 -3.7726 -1.55367 0
M  V30 1562 H 147.048 -4.13356 -0.459313 0
M  V30 1563 H 145.625 -3.14614 -2.0018 0
M  V30 1564 N 147.81 0.181792 -1.56548 0
M  V30 1565 C 149.221 0.745244 -1.71181 0
M  V30 1566 C 149.572 1.83262 -0.70068 0
M  V30 1567 O 148.697 2.15946 0.140154 0
M  V30 1568 C 149.292 1.35859 -3.10367 0
M  V30 1569 C 147.851 1.86898 -3.2672 0
M  V30 1570 C 146.998 0.743942 -2.67134 0
M  V30 1571 H 149.949 -0.0434661 -1.5864 0
M  V30 1572 H 149.97 2.22817 -3.08436 0
M  V30 1573 H 149.482 0.566948 -3.83937 0
M  V30 1574 H 147.583 2.68738 -2.5809 0
M  V30 1575 H 147.696 2.02162 -4.34359 0
M  V30 1576 H 146.06 1.16169 -2.26665 0
M  V30 1577 H 146.843 -0.035676 -3.43281 0
M  V30 1578 N 149.288 1.51039 0.449983 0
M  V30 1579 C 150.251 1.70863 1.5277 0
M  V30 1580 C 151.251 0.578846 1.5002 0
M  V30 1581 O 152.441 0.846213 1.52266 0
M  V30 1582 C 149.573 1.75341 2.9235 0
M  V30 1583 H 150.766 2.67034 1.36502 0
M  V30 1584 H 148.319 1.40838 0.677812 0
M  V30 1585 H 149.054 0.809383 3.14037 0
M  V30 1586 H 148.839 2.57436 2.95752 0
M  V30 1587 H 150.329 1.92559 3.70555 0
M  V30 1588 N 150.766 -0.704594 1.40972 0
M  V30 1589 C 151.991 -1.49858 1.43378 0
M  V30 1590 C 152.416 -1.88061 0.038184 0
M  V30 1591 O 151.774 -1.5402 -0.956425 0
M  V30 1592 C 151.822 -2.74333 2.34038 0
M  V30 1593 O 150.926 -3.7147 1.7912 0
M  V30 1594 H 150.267 -0.45139 0.486974 0
M  V30 1595 H 152.797 -0.866832 1.8533 0
M  V30 1596 H 152.807 -3.22741 2.49604 0
M  V30 1597 H 151.482 -2.45863 3.35446 0
M  V30 1598 H 150.059 -3.30363 1.72958 0
M  V30 1599 N 152.244 -1.26651 -0.937939 0
M  V30 1600 C 153.469 -1.15279 -1.72411 0
M  V30 1601 C 153.894 0.287866 -1.85884 0
M  V30 1602 O 153.252 1.20855 -1.35143 0
M  V30 1603 C 153.3 -1.83028 -3.10698 0
M  V30 1604 O 152.404 -1.12128 -3.96864 0
M  V30 1605 H 151.745 -0.401504 -0.528858 0
M  V30 1606 H 154.275 -1.67531 -1.1745 0
M  V30 1607 H 154.285 -1.89981 -3.6107 0
M  V30 1608 H 152.96 -2.87833 -3.00208 0
M  V30 1609 H 151.537 -1.13173 -3.55312 0
M  V30 1610 N 153.722 1.14298 -1.08507 0
M  V30 1611 C 154.947 1.8976 -0.837001 0
M  V30 1612 C 155.372 1.78097 0.605228 0
M  V30 1613 O 154.73 1.12188 1.4242 0
M  V30 1614 C 154.778 3.37685 -1.26495 0
M  V30 1615 O 153.882 4.10281 -0.417514 0
M  V30 1616 H 153.223 0.590365 -0.303917 0
M  V30 1617 H 155.753 1.44672 -1.44676 0
M  V30 1618 H 155.763 3.88501 -1.24625 0
M  V30 1619 H 154.438 3.45492 -2.31534 0
M  V30 1620 H 153.015 3.69536 -0.499722 0
M  V30 1621 N 155.201 0.870884 1.31352 0
M  V30 1622 C 156.45 0.478408 1.95944 0
M  V30 1623 C 156.763 -0.974493 1.69597 0
M  V30 1624 O 157.969 -1.47316 2.28058 0
M  V30 1625 C 156.425 0.804609 3.50791 0
M  V30 1626 C 156.033 2.27433 3.85977 0
M  V30 1627 C 157.777 0.480648 4.2177 0
M  V30 1628 C 155.684 2.5429 5.33939 0
M  V30 1629 H 154.614 0.175175 0.733369 0
M  V30 1630 H 157.265 1.06391 1.4951 0
M  V30 1631 H 155.647 0.148347 3.95722 0
M  V30 1632 H 156.821 2.97373 3.52002 0
M  V30 1633 H 155.136 2.56442 3.28065 0
M  V30 1634 H 157.733 0.658519 5.30629 0
M  V30 1635 H 158.076 -0.578979 4.12254 0
M  V30 1636 H 158.609 1.09349 3.82476 0
M  V30 1637 H 155.348 3.58939 5.48491 0
M  V30 1638 H 154.868 1.88945 5.69263 0
M  V30 1639 H 156.547 2.39066 6.01212 0
M  V30 1640 N 156.679 -1.44442 0.630414 0
M  V30 1641 C 157.928 -2.01267 0.132073 0
M  V30 1642 C 158.241 -1.50172 -1.25331 0
M  V30 1643 O 159.447 -1.9912 -1.84562 0
M  V30 1644 C 157.903 -3.59422 0.185362 0
M  V30 1645 C 157.511 -4.19514 1.57201 0
M  V30 1646 C 159.255 -4.23724 -0.256553 0
M  V30 1647 C 157.162 -5.69891 1.58045 0
M  V30 1648 H 156.092 -0.752619 0.0456092 0
M  V30 1649 H 158.743 -1.65666 0.789106 0
M  V30 1650 H 157.125 -3.92318 -0.538759 0
M  V30 1651 H 158.299 -3.98156 2.31966 0
M  V30 1652 H 156.614 -3.67496 1.95795 0
M  V30 1653 H 159.211 -5.34019 -0.269767 0
M  V30 1654 H 159.554 -3.96013 -1.28372 0
M  V30 1655 H 160.087 -3.95629 0.41505 0
M  V30 1656 H 156.826 -6.02336 2.58597 0
M  V30 1657 H 156.346 -5.93373 0.875725 0
M  V30 1658 H 158.025 -6.33515 1.31408 0
M  V30 1659 N 158.157 -0.370918 -1.53173 0
M  V30 1660 C 159.382 0.220293 -2.06227 0
M  V30 1661 C 159.807 1.41243 -1.24225 0
M  V30 1662 O 159.165 1.79387 -0.262645 0
M  V30 1663 C 159.213 0.586663 -3.55796 0
M  V30 1664 O 158.317 1.68317 -3.76488 0
M  V30 1665 H 157.658 0.0308099 -0.663285 0
M  V30 1666 H 160.188 -0.533068 -1.97534 0
M  V30 1667 H 160.198 0.85617 -3.98916 0
M  V30 1668 H 158.873 -0.285013 -4.14922 0
M  V30 1669 H 157.45 1.40881 -3.45264 0
M  V30 1670 N 159.635 1.57281 -0.100228 0
M  V30 1671 C 160.583 2.15542 0.874328 0
M  V30 1672 C 161.577 1.09962 1.28859 0
M  V30 1673 O 162.783 1.28298 1.26252 0
M  V30 1674 H 159.158 0.689567 0.300003 0
M  V30 1675 H 161.129 2.96241 0.35829 0
M  V30 1676 C 159.878 2.75454 2.1218 0
M  V30 1677 H 159.201 3.56384 1.81193 0
M  V30 1678 H 160.641 3.19781 2.78417 0
M  V30 1679 C 159.1 1.71602 2.89921 0
M  V30 1680 O 159.63 1.15804 3.84646 0
M  V30 1681 N 157.836 1.41975 2.53558 0
M  V30 1682 H 157.383 1.87539 1.76598 0
M  V30 1683 H 157.341 0.727274 3.05873 0
M  V30 1684 N 161.113 -0.173488 1.56642 0
M  V30 1685 C 162.362 -0.888758 1.81063 0
M  V30 1686 C 162.675 -1.83506 0.67712 0
M  V30 1687 O 163.881 -2.59254 0.806206 0
M  V30 1688 C 162.337 -1.63091 3.20826 0
M  V30 1689 C 161.945 -0.728357 4.4204 0
M  V30 1690 C 163.689 -2.33454 3.54541 0
M  V30 1691 C 161.596 -1.47062 5.72823 0
M  V30 1692 H 160.526 -0.335618 0.675186 0
M  V30 1693 H 163.177 -0.141712 1.82952 0
M  V30 1694 H 161.559 -2.42263 3.13248 0
M  V30 1695 H 162.733 0.0262449 4.60793 0
M  V30 1696 H 161.048 -0.134492 4.16183 0
M  V30 1697 H 163.645 -2.89578 4.49498 0
M  V30 1698 H 163.988 -3.08687 2.79317 0
M  V30 1699 H 164.521 -1.61227 3.63663 0
M  V30 1700 H 161.26 -0.760658 6.51072 0
M  V30 1701 H 160.78 -2.1986 5.58052 0
M  V30 1702 H 162.459 -2.01868 6.14702 0
M  V30 1703 N 162.591 -1.51276 -0.441967 0
M  V30 1704 C 163.831 -1.65372 -1.20132 0
M  V30 1705 C 164.195 -0.359871 -1.88597 0
M  V30 1706 O 165.396 -0.376551 -2.66149 0
M  V30 1707 C 163.667 -2.8207 -2.1948 0
M  V30 1708 S 165.226 -3.16467 -3.03964 0
M  V30 1709 H 162.044 -0.582669 -0.407453 0
M  V30 1710 H 164.646 -1.89166 -0.493609 0
M  V30 1711 H 163.35 -3.74523 -1.67812 0
M  V30 1712 H 162.881 -2.6045 -2.94838 0
M  V30 1713 H 164.896 -2.62543 -4.21053 0
M  V30 1714 N 164.069 0.697108 -1.41344 0
M  V30 1715 C 165.317 1.45426 -1.40341 0
M  V30 1716 C 165.638 1.94996 -0.0128787 0
M  V30 1717 O 164.908 1.71599 0.945027 0
M  V30 1718 H 163.488 0.539594 -0.516573 0
M  V30 1719 H 166.15 0.825201 -1.76569 0
M  V30 1720 H 165.246 2.31817 -2.08967 0
M  V30 1721 N 165.547 1.27147 0.931209 0
M  V30 1722 C 166.457 1.11372 2.06478 0
M  V30 1723 C 167.473 0.044645 1.73943 0
M  V30 1724 O 168.649 0.250417 1.99837 0
M  V30 1725 C 165.714 0.758838 3.38294 0
M  V30 1726 C 164.775 1.90841 3.84549 0
M  V30 1727 C 164.008 1.57036 5.10074 0
M  V30 1728 O 164.231 0.476645 5.68405 0
M  V30 1729 O 163.165 2.40839 5.51616 0
M  V30 1730 H 166.991 2.06493 2.22698 0
M  V30 1731 H 164.576 1.06301 1.04978 0
M  V30 1732 H 166.458 0.574098 4.17471 0
M  V30 1733 H 165.133 -0.162879 3.2329 0
M  V30 1734 H 164.04 2.14819 3.06274 0
M  V30 1735 H 165.373 2.81021 4.04089 0
M  V30 1736 N 167.025 -1.13721 1.09112 0
M  V30 1737 C 167.972 -2.19031 0.727591 0
M  V30 1738 C 168.942 -1.63555 -0.289656 0
M  V30 1739 O 170.127 -1.90023 -0.172026 0
M  V30 1740 C 167.267 -3.4477 0.15082 0
M  V30 1741 C 166.38 -4.14365 1.22172 0
M  V30 1742 C 165.515 -5.27709 0.608042 0
M  V30 1743 C 164.554 -5.89147 1.66047 0
M  V30 1744 N 163.691 -6.93929 1.06806 0
M  V30 1745 H 168.531 -2.49475 1.62991 0
M  V30 1746 H 166.068 -1.22499 0.81439 0
M  V30 1747 H 168.026 -4.16714 -0.201358 0
M  V30 1748 H 166.656 -3.14787 -0.714783 0
M  V30 1749 H 165.708 -3.40737 1.69122 0
M  V30 1750 H 167.02 -4.56114 2.01895 0
M  V30 1751 H 166.174 -6.06355 0.204523 0
M  V30 1752 H 164.913 -4.872 -0.220769 0
M  V30 1753 H 163.918 -5.09198 2.07357 0
M  V30 1754 H 165.143 -6.31729 2.49189 0
M  V30 1755 H 163.089 -6.55483 0.260476 0
M  V30 1756 H 163.006 -7.34202 1.8023 0
M  V30 1757 H 164.274 -7.76434 0.690644 0
M  V30 1758 N 168.503 -0.877838 -1.30888 0
M  V30 1759 C 169.413 -0.343096 -2.32078 0
M  V30 1760 C 170.429 0.551022 -1.65045 0
M  V30 1761 O 171.605 0.445854 -1.96403 0
M  V30 1762 C 168.67 0.439905 -3.43898 0
M  V30 1763 C 167.731 -0.483111 -4.26573 0
M  V30 1764 C 166.964 0.262616 -5.33053 0
M  V30 1765 O 167.187 1.48967 -5.50604 0
M  V30 1766 O 166.121 -0.383593 -6.00676 0
M  V30 1767 H 169.947 -1.18203 -2.79753 0
M  V30 1768 H 167.532 -0.64145 -1.34929 0
M  V30 1769 H 169.414 0.883504 -4.12034 0
M  V30 1770 H 168.089 1.25526 -2.98371 0
M  V30 1771 H 166.996 -0.975374 -3.61161 0
M  V30 1772 H 168.329 -1.26427 -4.75686 0
M  V30 1773 N 169.982 1.44106 -0.638065 0
M  V30 1774 C 171.228 2.02277 -0.145546 0
M  V30 1775 C 171.561 1.50125 1.23191 0
M  V30 1776 O 170.836 0.688133 1.8192 0
M  V30 1777 C 171.119 3.59829 -0.139791 0
M  V30 1778 C 170.972 4.22247 -1.55008 0
M  V30 1779 C 172.291 4.36873 0.531966 0
M  V30 1780 H 169.41 0.734992 -0.0543632 0
M  V30 1781 H 172.052 1.71592 -0.815863 0
M  V30 1782 H 170.202 3.86102 0.431007 0
M  V30 1783 H 171.874 4.07057 -2.1703 0
M  V30 1784 H 170.117 3.79476 -2.10191 0
M  V30 1785 H 170.788 5.31284 -1.49804 0
M  V30 1786 H 173.264 4.16074 0.0464781 0
M  V30 1787 H 172.14 5.4657 0.505206 0
M  V30 1788 H 172.401 4.11995 1.60352 0
M  V30 1789 N 171.46 0.379036 1.52974 0
M  V30 1790 C 172.871 -0.0972525 1.86447 0
M  V30 1791 C 173.222 -1.47027 1.29914 0
M  V30 1792 O 172.347 -2.07135 0.626433 0
M  V30 1793 C 172.942 -0.183248 3.38304 0
M  V30 1794 C 171.501 -0.603812 3.71525 0
M  V30 1795 C 170.648 0.240632 2.76254 0
M  V30 1796 H 173.599 0.597316 1.4703 0
M  V30 1797 H 173.62 -1.00432 3.67006 0
M  V30 1798 H 173.132 0.816191 3.79421 0
M  V30 1799 H 171.233 -1.61099 3.35973 0
M  V30 1800 H 171.346 -0.369086 4.77676 0
M  V30 1801 H 169.71 -0.292548 2.53014 0
M  V30 1802 H 170.493 1.23786 3.20206 0
M  V30 1803 N 172.938 -1.57226 0.108567 0
M  V30 1804 C 173.888 -2.11305 -0.856396 0
M  V30 1805 C 174.872 -1.03129 -1.23504 0
M  V30 1806 O 176.064 -1.29381 -1.20787 0
M  V30 1807 C 173.193 -2.70771 -2.11041 0
M  V30 1808 C 172.279 -3.86011 -1.7566 0
M  V30 1809 N 172.67 -4.93492 -1.10902 0
M  V30 1810 C 170.968 -3.95999 -2.05185 0
M  V30 1811 C 171.669 -5.73984 -0.944308 0
M  V30 1812 N 170.645 -5.2346 -1.46596 0
M  V30 1813 H 174.447 -2.91784 -0.352002 0
M  V30 1814 H 171.961 -1.62126 -0.0942324 0
M  V30 1815 H 173.958 -3.07851 -2.81128 0
M  V30 1816 H 172.618 -1.91751 -2.62034 0
M  V30 1817 H 173.629 -5.1208 -0.774235 0
M  V30 1818 H 170.306 -3.28007 -2.58298 0
M  V30 1819 H 171.696 -6.70479 -0.436813 0
M  V30 1820 N 174.416 0.165178 -1.56732 0
M  V30 1821 C 175.663 0.880807 -1.8234 0
M  V30 1822 C 175.991 1.81977 -0.686621 0
M  V30 1823 O 175.246 1.92971 0.325697 0
M  V30 1824 C 175.545 1.70405 -3.1416 0
M  V30 1825 C 175.211 0.913475 -4.4155 0
M  V30 1826 C 173.873 0.695303 -4.7615 0
M  V30 1827 C 176.225 0.359349 -5.1996 0
M  V30 1828 C 173.553 -0.0879947 -5.86634 0
M  V30 1829 C 175.905 -0.410893 -6.31264 0
M  V30 1830 C 174.569 -0.639808 -6.64427 0
M  V30 1831 H 173.839 0.32231 -0.667231 0
M  V30 1832 H 176.486 0.145402 -1.90947 0
M  V30 1833 H 174.791 2.50903 -3.00923 0
M  V30 1834 H 176.488 2.26091 -3.31186 0
M  V30 1835 H 173.078 1.09357 -4.14414 0
M  V30 1836 H 177.262 0.515228 -4.93618 0
M  V30 1837 H 172.518 -0.27503 -6.10781 0
M  V30 1838 H 176.692 -0.847494 -6.91224 0
M  V30 1839 H 174.319 -1.24864 -7.49875 0
M  V30 1840 N 175.894 1.51508 0.433938 0
M  V30 1841 C 176.841 1.73068 1.52696 0
M  V30 1842 C 177.811 0.572441 1.55924 0
M  V30 1843 O 178.996 0.807253 1.72882 0
M  V30 1844 C 176.136 1.86474 2.90381 0
M  V30 1845 C 175.249 3.14037 2.96656 0
M  V30 1846 C 174.384 3.18019 4.25485 0
M  V30 1847 C 173.423 4.39882 4.2564 0
M  V30 1848 N 172.56 4.41394 5.45999 0
M  V30 1849 H 177.4 2.66366 1.33615 0
M  V30 1850 H 174.937 1.32008 0.649018 0
M  V30 1851 H 176.895 1.92229 3.70275 0
M  V30 1852 H 175.525 0.965809 3.08013 0
M  V30 1853 H 174.577 3.17575 2.09404 0
M  V30 1854 H 175.889 4.0394 2.92633 0
M  V30 1855 H 175.043 3.22708 5.13755 0
M  V30 1856 H 173.782 2.2601 4.3217 0
M  V30 1857 H 172.787 4.35366 3.35763 0
M  V30 1858 H 174.012 5.33159 4.20617 0
M  V30 1859 H 171.958 3.52258 5.53399 0
M  V30 1860 H 171.875 5.25111 5.4387 0
M  V30 1861 H 173.143 4.50281 6.36292 0
M  V30 1862 N 177.372 -0.689602 1.41712 0
M  V30 1863 C 178.618 -1.45181 1.41599 0
M  V30 1864 C 178.951 -1.94181 0.0270081 0
M  V30 1865 O 178.226 -1.6993 -0.946265 0
M  V30 1866 C 178.509 -2.65945 2.42787 0
M  V30 1867 C 178.362 -2.22672 3.90816 0
M  V30 1868 C 179.681 -3.68149 2.41151 0
M  V30 1869 H 176.8 -0.526576 0.515642 0
M  V30 1870 H 179.442 -0.784947 1.73028 0
M  V30 1871 H 177.592 -3.2284 2.16116 0
M  V30 1872 H 179.264 -1.71058 4.28412 0
M  V30 1873 H 177.507 -1.54394 4.05395 0
M  V30 1874 H 178.178 -3.0935 4.57172 0
M  V30 1875 H 180.654 -3.2094 2.64834 0
M  V30 1876 H 179.53 -4.50248 3.13955 0
M  V30 1877 H 179.791 -4.18259 1.43221 0
M  V30 1878 N 178.85 -1.27639 -0.924453 0
M  V30 1879 C 179.813 -1.10681 -2.00705 0
M  V30 1880 C 180.813 -0.0497823 -1.60723 0
M  V30 1881 O 182.003 -0.294654 -1.7169 0
M  V30 1882 C 179.135 -0.687164 -3.33902 0
M  V30 1883 H 180.328 -2.06817 -2.17179 0
M  V30 1884 H 177.881 -1.10473 -1.10569 0
M  V30 1885 H 178.616 0.275439 -3.23128 0
M  V30 1886 H 178.401 -1.45061 -3.6428 0
M  V30 1887 H 179.891 -0.590853 -4.13399 0
M  V30 1888 N 180.328 1.1314 -1.09713 0
M  V30 1889 C 181.739 1.66029 -0.853885 0
M  V30 1890 C 182.09 1.86241 0.617142 0
M  V30 1891 O 181.215 1.5834 1.47503 0
M  V30 1892 C 181.81 3.01599 -1.5435 0
M  V30 1893 C 180.369 3.51467 -1.34714 0
M  V30 1894 C 179.516 2.26648 -1.59769 0
M  V30 1895 H 182.467 0.970226 -1.25588 0
M  V30 1896 H 182.488 3.67709 -0.978267 0
M  V30 1897 H 182 2.86856 -2.6141 0
M  V30 1898 H 180.101 3.71408 -0.297838 0
M  V30 1899 H 180.214 4.314 -2.08401 0
M  V30 1900 H 178.578 2.33385 -1.01998 0
M  V30 1901 H 179.361 2.14467 -2.68065 0
M  V30 1902 N 181.806 0.884767 1.30421 0
M  V30 1903 C 182.716 0.355398 2.31892 0
M  V30 1904 C 183.732 -0.542261 1.65335 0
M  V30 1905 O 184.908 -0.435432 1.96637 0
M  V30 1906 C 181.973 -0.421661 3.44126 0
M  V30 1907 C 181.034 0.505727 4.26311 0
M  V30 1908 C 180.267 -0.234343 5.33185 0
M  V30 1909 O 180.49 -1.46045 5.51386 0
M  V30 1910 O 179.424 0.415443 6.00465 0
M  V30 1911 H 183.25 1.19685 2.79122 0
M  V30 1912 H 180.835 0.648596 1.34587 0
M  V30 1913 H 182.717 -0.861641 4.12497 0
M  V30 1914 H 181.392 -1.23942 2.99032 0
M  V30 1915 H 180.299 0.994513 3.60639 0
M  V30 1916 H 181.632 1.28948 4.75009 0
M  V30 1917 N 183.284 -1.43765 0.645699 0
M  V30 1918 C 184.194 -2.34544 -0.0512957 0
M  V30 1919 C 185.21 -1.53455 -0.82022 0
M  V30 1920 O 186.386 -1.86133 -0.769176 0
M  V30 1921 C 183.451 -3.31636 -1.01087 0
M  V30 1922 C 182.512 -4.2863 -0.239712 0
M  V30 1923 C 181.745 -5.21084 -1.15358 0
M  V30 1924 O 181.968 -5.1779 -2.39269 0
M  V30 1925 O 180.902 -5.98593 -0.630038 0
M  V30 1926 H 184.728 -2.95624 0.695718 0
M  V30 1927 H 182.313 -1.43781 0.405882 0
M  V30 1928 H 184.195 -3.9136 -1.56254 0
M  V30 1929 H 182.87 -2.73069 -1.73824 0
M  V30 1930 H 181.777 -3.72408 0.355356 0
M  V30 1931 H 183.11 -4.90157 0.447936 0
M  V30 1932 N 184.763 -0.387143 -1.52771 0
M  V30 1933 C 186.01 0.195735 -2.01552 0
M  V30 1934 C 186.338 1.46995 -1.27369 0
M  V30 1935 O 185.593 1.92325 -0.361879 0
M  V30 1936 C 185.892 0.512209 -3.53711 0
M  V30 1937 C 185.558 -0.670202 -4.45891 0
M  V30 1938 C 184.22 -0.994586 -4.70809 0
M  V30 1939 C 186.572 -1.46134 -5.00294 0
M  V30 1940 C 183.9 -2.11169 -5.4738 0
M  V30 1941 C 186.252 -2.56903 -5.78086 0
M  V30 1942 C 184.916 -2.89852 -6.01284 0
M  V30 1943 H 184.186 0.0716246 -0.73753 0
M  V30 1944 H 186.833 -0.524046 -1.8419 0
M  V30 1945 H 185.138 1.31329 -3.69134 0
M  V30 1946 H 186.835 0.975804 -3.88946 0
M  V30 1947 H 183.425 -0.407366 -4.2666 0
M  V30 1948 H 187.609 -1.22397 -4.80971 0
M  V30 1949 H 182.865 -2.3707 -5.63567 0
M  V30 1950 H 187.039 -3.18608 -6.19243 0
M  V30 1951 H 184.666 -3.76533 -6.60399 0
M  V30 1952 N 186.241 1.57166 -0.116904 0
M  V30 1953 C 187.487 1.95412 0.542405 0
M  V30 1954 C 187.82 1.00019 1.66463 0
M  V30 1955 O 187.095 0.0370346 1.94465 0
M  V30 1956 C 187.378 3.43615 1.07708 0
M  V30 1957 C 187.231 4.49781 -0.0415868 0
M  V30 1958 C 188.55 3.93616 1.96861 0
M  V30 1959 H 185.669 0.710543 0.195696 0
M  V30 1960 H 188.311 1.89027 -0.192038 0
M  V30 1961 H 186.461 3.49187 1.70296 0
M  V30 1962 H 188.133 4.56308 -0.676793 0
M  V30 1963 H 186.376 4.28033 -0.705019 0
M  V30 1964 H 187.047 5.50733 0.373717 0
M  V30 1965 H 189.523 3.90335 1.44146 0
M  V30 1966 H 188.399 4.97838 2.3119 0
M  V30 1967 H 188.66 3.34188 2.89432 0
M  V30 1968 N 187.719 -0.156864 1.56817 0
M  V30 1969 C 188.666 -1.19394 1.97519 0
M  V30 1970 C 189.636 -1.4322 0.841265 0
M  V30 1971 O 190.821 -1.55719 1.10255 0
M  V30 1972 C 187.961 -2.52483 2.35258 0
M  V30 1973 C 187.074 -2.35914 3.61896 0
M  V30 1974 C 186.209 -3.61969 3.88782 0
M  V30 1975 C 185.248 -3.40395 5.08722 0
M  V30 1976 N 184.385 -4.58556 5.31668 0
M  V30 1977 H 189.225 -0.839845 2.85921 0
M  V30 1978 H 186.762 -0.403264 1.41464 0
M  V30 1979 H 188.72 -3.30071 2.55165 0
M  V30 1980 H 187.35 -2.85859 1.49949 0
M  V30 1981 H 186.402 -1.49429 3.49821 0
M  V30 1982 H 187.714 -2.15926 4.49641 0
M  V30 1983 H 186.868 -4.47989 4.09135 0
M  V30 1984 H 185.607 -3.84951 2.9944 0
M  V30 1985 H 184.612 -2.52763 4.88253 0
M  V30 1986 H 185.837 -3.18822 5.99608 0
M  V30 1987 H 183.783 -4.81729 4.45279 0
M  V30 1988 H 183.7 -4.41535 6.13664 0
M  V30 1989 H 184.968 -5.45817 5.5651 0
M  V30 1990 N 189.197 -1.51736 -0.425897 0
M  V30 1991 C 190.444 -1.6497 -1.17436 0
M  V30 1992 C 190.772 -0.371445 -1.9092 0
M  V30 1993 O 190.027 0.644963 -1.84767 0
M  V30 1994 C 190.326 -2.81103 -2.20717 0
M  V30 1995 C 189.992 -4.19954 -1.64162 0
M  V30 1996 C 188.654 -4.57725 -1.48462 0
M  V30 1997 C 191.006 -5.06552 -1.22696 0
M  V30 1998 C 188.334 -5.79789 -0.897873 0
M  V30 1999 C 190.686 -6.29205 -0.654464 0
M  V30 2000 C 189.35 -6.6574 -0.484456 0
M  V30 2001 H 188.62 -0.603668 -0.429727 0
M  V30 2002 H 191.267 -1.85798 -0.463829 0
M  V30 2003 H 189.572 -2.54542 -2.97852 0
M  V30 2004 H 191.269 -2.8854 -2.78471 0
M  V30 2005 H 187.859 -3.90181 -1.77361 0
M  V30 2006 H 192.043 -4.77968 -1.33642 0
M  V30 2007 H 187.299 -6.06733 -0.75402 0
M  V30 2008 H 191.473 -6.95643 -0.324694 0
M  V30 2009 H 189.1 -7.60195 -0.0276833 0
M  V30 2010 N 190.675 0.682077 -1.42076 0
M  V30 2011 C 191.607 1.80755 -1.40926 0
M  V30 2012 C 192.62 1.59833 -0.309398 0
M  V30 2013 O 193.809 1.69087 -0.572014 0
M  V30 2014 C 190.909 3.17744 -1.17865 0
M  V30 2015 C 190.082 3.65578 -2.40149 0
M  V30 2016 C 189.141 4.81277 -2.12742 0
M  V30 2017 O 188.167 4.92197 -2.85887 0
M  V30 2018 N 189.369 5.69474 -1.12602 0
M  V30 2019 H 192.134 1.82229 -2.37935 0
M  V30 2020 H 189.695 0.864903 -1.36861 0
M  V30 2021 H 191.687 3.9279 -0.9746 0
M  V30 2022 H 190.257 3.11214 -0.294068 0
M  V30 2023 H 189.477 2.81291 -2.76169 0
M  V30 2024 H 190.765 3.94278 -3.21593 0
M  V30 2025 H 190.163 5.63297 -0.520899 0
M  V30 2026 H 188.72 6.44363 -0.981842 0
M  V30 2027 N 192.153 1.28127 0.917671 0
M  V30 2028 C 193.4 1.15052 1.66641 0
M  V30 2029 C 193.728 -0.301677 1.92146 0
M  V30 2030 O 192.983 -1.23622 1.51711 0
M  V30 2031 C 193.282 1.89018 3.03327 0
M  V30 2032 C 192.948 3.38832 2.97496 0
M  V30 2033 C 191.61 3.79693 2.95613 0
M  V30 2034 C 193.962 4.34378 2.88036 0
M  V30 2035 C 191.29 5.14447 2.82066 0
M  V30 2036 C 193.642 5.69201 2.7603 0
M  V30 2037 C 192.306 6.09343 2.72502 0
M  V30 2038 H 191.576 0.421006 0.609783 0
M  V30 2039 H 194.223 1.58855 1.06945 0
M  V30 2040 H 192.528 1.37752 3.66785 0
M  V30 2041 H 194.225 1.76321 3.60156 0
M  V30 2042 H 190.815 3.06342 2.99754 0
M  V30 2043 H 194.999 4.03775 2.88581 0
M  V30 2044 H 190.255 5.44681 2.77728 0
M  V30 2045 H 194.429 6.42901 2.67678 0
M  V30 2046 H 192.056 7.13712 2.61762 0
M  V30 2047 N 193.631 -1.12557 1.10312 0
M  V30 2048 C 194.563 -2.17971 0.708625 0
M  V30 2049 C 195.576 -1.60806 -0.254027 0
M  V30 2050 O 196.765 -1.78458 -0.0386891 0
M  V30 2051 C 193.865 -3.38891 0.0248198 0
M  V30 2052 C 193.038 -4.25548 1.01132 0
M  V30 2053 C 192.097 -5.24972 0.35924 0
M  V30 2054 O 191.123 -5.60174 1.00965 0
M  V30 2055 N 192.325 -5.73747 -0.882847 0
M  V30 2056 H 195.09 -2.52427 1.61557 0
M  V30 2057 H 192.651 -1.27967 0.991771 0
M  V30 2058 H 194.643 -4.02485 -0.422852 0
M  V30 2059 H 193.213 -3.02596 -0.784514 0
M  V30 2060 H 192.433 -3.58589 1.6373 0
M  V30 2061 H 193.721 -4.80294 1.67914 0
M  V30 2062 H 193.119 -5.4731 -1.43065 0
M  V30 2063 H 191.676 -6.39234 -1.27369 0
M  V30 2064 N 195.109 -0.891671 -1.2995 0
M  V30 2065 C 196.525 -0.58662 -1.48428 0
M  V30 2066 C 196.725 0.873951 -1.81561 0
M  V30 2067 O 195.781 1.65471 -1.90724 0
M  V30 2068 C 197.094 -1.50553 -2.60296 0
M  V30 2069 C 198.642 -1.50988 -2.74175 0
M  V30 2070 C 199.117 -2.41488 -3.89163 0
M  V30 2071 N 200.608 -2.39489 -3.96483 0
M  V30 2072 C 201.343 -3.06223 -4.84784 0
M  V30 2073 N 200.839 -3.82206 -5.77833 0
M  V30 2074 N 202.632 -2.95421 -4.78208 0
M  V30 2075 H 194.783 -1.83644 -1.06718 0
M  V30 2076 H 197.046 -0.786455 -0.529332 0
M  V30 2077 H 196.752 -2.54581 -2.42654 0
M  V30 2078 H 196.626 -1.22008 -3.56923 0
M  V30 2079 H 199.013 -0.47708 -2.91218 0
M  V30 2080 H 199.094 -1.83567 -1.78148 0
M  V30 2081 H 198.738 -3.44857 -3.72876 0
M  V30 2082 H 198.668 -2.06222 -4.84541 0
M  V30 2083 H 201.159 -1.84278 -3.29924 0
M  V30 2084 H 201.472 -4.302 -6.41988 0
M  V30 2085 H 199.817 -3.86313 -5.77743 0
M  V30 2086 H 203.008 -2.35581 -4.04499 0
M  V30 2087 H 203.181 -3.47704 -5.46814 0
M  V30 2088 N 196.587 1.43421 -0.653314 0
M  V30 2089 C 197.834 2.01812 -0.166745 0
M  V30 2090 C 198.162 1.51535 1.21931 0
M  V30 2091 O 197.417 0.698975 1.82792 0
M  V30 2092 C 197.716 3.57176 -0.126623 0
M  V30 2093 C 197.382 4.26798 -1.45444 0
M  V30 2094 C 196.044 4.45534 -1.81805 0
M  V30 2095 C 198.396 4.66225 -2.32989 0
M  V30 2096 C 195.724 5.00961 -3.05377 0
M  V30 2097 C 198.076 5.23021 -3.55853 0
M  V30 2098 C 196.74 5.39973 -3.9241 0
M  V30 2099 H 196.01 0.738484 -0.0610162 0
M  V30 2100 H 198.657 1.71896 -0.84404 0
M  V30 2101 H 196.962 3.86634 0.634123 0
M  V30 2102 H 198.659 4.00112 0.266723 0
M  V30 2103 H 195.249 4.12561 -1.16153 0
M  V30 2104 H 199.433 4.51443 -2.06187 0
M  V30 2105 H 194.689 5.12271 -3.3375 0
M  V30 2106 H 198.863 5.52518 -4.23907 0
M  V30 2107 H 196.49 5.82687 -4.88242 0
M  V30 2108 N 198.065 0.39524 1.52563 0
M  V30 2109 C 199.293 -0.184943 2.06072 0
M  V30 2110 C 199.708 -1.40021 1.26647 0
M  V30 2111 O 199.065 -1.79767 0.314672 0
M  V30 2112 C 199.116 -0.549179 3.57304 0
M  V30 2113 O 198.837 0.617813 4.33722 0
M  V30 2114 C 200.338 -1.18459 4.2718 0
M  V30 2115 H 197.558 -0.0265025 0.670476 0
M  V30 2116 H 200.102 0.562184 1.96621 0
M  V30 2117 H 198.257 -1.2462 3.66809 0
M  V30 2118 H 198.671 0.317091 5.23541 0
M  V30 2119 H 200.145 -1.38976 5.34219 0
M  V30 2120 H 200.622 -2.15368 3.82771 0
M  V30 2121 H 201.228 -0.528163 4.22008 0
M  V30 2122 N 199.544 -1.57102 0.125237 0
M  V30 2123 C 200.772 -1.99761 -0.538797 0
M  V30 2124 C 201.187 -1.00503 -1.59827 0
M  V30 2125 O 200.544 0.00119474 -1.825 0
M  V30 2126 C 200.595 -3.42408 -1.15927 0
M  V30 2127 O 200.316 -4.37869 -0.142143 0
M  V30 2128 C 201.817 -4.00232 -1.90602 0
M  V30 2129 H 199.037 -0.655772 -0.14214 0
M  V30 2130 H 201.581 -2.03383 0.213413 0
M  V30 2131 H 199.736 -3.39706 -1.86223 0
M  V30 2132 H 200.15 -5.21128 -0.593775 0
M  V30 2133 H 201.624 -5.02105 -2.29335 0
M  V30 2134 H 202.101 -3.39721 -2.78363 0
M  V30 2135 H 202.707 -4.06499 -1.25055 0
M  V30 2136 N 201.022 0.148545 -1.56898 0
M  V30 2137 C 201.952 1.18524 -2.01182 0
M  V30 2138 C 202.933 1.4489 -0.891123 0
M  V30 2139 O 204.118 1.55836 -1.15882 0
M  V30 2140 C 201.248 2.51879 -2.39112 0
M  V30 2141 C 200.202 2.40038 -3.54353 0
M  V30 2142 C 199.528 3.78089 -3.78091 0
M  V30 2143 C 200.828 1.88577 -4.87069 0
M  V30 2144 H 202.522 0.817029 -2.88036 0
M  V30 2145 H 200.068 0.391575 -1.38574 0
M  V30 2146 H 202.021 3.24627 -2.68692 0
M  V30 2147 H 200.745 2.90532 -1.49193 0
M  V30 2148 H 199.404 1.69742 -3.24936 0
M  V30 2149 H 199.052 4.14175 -2.85426 0
M  V30 2150 H 198.752 3.71028 -4.55645 0
M  V30 2151 H 200.276 4.52387 -4.10095 0
M  V30 2152 H 201.69 2.51117 -5.15377 0
M  V30 2153 H 200.087 1.9241 -5.68417 0
M  V30 2154 H 201.157 0.84136 -4.77545 0
M  V30 2155 N 202.5 1.5196 0.417844 0
M  V30 2156 C 203.448 1.75278 1.52907 0
M  V30 2157 C 204.442 0.619611 1.57662 0
M  V30 2158 O 205.648 0.801457 1.61173 0
M  V30 2159 H 202.023 0.554141 0.508362 0
M  V30 2160 H 203.994 2.68389 1.30422 0
M  V30 2161 C 202.743 1.91262 2.90369 0
M  V30 2162 H 202.066 2.77872 2.8745 0
M  V30 2163 H 203.506 2.11581 3.67436 0
M  V30 2164 C 201.965 0.677431 3.30019 0
M  V30 2165 O 202.495 -0.158799 4.01386 0
M  V30 2166 N 200.701 0.515851 2.85985 0
M  V30 2167 H 200.248 1.19744 2.28077 0
M  V30 2168 H 200.206 -0.309315 3.12875 0
M  V30 2169 N 203.978 -0.674533 1.42435 0
M  V30 2170 C 204.908 -1.80009 1.48724 0
M  V30 2171 C 205.889 -1.6659 0.343793 0
M  V30 2172 O 207.074 -1.86007 0.558137 0
M  V30 2173 C 204.204 -3.18306 1.38919 0
M  V30 2174 C 203.158 -3.46461 2.51294 0
M  V30 2175 C 202.484 -4.84335 2.26547 0
M  V30 2176 C 203.784 -3.43328 3.93603 0
M  V30 2177 H 205.478 -1.75004 2.42928 0
M  V30 2178 H 203.024 -0.840533 1.16923 0
M  V30 2179 H 204.977 -3.9678 1.41927 0
M  V30 2180 H 203.701 -3.2399 0.412094 0
M  V30 2181 H 202.36 -2.70348 2.47604 0
M  V30 2182 H 202.008 -4.86669 1.2713 0
M  V30 2183 H 201.708 -5.04136 3.01861 0
M  V30 2184 H 203.232 -5.65094 2.31304 0
M  V30 2185 H 204.646 -4.11772 3.98894 0
M  V30 2186 H 203.043 -3.74664 4.68771 0
M  V30 2187 H 204.113 -2.41897 4.20255 0
M  V30 2188 N 205.456 -1.28612 -0.910864 0
M  V30 2189 C 206.406 -1.09423 -2.00026 0
M  V30 2190 C 207.39 -0.0170079 -1.60891 0
M  V30 2191 O 208.582 -0.237472 -1.754 0
M  V30 2192 C 205.711 -0.76114 -3.34756 0
M  V30 2193 C 204.797 -1.87735 -3.80285 0
M  V30 2194 N 205.188 -3.11938 -3.98156 0
M  V30 2195 C 203.486 -1.76786 -4.09467 0
M  V30 2196 C 204.187 -3.84687 -4.36338 0
M  V30 2197 N 203.163 -3.12555 -4.44759 0
M  V30 2198 H 206.965 -2.03658 -2.11898 0
M  V30 2199 H 204.479 -1.19573 -1.09891 0
M  V30 2200 H 206.476 -0.604743 -4.12491 0
M  V30 2201 H 205.136 0.173403 -3.24237 0
M  V30 2202 H 206.147 -3.47516 -3.83996 0
M  V30 2203 H 202.824 -0.905284 -4.07567 0
M  V30 2204 H 204.214 -4.91518 -4.58104 0
M  V30 2205 N 206.934 1.1197 -1.10907 0
M  V30 2206 C 208.345 1.65114 -0.871446 0
M  V30 2207 C 208.696 1.86885 0.597353 0
M  V30 2208 O 207.821 1.59896 1.45816 0
M  V30 2209 C 208.416 2.99944 -1.5754 0
M  V30 2210 C 206.975 3.50018 -1.38435 0
M  V30 2211 C 206.122 2.24941 -1.62164 0
M  V30 2212 H 209.073 0.956851 -1.2661 0
M  V30 2213 H 209.094 3.66651 -1.01721 0
M  V30 2214 H 208.606 2.84067 -2.64438 0
M  V30 2215 H 206.707 3.71071 -0.337214 0
M  V30 2216 H 206.82 4.29165 -2.12965 0
M  V30 2217 H 205.184 2.3229 -1.04467 0
M  V30 2218 H 205.967 2.11612 -2.70324 0
M  V30 2219 N 208.412 0.89855 1.29475 0
M  V30 2220 C 209.637 0.538561 2.00285 0
M  V30 2221 C 210.062 -0.869135 1.66816 0
M  V30 2222 O 209.42 -1.57831 0.892145 0
M  V30 2223 C 209.468 0.736475 3.52999 0
M  V30 2224 O 208.572 -0.211537 4.11857 0
M  V30 2225 H 207.913 0.210563 0.62973 0
M  V30 2226 H 210.443 1.20982 1.64998 0
M  V30 2227 H 210.453 0.640685 4.02938 0
M  V30 2228 H 209.128 1.76276 3.76696 0
M  V30 2229 H 207.705 -0.0682991 3.72837 0
M  V30 2230 N 209.89 -1.43072 0.660911 0
M  V30 2231 C 210.838 -2.32569 -0.0378199 0
M  V30 2232 C 211.832 -1.49046 -0.805092 0
M  V30 2233 O 213.038 -1.65206 -0.714624 0
M  V30 2234 H 209.413 -0.75136 -0.031019 0
M  V30 2235 H 211.384 -2.89216 0.734609 0
M  V30 2236 C 210.133 -3.33453 -0.985124 0
M  V30 2237 H 209.456 -3.97752 -0.404147 0
M  V30 2238 H 210.896 -3.98691 -1.44297 0
M  V30 2239 C 209.355 -2.64642 -2.08486 0
M  V30 2240 O 209.885 -2.46776 -3.16961 0
M  V30 2241 N 208.091 -2.23891 -1.8526 0
M  V30 2242 H 207.638 -2.38621 -0.970449 0
M  V30 2243 H 207.596 -1.78181 -2.59034 0
M  V30 2244 N 211.368 -0.403325 -1.52352 0
M  V30 2245 C 212.596 0.174012 -2.06167 0
M  V30 2246 C 213.011 1.39347 -1.27388 0
M  V30 2247 O 212.368 1.79597 -0.324201 0
M  V30 2248 C 212.419 0.530223 -3.5759 0
M  V30 2249 O 212.14 -0.640806 -4.33388 0
M  V30 2250 C 213.641 1.16192 -4.27802 0
M  V30 2251 H 210.861 0.0229464 -0.670608 0
M  V30 2252 H 213.405 -0.572604 -1.9632 0
M  V30 2253 H 211.56 1.22673 -3.67464 0
M  V30 2254 H 211.974 -0.344851 -5.23365 0
M  V30 2255 H 213.448 1.36141 -5.34948 0
M  V30 2256 H 213.925 2.13335 -3.83907 0
M  V30 2257 H 214.531 0.505775 -4.22282 0
M  V30 2258 N 212.846 1.57033 -0.133567 0
M  V30 2259 C 214.123 1.87256 0.56522 0
M  V30 2260 C 214.503 1.03726 1.83859 0
M  V30 2261 O 213.851 0.120247 2.28183 0
M  V30 2262 C 214.061 3.3865 0.843636 0
M  V30 2263 C 215.409 4.07574 1.19032 0
M  V30 2264 O 216.433 3.43752 0.933429 0
M  V30 2265 O 215.292 5.20259 1.67312 0
M  V30 2266 H 212.386 0.775678 0.286796 0
M  V30 2267 H 214.932 1.68855 -0.169168 0
M  V30 2268 H 213.704 3.91257 -0.0581149 0
M  V30 2269 H 213.327 3.62532 1.63268 0
M  V30 2270 N 214.325 -0.140222 1.56975 0
M  V30 2271 C 215.574 -0.850152 1.82908 0
M  V30 2272 C 215.887 -1.82028 0.715892 0
M  V30 2273 O 217.093 -2.57485 0.861016 0
M  V30 2274 C 215.549 -1.5625 3.24213 0
M  V30 2275 C 215.157 -0.63443 4.43485 0
M  V30 2276 C 216.901 -2.25881 3.59413 0
M  V30 2277 C 214.808 -1.34879 5.75814 0
M  V30 2278 H 213.738 -0.321221 0.682153 0
M  V30 2279 H 216.389 -0.102874 1.83211 0
M  V30 2280 H 214.771 -2.35565 3.18316 0
M  V30 2281 H 215.945 0.12398 4.60633 0
M  V30 2282 H 214.26 -0.0461836 4.16374 0
M  V30 2283 H 216.857 -2.79978 4.5554 0
M  V30 2284 H 217.2 -3.02693 2.85802 0
M  V30 2285 H 217.733 -1.53477 3.67001 0
M  V30 2286 H 214.472 -0.622385 6.52539 0
M  V30 2287 H 213.992 -2.07974 5.6259 0
M  V30 2288 H 215.671 -1.88784 6.18845 0
M  V30 2289 N 215.803 -1.52179 -0.40978 0
M  V30 2290 C 217.028 -1.70347 -1.18308 0
M  V30 2291 C 217.453 -0.411887 -1.83535 0
M  V30 2292 O 216.811 0.630587 -1.6998 0
M  V30 2293 C 216.859 -2.83977 -2.22238 0
M  V30 2294 O 215.963 -2.495 -3.28365 0
M  V30 2295 H 215.304 -0.567103 -0.345384 0
M  V30 2296 H 217.834 -1.98879 -0.480445 0
M  V30 2297 H 217.844 -3.0887 -2.66577 0
M  V30 2298 H 216.519 -3.77685 -1.74146 0
M  V30 2299 H 215.096 -2.35277 -2.89308 0
M  V30 2300 N 217.281 0.66697 -1.42791 0
M  V30 2301 C 218.527 1.4291 -1.43891 0
M  V30 2302 C 218.86 1.94114 -0.0578972 0
M  V30 2303 O 218.135 1.71414 0.91911 0
M  V30 2304 C 218.418 2.62049 -2.46987 0
M  V30 2305 C 218.271 2.16426 -3.94309 0
M  V30 2306 C 219.59 3.64266 -2.46978 0
M  V30 2307 H 216.709 0.518306 -0.523954 0
M  V30 2308 H 219.351 0.757321 -1.74255 0
M  V30 2309 H 217.501 3.19361 -2.21225 0
M  V30 2310 H 219.173 1.64221 -4.31079 0
M  V30 2311 H 217.416 1.47925 -4.078 0
M  V30 2312 H 218.087 3.02038 -4.62036 0
M  V30 2313 H 220.563 3.16686 -2.69906 0
M  V30 2314 H 219.439 4.45196 -3.21079 0
M  V30 2315 H 219.7 4.15927 -1.49857 0
M  V30 2316 N 218.759 1.29093 0.90403 0
M  V30 2317 C 219.722 1.1386 1.98919 0
M  V30 2318 C 220.722 0.0753457 1.60623 0
M  V30 2319 O 221.912 0.321931 1.71199 0
M  V30 2320 C 219.044 0.740198 3.32767 0
M  V30 2321 H 220.237 2.10246 2.13861 0
M  V30 2322 H 217.79 1.12218 1.08797 0
M  V30 2323 H 218.525 -0.223997 3.23525 0
M  V30 2324 H 218.31 1.50838 3.61926 0
M  V30 2325 H 219.8 0.656546 4.12407 0
M  V30 2326 N 220.237 -1.11381 1.11499 0
M  V30 2327 C 221.483 -1.83403 0.865512 0
M  V30 2328 C 221.816 -1.84459 -0.607329 0
M  V30 2329 O 221.091 -1.29811 -1.44842 0
M  V30 2330 C 221.374 -3.30552 1.42855 0
M  V30 2331 C 221.227 -3.37886 2.96906 0
M  V30 2332 C 222.546 -4.26643 1.08 0
M  V30 2333 H 219.665 -0.665879 0.31587 0
M  V30 2334 H 222.307 -1.30601 1.37998 0
M  V30 2335 H 220.457 -3.75648 0.990985 0
M  V30 2336 H 222.129 -3.01343 3.49271 0
M  V30 2337 H 220.372 -2.78088 3.32941 0
M  V30 2338 H 221.043 -4.41458 3.31389 0
M  V30 2339 H 223.519 -3.89729 1.45775 0
M  V30 2340 H 222.395 -5.27986 1.50072 0
M  V30 2341 H 222.656 -4.42099 -0.00915037 0
M  V30 2342 N 221.715 -0.905404 -1.28997 0
M  V30 2343 C 222.678 -0.392253 -2.25819 0
M  V30 2344 C 223.678 0.476753 -1.5357 0
M  V30 2345 O 224.868 0.280994 -1.71919 0
M  V30 2346 C 222 0.438588 -3.38067 0
M  V30 2347 H 223.193 -1.24743 -2.72725 0
M  V30 2348 H 220.746 -0.684051 -1.40536 0
M  V30 2349 H 221.481 1.31352 -2.96508 0
M  V30 2350 H 221.266 -0.184167 -3.91667 0
M  V30 2351 H 222.756 0.78873 -4.10084 0
M  V30 2352 N 223.193 1.4272 -0.668489 0
M  V30 2353 C 224.441 2.01226 -0.187769 0
M  V30 2354 C 224.762 1.53092 1.2078 0
M  V30 2355 O 224.032 0.74993 1.80977 0
M  V30 2356 H 222.612 0.744041 -0.0664272 0
M  V30 2357 H 225.274 1.74723 -0.863583 0
M  V30 2358 H 224.37 3.11556 -0.184166 0
M  V30 2359 N 224.671 0.411399 1.52136 0
M  V30 2360 C 225.92 -0.165009 2.01024 0
M  V30 2361 C 226.233 -1.4603 1.30133 0
M  V30 2362 O 227.439 -2.1181 1.69849 0
M  V30 2363 C 225.895 -0.344618 3.58246 0
M  V30 2364 C 225.503 0.938716 4.38055 0
M  V30 2365 C 227.247 -0.876195 4.15359 0
M  V30 2366 C 225.154 0.726172 5.86925 0
M  V30 2367 H 224.084 -0.0654407 0.751155 0
M  V30 2368 H 226.735 0.537192 1.75461 0
M  V30 2369 H 225.117 -1.10921 3.80148 0
M  V30 2370 H 226.291 1.70963 4.27912 0
M  V30 2371 H 224.606 1.39688 3.92271 0
M  V30 2372 H 227.203 -1.05128 5.24263 0
M  V30 2373 H 227.546 -1.85152 3.7286 0
M  V30 2374 H 228.079 -0.170607 3.97434 0
M  V30 2375 H 224.818 1.67312 6.33788 0
M  V30 2376 H 224.338 -0.00540283 5.998 0
M  V30 2377 H 226.017 0.369231 6.45946 0
M  V30 2378 N 226.149 -1.5696 0.141893 0
M  V30 2379 C 227.079 -2.19516 -0.795936 0
M  V30 2380 C 228.06 -1.14187 -1.26077 0
M  V30 2381 O 229.245 -1.42511 -1.31925 0
M  V30 2382 C 226.375 -2.81272 -2.03723 0
M  V30 2383 C 225.329 -3.92384 -1.70936 0
M  V30 2384 C 224.655 -4.41052 -3.02287 0
M  V30 2385 C 225.955 -5.13403 -0.959954 0
M  V30 2386 H 227.649 -2.98138 -0.274596 0
M  V30 2387 H 225.195 -1.43406 -0.130636 0
M  V30 2388 H 227.148 -3.237 -2.69808 0
M  V30 2389 H 225.872 -1.99973 -2.58221 0
M  V30 2390 H 224.531 -3.50566 -1.07232 0
M  V30 2391 H 224.179 -3.56582 -3.54765 0
M  V30 2392 H 223.879 -5.15993 -2.81114 0
M  V30 2393 H 225.403 -4.86146 -3.69451 0
M  V30 2394 H 226.817 -5.52706 -1.52279 0
M  V30 2395 H 225.214 -5.94073 -0.848357 0
M  V30 2396 H 226.284 -4.84875 0.0492434 0
M  V30 2397 N 227.627 0.131896 -1.57047 0
M  V30 2398 C 228.575 1.18146 -2.0036 0
M  V30 2399 C 229.569 1.43614 -0.898406 0
M  V30 2400 O 230.775 1.43729 -1.08361 0
M  V30 2401 H 227.15 0.398042 -0.638018 0
M  V30 2402 H 229.121 0.789564 -2.87765 0
M  V30 2403 C 227.87 2.50341 -2.41298 0
M  V30 2404 H 227.193 2.31578 -3.25902 0
M  V30 2405 H 228.633 3.22371 -2.75414 0
M  V30 2406 C 227.092 3.11984 -1.27153 0
M  V30 2407 O 227.622 3.97484 -0.580459 0
M  V30 2408 N 225.828 2.71662 -1.03189 0
M  V30 2409 H 225.375 2.02231 -1.59564 0
M  V30 2410 H 225.333 3.13238 -0.270077 0
M  V30 2411 N 229.106 1.52395 0.401703 0
M  V30 2412 C 230.353 1.66817 1.14796 0
M  V30 2413 C 230.681 0.401772 1.90305 0
M  V30 2414 O 229.936 -0.615487 1.85769 0
M  V30 2415 C 230.235 2.84578 2.16217 0
M  V30 2416 C 229.901 4.22513 1.5746 0
M  V30 2417 C 228.563 4.60029 1.41161 0
M  V30 2418 C 230.915 5.0844 1.14622 0
M  V30 2419 C 228.243 5.81144 0.80552 0
M  V30 2420 C 230.595 6.30167 0.55428 0
M  V30 2421 C 229.259 6.66426 0.378482 0
M  V30 2422 H 228.529 0.610428 0.420069 0
M  V30 2423 H 231.176 1.86512 0.434212 0
M  V30 2424 H 229.481 2.59248 2.93764 0
M  V30 2425 H 231.178 2.92933 2.73845 0
M  V30 2426 H 227.768 3.92953 1.71132 0
M  V30 2427 H 231.952 4.80034 1.26021 0
M  V30 2428 H 227.208 6.07855 0.657399 0
M  V30 2429 H 231.382 6.96071 0.213983 0
M  V30 2430 H 229.009 7.60143 -0.0932606 0
M  V30 2431 N 230.584 -0.659388 1.43143 0
M  V30 2432 C 231.831 -1.41935 1.44433 0
M  V30 2433 C 232.159 -1.94387 0.0663522 0
M  V30 2434 O 231.414 -1.72314 -0.927706 0
M  V30 2435 C 231.713 -2.62206 2.42864 0
M  V30 2436 C 231.379 -2.28208 3.88886 0
M  V30 2437 C 230.041 -2.18647 4.28657 0
M  V30 2438 C 232.393 -2.00887 4.8093 0
M  V30 2439 C 229.721 -1.79914 5.58433 0
M  V30 2440 C 232.073 -1.63653 6.11065 0
M  V30 2441 C 230.737 -1.52614 6.49819 0
M  V30 2442 H 230.007 -0.519376 0.528517 0
M  V30 2443 H 232.654 -0.750453 1.76183 0
M  V30 2444 H 230.959 -3.34199 2.04495 0
M  V30 2445 H 232.656 -3.2041 2.41119 0
M  V30 2446 H 229.246 -2.36557 3.57406 0
M  V30 2447 H 233.43 -2.07198 4.5098 0
M  V30 2448 H 228.686 -1.69948 5.87305 0
M  V30 2449 H 232.86 -1.41543 6.81864 0
M  V30 2450 H 230.487 -1.22371 7.50286 0
M  V30 2451 N 232.062 -1.29571 -0.897171 0
M  V30 2452 C 233.01 -1.14802 -2.02295 0
M  V30 2453 C 234.004 -0.0629637 -1.69283 0
M  V30 2454 O 235.21 -0.222945 -1.78614 0
M  V30 2455 H 231.585 -0.354692 -0.663097 0
M  V30 2456 H 233.556 -2.10108 -2.11889 0
M  V30 2457 C 232.305 -0.843966 -3.37302 0
M  V30 2458 H 231.628 -1.67093 -3.63208 0
M  V30 2459 H 233.068 -0.780672 -4.16751 0
M  V30 2460 C 231.527 0.452843 -3.33843 0
M  V30 2461 O 232.057 1.47813 -3.73516 0
M  V30 2462 N 230.263 0.459601 -2.86943 0
M  V30 2463 H 229.81 -0.375213 -2.54853 0
M  V30 2464 H 229.768 1.32726 -2.85011 0
M  V30 2465 N 233.54 1.10788 -1.12088 0
M  V30 2466 C 234.78 1.84297 -0.883974 0
M  V30 2467 C 235.144 1.83036 0.579797 0
M  V30 2468 O 236.345 2.52061 0.933734 0
M  V30 2469 C 234.616 3.27173 -1.43849 0
M  V30 2470 S 236.175 4.17853 -1.33957 0
M  V30 2471 H 232.993 0.635433 -0.318977 0
M  V30 2472 H 235.595 1.33341 -1.4297 0
M  V30 2473 H 234.299 3.25658 -2.49749 0
M  V30 2474 H 233.83 3.83198 -0.890096 0
M  V30 2475 H 235.845 4.95239 -0.308603 0
M  V30 2476 N 235.018 0.912232 1.28515 0
M  V30 2477 C 236.246 0.560416 1.99166 0
M  V30 2478 C 236.661 -0.857927 1.68182 0
M  V30 2479 O 236.018 -1.56805 0.933733 0
M  V30 2480 C 236.069 0.758142 3.53461 0
M  V30 2481 O 235.79 2.12067 3.83352 0
M  V30 2482 C 237.291 0.412954 4.41372 0
M  V30 2483 H 234.511 0.213805 0.636026 0
M  V30 2484 H 237.055 1.22502 1.63749 0
M  V30 2485 H 235.21 0.140556 3.87145 0
M  V30 2486 H 235.624 2.15923 4.77993 0
M  V30 2487 H 237.098 0.60208 5.48707 0
M  V30 2488 H 237.575 -0.65073 4.34353 0
M  V30 2489 H 238.181 1.00802 4.13182 0
M  V30 2490 N 236.496 -1.42363 0.676048 0
M  V30 2491 C 237.724 -2.05859 0.207268 0
M  V30 2492 C 238.139 -1.50796 -1.13605 0
M  V30 2493 O 237.496 -0.648265 -1.70598 0
M  V30 2494 C 237.547 -3.61248 0.134975 0
M  V30 2495 O 237.268 -4.1427 1.42521 0
M  V30 2496 C 238.769 -4.41859 -0.357151 0
M  V30 2497 H 235.989 -0.663431 0.100503 0
M  V30 2498 H 238.533 -1.82479 0.923136 0
M  V30 2499 H 236.688 -3.83735 -0.531588 0
M  V30 2500 H 237.102 -5.0815 1.29939 0
M  V30 2501 H 238.576 -5.50847 -0.356641 0
M  V30 2502 H 239.053 -4.16536 -1.39264 0
M  V30 2503 H 239.659 -4.24392 0.27772 0
M  V30 2504 N 237.974 -0.419461 -1.51915 0
M  V30 2505 C 238.937 0.389116 -2.25873 0
M  V30 2506 C 239.937 0.964924 -1.28631 0
M  V30 2507 O 241.127 0.842179 -1.52489 0
M  V30 2508 C 238.259 1.54874 -3.03689 0
M  V30 2509 H 239.452 -0.258799 -2.98781 0
M  V30 2510 H 237.005 -0.172209 -1.55348 0
M  V30 2511 H 237.74 2.23323 -2.35154 0
M  V30 2512 H 237.525 1.14223 -3.75094 0
M  V30 2513 H 239.015 2.12046 -3.59759 0
M  V30 2514 N 239.452 1.56882 -0.150215 0
M  V30 2515 C 240.692 1.98119 0.502804 0
M  V30 2516 C 241.056 1.03327 1.61826 0
M  V30 2517 O 242.257 1.33621 2.33236 0
M  V30 2518 C 240.528 3.43329 0.992988 0
M  V30 2519 S 242.087 4.0659 1.65015 0
M  V30 2520 H 238.905 0.692189 0.162467 0
M  V30 2521 H 241.507 1.93988 -0.242689 0
M  V30 2522 H 240.211 4.10046 0.170436 0
M  V30 2523 H 239.742 3.5118 1.77303 0
M  V30 2524 H 241.757 3.99906 2.93752 0
M  V30 2525 N 240.93 -0.123565 1.57115 0
M  V30 2526 C 241.86 -1.15309 2.03042 0
M  V30 2527 C 242.841 -1.43454 0.914061 0
M  V30 2528 O 244.026 -1.53973 1.18347 0
M  V30 2529 C 241.156 -2.48043 2.43089 0
M  V30 2530 C 240.11 -2.3437 3.58127 0
M  V30 2531 C 239.436 -3.72026 3.84059 0
M  V30 2532 C 240.736 -1.80804 4.90007 0
M  V30 2533 H 242.43 -0.771102 2.893 0
M  V30 2534 H 239.976 -0.369479 1.39179 0
M  V30 2535 H 241.929 -3.20311 2.73823 0
M  V30 2536 H 240.653 -2.88122 1.53796 0
M  V30 2537 H 239.312 -1.64551 3.27595 0
M  V30 2538 H 238.96 -4.09582 2.91979 0
M  V30 2539 H 238.66 -3.63732 4.6149 0
M  V30 2540 H 240.184 -4.45806 4.1724 0
M  V30 2541 H 241.598 -2.42886 5.19307 0
M  V30 2542 H 239.995 -1.83343 5.71407 0
M  V30 2543 H 241.065 -0.76528 4.78823 0
M  V30 2544 N 242.408 -1.52605 -0.393616 0
M  V30 2545 C 243.657 -1.66649 -1.13627 0
M  V30 2546 C 243.97 -0.410364 -1.91247 0
M  V30 2547 O 245.176 -0.430854 -2.68059 0
M  V30 2548 C 243.632 -2.9449 -2.06891 0
M  V30 2549 C 243.24 -4.27266 -1.34714 0
M  V30 2550 C 244.984 -3.17899 -2.81319 0
M  V30 2551 C 242.891 -5.46217 -2.26717 0
M  V30 2552 H 241.821 -0.62084 -0.427871 0
M  V30 2553 H 244.472 -1.791 -0.399428 0
M  V30 2554 H 242.854 -2.75774 -2.84191 0
M  V30 2555 H 244.028 -4.56518 -0.626714 0
M  V30 2556 H 242.343 -4.10081 -0.722643 0
M  V30 2557 H 244.94 -4.03949 -3.50328 0
M  V30 2558 H 245.283 -2.32777 -3.45139 0
M  V30 2559 H 245.816 -3.37159 -2.11113 0
M  V30 2560 H 242.555 -6.33733 -1.67521 0
M  V30 2561 H 242.075 -5.21283 -2.96689 0
M  V30 2562 H 243.754 -5.7991 -2.86903 0
M  V30 2563 N 243.887 0.651787 -1.4349 0
M  V30 2564 C 245.127 1.42345 -1.46688 0
M  V30 2565 C 245.491 1.91793 -0.0891023 0
M  V30 2566 O 246.692 2.688 0.00423594 0
M  V30 2567 C 244.963 2.57221 -2.48137 0
M  V30 2568 S 246.522 3.45725 -2.70221 0
M  V30 2569 H 243.34 0.485878 -0.51908 0
M  V30 2570 H 245.942 0.756578 -1.80267 0
M  V30 2571 H 244.646 2.1917 -3.46976 0
M  V30 2572 H 244.177 3.28757 -2.16061 0
M  V30 2573 H 246.192 4.53996 -2.00255 0
M  V30 2574 N 245.365 1.30045 0.890287 0
M  V30 2575 C 246.328 1.15963 1.977 0
M  V30 2576 C 247.328 0.0923777 1.60534 0
M  V30 2577 O 248.518 0.340071 1.70848 0
M  V30 2578 C 245.65 0.775451 3.31963 0
M  V30 2579 H 246.843 2.12502 2.11619 0
M  V30 2580 H 244.396 1.13366 1.07601 0
M  V30 2581 H 245.131 -0.189671 3.23745 0
M  V30 2582 H 244.916 1.54668 3.60306 0
M  V30 2583 H 246.406 0.700251 4.11687 0
M  V30 2584 N 246.843 -1.10192 1.12674 0
M  V30 2585 C 247.79 -2.16606 0.796906 0
M  V30 2586 C 248.76 -1.64394 -0.237476 0
M  V30 2587 O 249.945 -1.90474 -0.111484 0
M  V30 2588 C 247.085 -3.44116 0.26043 0
M  V30 2589 C 246.198 -4.10268 1.35293 0
M  V30 2590 C 245.333 -5.25507 0.775621 0
M  V30 2591 C 244.372 -5.83567 1.84706 0
M  V30 2592 N 243.509 -6.90179 1.28829 0
M  V30 2593 H 248.349 -2.44163 1.70846 0
M  V30 2594 H 245.886 -1.19846 0.85295 0
M  V30 2595 H 247.844 -4.17143 -0.0686814 0
M  V30 2596 H 246.474 -3.16901 -0.614274 0
M  V30 2597 H 245.526 -3.35184 1.79877 0
M  V30 2598 H 246.838 -4.4946 2.16303 0
M  V30 2599 H 245.992 -6.05398 0.397327 0
M  V30 2600 H 244.731 -4.87656 -0.0656581 0
M  V30 2601 H 243.736 -5.02344 2.23452 0
M  V30 2602 H 244.961 -6.23482 2.69161 0
M  V30 2603 H 242.907 -6.54322 0.468881 0
M  V30 2604 H 242.824 -7.28097 2.03497 0
M  V30 2605 H 244.092 -7.73844 0.937311 0
M  V30 2606 N 248.321 -0.919034 -1.28029 0
M  V30 2607 C 249.284 -0.416182 -2.2539 0
M  V30 2608 C 250.284 0.460438 -1.54067 0
M  V30 2609 O 251.474 0.262744 -1.72207 0
M  V30 2610 C 248.606 0.402707 -3.38513 0
M  V30 2611 H 249.799 -1.27629 -2.71387 0
M  V30 2612 H 247.352 -0.698919 -1.39803 0
M  V30 2613 H 248.087 1.282 -2.97885 0
M  V30 2614 H 247.872 -0.225698 -3.9145 0
M  V30 2615 H 249.362 0.745191 -4.10897 0
M  V30 2616 N 249.799 1.42003 -0.683588 0
M  V30 2617 C 250.709 2.34597 -0.0109075 0
M  V30 2618 C 251.725 1.55576 0.779245 0
M  V30 2619 O 252.901 1.88107 0.719555 0
M  V30 2620 C 249.966 3.34199 0.922588 0
M  V30 2621 C 249.027 4.29115 0.125984 0
M  V30 2622 C 248.26 5.23959 1.01502 0
M  V30 2623 O 248.483 5.23952 2.25456 0
M  V30 2624 O 247.417 6.00053 0.47111 0
M  V30 2625 H 251.243 2.93675 -0.773853 0
M  V30 2626 H 248.828 1.42654 -0.443861 0
M  V30 2627 H 250.71 3.95365 1.45823 0
M  V30 2628 H 249.385 2.77582 1.66523 0
M  V30 2629 H 248.292 3.71335 -0.453969 0
M  V30 2630 H 249.625 4.88798 -0.577736 0
M  V30 2631 N 251.277 0.427512 1.51691 0
M  V30 2632 C 252.517 -0.141524 2.03909 0
M  V30 2633 C 252.881 -1.40811 1.30523 0
M  V30 2634 O 254.082 -2.05676 1.73063 0
M  V30 2635 C 252.353 -0.364962 3.55532 0
M  V30 2636 S 253.912 -0.898812 4.29496 0
M  V30 2637 H 250.73 -0.0364542 0.710065 0
M  V30 2638 H 253.332 0.584659 1.86553 0
M  V30 2639 H 252.036 0.56336 4.06515 0
M  V30 2640 H 251.567 -1.1185 3.77164 0
M  V30 2641 H 253.582 -2.17747 4.45871 0
M  V30 2642 N 252.755 -1.56801 0.158532 0
M  V30 2643 C 253.685 -2.20347 -0.772609 0
M  V30 2644 C 254.666 -1.15518 -1.24859 0
M  V30 2645 O 255.851 -1.43902 -1.30406 0
M  V30 2646 C 252.981 -2.83417 -2.00729 0
M  V30 2647 C 251.935 -3.94174 -1.66765 0
M  V30 2648 C 251.261 -4.44233 -2.97592 0
M  V30 2649 C 252.561 -5.14392 -0.905447 0
M  V30 2650 H 254.255 -2.98413 -0.242959 0
M  V30 2651 H 251.801 -1.43537 -0.115419 0
M  V30 2652 H 253.754 -3.26543 -2.6636 0
M  V30 2653 H 252.478 -2.02701 -2.56086 0
M  V30 2654 H 251.137 -3.51684 -1.03508 0
M  V30 2655 H 250.785 -3.60325 -3.50963 0
M  V30 2656 H 250.485 -5.18945 -2.75626 0
M  V30 2657 H 252.009 -4.90037 -3.64274 0
M  V30 2658 H 253.423 -5.5429 -1.46408 0
M  V30 2659 H 251.82 -5.9494 -0.7853 0
M  V30 2660 H 252.89 -4.84795 0.100668 0
M  V30 2661 N 254.233 0.115231 -1.57178 0
M  V30 2662 C 255.163 1.1423 -2.03651 0
M  V30 2663 C 256.144 1.42967 -0.921655 0
M  V30 2664 O 257.329 1.53343 -1.19162 0
M  V30 2665 C 254.459 2.4675 -2.44401 0
M  V30 2666 C 253.413 2.32467 -3.59365 0
M  V30 2667 C 252.739 3.69984 -3.86026 0
M  V30 2668 C 254.039 1.78203 -4.90959 0
M  V30 2669 H 255.733 0.755749 -2.89705 0
M  V30 2670 H 253.279 0.362093 -1.39373 0
M  V30 2671 H 255.232 3.18854 -2.75517 0
M  V30 2672 H 253.956 2.87302 -1.55322 0
M  V30 2673 H 252.615 1.62811 -3.28463 0
M  V30 2674 H 252.263 4.08028 -2.94147 0
M  V30 2675 H 251.963 3.61279 -4.63412 0
M  V30 2676 H 253.487 4.43587 -4.19599 0
M  V30 2677 H 254.901 2.40128 -5.20587 0
M  V30 2678 H 253.298 1.8031 -5.72371 0
M  V30 2679 H 254.368 0.739876 -4.79222 0
M  V30 2680 N 255.711 1.52812 0.385517 0
M  V30 2681 C 256.659 1.78482 1.49155 0
M  V30 2682 C 257.653 0.652914 1.56312 0
M  V30 2683 O 258.859 0.835464 1.59436 0
M  V30 2684 H 255.234 0.5648 0.496493 0
M  V30 2685 H 257.205 2.71095 1.24699 0
M  V30 2686 C 255.954 1.97378 2.86247 0
M  V30 2687 H 255.277 2.83907 2.81491 0
M  V30 2688 H 256.717 2.19327 3.62866 0
M  V30 2689 C 255.176 0.74728 3.28508 0
M  V30 2690 O 255.706 -0.0736232 4.01633 0
M  V30 2691 N 253.912 0.576396 2.84826 0
M  V30 2692 H 253.459 1.24555 2.25486 0
M  V30 2693 H 253.417 -0.24288 3.1346 0
M  V30 2694 N 257.189 -0.644168 1.43834 0
M  V30 2695 C 258.119 -1.76814 1.52509 0
M  V30 2696 C 259.1 -1.65823 0.379052 0
M  V30 2697 O 260.285 -1.84781 0.597466 0
M  V30 2698 C 257.415 -3.15288 1.4564 0
M  V30 2699 C 256.369 -3.41053 2.58586 0
M  V30 2700 C 255.695 -4.79421 2.36769 0
M  V30 2701 C 256.995 -3.34902 4.00797 0
M  V30 2702 H 258.689 -1.69812 2.46586 0
M  V30 2703 H 256.235 -0.815542 1.1868 0
M  V30 2704 H 258.188 -3.93681 1.50311 0
M  V30 2705 H 256.912 -3.23043 0.480725 0
M  V30 2706 H 255.571 -2.65035 2.53282 0
M  V30 2707 H 255.219 -4.83863 1.37424 0
M  V30 2708 H 254.919 -4.9762 3.12487 0
M  V30 2709 H 256.443 -5.6006 2.43238 0
M  V30 2710 H 257.857 -4.03218 4.07539 0
M  V30 2711 H 256.254 -3.64637 4.76613 0
M  V30 2712 H 257.324 -2.32928 4.25291 0
M  V30 2713 N 258.668 -1.30515 -0.883378 0
M  V30 2714 C 259.578 -1.18959 -2.02203 0
M  V30 2715 C 260.594 -0.109172 -1.73657 0
M  V30 2716 O 261.77 -0.324413 -1.9877 0
M  V30 2717 C 258.835 -0.883871 -3.35244 0
M  V30 2718 C 257.896 -2.04982 -3.77201 0
M  V30 2719 C 257.129 -1.75859 -5.03894 0
M  V30 2720 O 257.352 -0.687276 -5.66244 0
M  V30 2721 O 256.286 -2.61146 -5.42297 0
M  V30 2722 H 260.112 -2.14616 -2.1488 0
M  V30 2723 H 257.697 -1.10124 -1.0096 0
M  V30 2724 H 259.579 -0.728644 -4.15053 0
M  V30 2725 H 258.254 0.0427798 -3.23672 0
M  V30 2726 H 257.161 -2.26038 -2.9809 0
M  V30 2727 H 258.494 -2.95825 -3.93381 0
M  V30 2728 N 260.146 1.09593 -1.13257 0
M  V30 2729 C 261.093 2.1618 -0.808381 0
M  V30 2730 C 262.063 1.64517 0.228754 0
M  V30 2731 O 263.248 1.9053 0.101381 0
M  V30 2732 C 260.388 3.43973 -0.278675 0
M  V30 2733 C 259.501 4.09545 -1.37466 0
M  V30 2734 C 258.636 5.25088 -0.803479 0
M  V30 2735 C 257.675 5.82579 -1.87799 0
M  V30 2736 N 256.812 6.89486 -1.32488 0
M  V30 2737 H 261.652 2.43254 -1.72138 0
M  V30 2738 H 259.189 1.19392 -0.859294 0
M  V30 2739 H 261.147 4.17174 0.0465583 0
M  V30 2740 H 259.777 3.17223 0.597459 0
M  V30 2741 H 258.829 3.34226 -1.81652 0
M  V30 2742 H 260.141 4.48307 -2.18684 0
M  V30 2743 H 259.295 6.05178 -0.429427 0
M  V30 2744 H 258.034 4.87684 0.0397956 0
M  V30 2745 H 257.039 5.01152 -2.26113 0
M  V30 2746 H 258.264 6.22045 -2.72463 0
M  V30 2747 H 256.21 6.54064 -0.503575 0
M  V30 2748 H 256.127 7.27007 -2.07355 0
M  V30 2749 H 257.395 7.73336 -0.978336 0
M  V30 2750 N 261.624 0.925811 1.2754 0
M  V30 2751 C 262.554 0.440748 2.29303 0
M  V30 2752 C 263.535 -0.497971 1.62648 0
M  V30 2753 O 264.72 -0.403126 1.8997 0
M  V30 2754 C 261.85 -0.309048 3.45922 0
M  V30 2755 C 260.804 0.54166 4.24559 0
M  V30 2756 C 260.13 -0.337191 5.33636 0
M  V30 2757 C 261.43 1.80516 4.90114 0
M  V30 2758 H 263.124 1.29121 2.70126 0
M  V30 2759 H 260.67 0.622323 1.29858 0
M  V30 2760 H 262.623 -0.659315 4.1621 0
M  V30 2761 H 261.347 -1.19352 3.04011 0
M  V30 2762 H 260.006 0.874609 3.56014 0
M  V30 2763 H 259.654 -1.22056 4.87966 0
M  V30 2764 H 259.354 0.228497 5.87156 0
M  V30 2765 H 260.878 -0.683072 6.06767 0
M  V30 2766 H 262.292 1.52307 5.52698 0
M  V30 2767 H 260.689 2.3142 5.53683 0
M  V30 2768 H 261.759 2.52581 4.13921 0
M  V30 2769 N 263.102 -1.41638 0.69111 0
M  V30 2770 C 264.032 -2.3347 0.037248 0
M  V30 2771 C 265.013 -1.51575 -0.771947 0
M  V30 2772 O 266.198 -1.80126 -0.72582 0
M  V30 2773 C 263.328 -3.35354 -0.903064 0
M  V30 2774 C 262.282 -4.27526 -0.201288 0
M  V30 2775 C 261.608 -5.19747 -1.25565 0
M  V30 2776 C 262.908 -5.13959 0.929689 0
M  V30 2777 H 264.602 -2.88397 0.804227 0
M  V30 2778 H 262.148 -1.38669 0.388189 0
M  V30 2779 H 264.101 -3.98519 -1.36969 0
M  V30 2780 H 262.825 -2.78767 -1.70166 0
M  V30 2781 H 261.484 -3.65779 0.245265 0
M  V30 2782 H 261.132 -4.59479 -2.04666 0
M  V30 2783 H 260.832 -5.8225 -0.791128 0
M  V30 2784 H 262.356 -5.85789 -1.72288 0
M  V30 2785 H 263.77 -5.70718 0.543546 0
M  V30 2786 H 262.167 -5.85379 1.32103 0
M  V30 2787 H 263.237 -4.51389 1.77133 0
M  V30 2788 N 264.58 -0.43555 -1.51462 0
M  V30 2789 C 265.996 -0.0877501 -1.59359 0
M  V30 2790 C 266.196 1.4027 -1.4466 0
M  V30 2791 O 265.252 2.17243 -1.28693 0
M  V30 2792 C 266.565 -0.606264 -2.94525 0
M  V30 2793 C 268.113 -0.566548 -3.0783 0
M  V30 2794 C 268.588 -1.06201 -4.45517 0
M  V30 2795 N 270.079 -1.01992 -4.51832 0
M  V30 2796 C 270.814 -1.37417 -5.5669 0
M  V30 2797 N 270.31 -1.80119 -6.68976 0
M  V30 2798 N 272.103 -1.29245 -5.47039 0
M  V30 2799 H 264.254 -1.40533 -1.59261 0
M  V30 2800 H 266.517 -0.578992 -0.750648 0
M  V30 2801 H 266.223 -1.64901 -3.10645 0
M  V30 2802 H 266.097 -0.0302097 -3.77188 0
M  V30 2803 H 268.484 0.467208 -2.91378 0
M  V30 2804 H 268.565 -1.17898 -2.2701 0
M  V30 2805 H 268.209 -2.09422 -4.62715 0
M  V30 2806 H 268.139 -0.426127 -5.24873 0
M  V30 2807 H 270.63 -0.706308 -3.71241 0
M  V30 2808 H 270.943 -2.05392 -7.45006 0
M  V30 2809 H 269.288 -1.84044 -6.70189 0
M  V30 2810 H 272.479 -0.957522 -4.58202 0
M  V30 2811 H 272.652 -1.57182 -6.28648 0
M  V30 2812 N 266.058 1.56714 -0.166846 0
M  V30 2813 C 266.99 2.14914 0.796537 0
M  V30 2814 C 268.003 1.10357 1.19688 0
M  V30 2815 O 269.192 1.37561 1.13751 0
M  V30 2816 C 266.292 2.67326 2.08303 0
M  V30 2817 C 265.465 3.96493 1.84696 0
M  V30 2818 C 264.524 4.34014 2.97521 0
M  V30 2819 O 263.55 5.01973 2.6835 0
M  V30 2820 N 264.752 3.95208 4.25196 0
M  V30 2821 H 267.517 2.98205 0.299006 0
M  V30 2822 H 265.078 1.61892 0.0160839 0
M  V30 2823 H 267.07 2.89428 2.82867 0
M  V30 2824 H 265.64 1.88649 2.4926 0
M  V30 2825 H 264.86 3.82814 0.940602 0
M  V30 2826 H 266.148 4.8086 1.66285 0
M  V30 2827 H 265.546 3.40487 4.51758 0
M  V30 2828 H 264.103 4.2232 4.96477 0
M  V30 2829 N 267.536 -0.106894 1.57237 0
M  V30 2830 C 268.783 -0.812526 1.85484 0
M  V30 2831 C 269.111 -1.79304 0.753687 0
M  V30 2832 O 268.366 -1.94047 -0.253853 0
M  V30 2833 C 268.665 -1.58628 3.20268 0
M  V30 2834 C 268.331 -0.748967 4.44636 0
M  V30 2835 C 266.993 -0.518104 4.78403 0
M  V30 2836 C 269.345 -0.166122 5.20935 0
M  V30 2837 C 266.673 0.305659 5.85903 0
M  V30 2838 C 269.025 0.644899 6.29304 0
M  V30 2839 C 267.689 0.885965 6.61594 0
M  V30 2840 H 266.959 -0.297324 0.678734 0
M  V30 2841 H 269.606 -0.0744332 1.91355 0
M  V30 2842 H 267.911 -2.39562 3.10028 0
M  V30 2843 H 269.608 -2.13643 3.39349 0
M  V30 2844 H 266.198 -0.939006 4.18187 0
M  V30 2845 H 270.382 -0.33167 4.95191 0
M  V30 2846 H 265.638 0.501528 6.0934 0
M  V30 2847 H 269.812 1.10345 6.87602 0
M  V30 2848 H 267.439 1.52609 7.44725 0
M  V30 2849 N 269.014 -1.53014 -0.377408 0
M  V30 2850 C 269.944 -1.81589 -1.46791 0
M  V30 2851 C 270.925 -0.668622 -1.56408 0
M  V30 2852 O 272.11 -0.917337 -1.71168 0
M  V30 2853 C 269.24 -1.99519 -2.8427 0
M  V30 2854 C 268.194 -3.15249 -2.89486 0
M  V30 2855 C 267.52 -3.18451 -4.29527 0
M  V30 2856 C 268.82 -4.54084 -2.58079 0
M  V30 2857 H 270.514 -2.7291 -1.23127 0
M  V30 2858 H 268.06 -1.31319 -0.590883 0
M  V30 2859 H 270.013 -2.18092 -3.60575 0
M  V30 2860 H 268.737 -1.04897 -3.09296 0
M  V30 2861 H 267.396 -2.96477 -2.15631 0
M  V30 2862 H 267.044 -2.2149 -4.5161 0
M  V30 2863 H 266.744 -3.962 -4.33934 0
M  V30 2864 H 268.268 -3.39193 -5.07721 0
M  V30 2865 H 269.682 -4.72899 -3.24098 0
M  V30 2866 H 268.079 -5.33987 -2.7382 0
M  V30 2867 H 269.149 -4.60006 -1.53372 0
M  V30 2868 N 270.492 0.636531 -1.44174 0
M  V30 2869 C 271.741 1.39213 -1.45954 0
M  V30 2870 C 272.054 1.95374 -0.0939119 0
M  V30 2871 O 273.26 2.71498 0.0107767 0
M  V30 2872 C 271.716 2.52025 -2.56927 0
M  V30 2873 C 271.324 2.024 -3.99673 0
M  V30 2874 C 273.068 3.29269 -2.67922 0
M  V30 2875 C 270.975 3.12521 -5.0208 0
M  V30 2876 H 269.905 0.523132 -0.542999 0
M  V30 2877 H 272.556 0.685349 -1.70221 0
M  V30 2878 H 270.938 3.25253 -2.25891 0
M  V30 2879 H 272.112 1.36073 -4.40251 0
M  V30 2880 H 270.427 1.37987 -3.92872 0
M  V30 2881 H 273.024 4.11352 -3.41605 0
M  V30 2882 H 273.367 3.78397 -1.73555 0
M  V30 2883 H 273.9 2.63129 -2.98342 0
M  V30 2884 H 270.639 2.68343 -5.98057 0
M  V30 2885 H 270.159 3.77507 -4.66099 0
M  V30 2886 H 271.838 3.77385 -5.25538 0
M  V30 2887 N 271.97 1.30982 0.876444 0
M  V30 2888 C 273.195 1.23373 1.66715 0
M  V30 2889 C 273.62 -0.19885 1.87046 0
M  V30 2890 O 272.978 -1.1427 1.40756 0
M  V30 2891 C 273.026 1.97644 3.01611 0
M  V30 2892 O 272.13 1.30935 3.91062 0
M  V30 2893 H 271.471 0.426279 0.509099 0
M  V30 2894 H 274.001 1.72944 1.09323 0
M  V30 2895 H 274.011 2.06992 3.51594 0
M  V30 2896 H 272.686 3.01829 2.86133 0
M  V30 2897 H 271.263 1.29996 3.49507 0
M  V30 2898 N 273.449 -1.08991 1.13837 0
M  V30 2899 C 274.396 -2.15748 0.819835 0
M  V30 2900 C 275.366 -1.64636 -0.220026 0
M  V30 2901 O 276.551 -1.90582 -0.0912757 0
M  V30 2902 C 273.691 -3.4382 0.296913 0
M  V30 2903 C 272.804 -4.0881 1.39636 0
M  V30 2904 C 271.939 -5.24655 0.831314 0
M  V30 2905 C 270.978 -5.81575 1.90886 0
M  V30 2906 N 270.115 -6.88774 1.36142 0
M  V30 2907 H 274.955 -2.42338 1.73426 0
M  V30 2908 H 272.492 -1.18935 0.865613 0
M  V30 2909 H 274.45 -4.17193 -0.0244339 0
M  V30 2910 H 273.08 -3.17535 -0.580628 0
M  V30 2911 H 272.132 -3.33258 1.83422 0
M  V30 2912 H 273.444 -4.47141 2.21058 0
M  V30 2913 H 272.598 -6.04942 0.461515 0
M  V30 2914 H 271.337 -4.87698 -0.013932 0
M  V30 2915 H 270.342 -4.99946 2.28767 0
M  V30 2916 H 271.567 -6.20592 2.75758 0
M  V30 2917 H 269.513 -6.53788 0.538254 0
M  V30 2918 H 269.43 -7.25898 2.11208 0
M  V30 2919 H 270.698 -7.72806 1.01933 0
M  V30 2920 N 274.927 -0.932562 -1.27047 0
M  V30 2921 C 276.204 -0.49377 -1.89265 0
M  V30 2922 C 276.584 1.02833 -1.8436 0
M  V30 2923 O 275.932 1.88461 -1.29209 0
M  V30 2924 C 276.142 -1.04536 -3.32976 0
M  V30 2925 C 277.49 -1.10879 -4.09867 0
M  V30 2926 O 278.514 -0.995327 -3.42011 0
M  V30 2927 O 277.373 -1.28417 -5.31198 0
M  V30 2928 H 274.467 -0.159596 -0.811454 0
M  V30 2929 H 277.013 -1.02457 -1.3528 0
M  V30 2930 H 275.785 -2.08913 -3.30864 0
M  V30 2931 H 275.408 -0.496494 -3.94488 0
M  V30 2932 N 276.405 1.4127 -0.698611 0
M  V30 2933 C 277.633 2.05503 -0.239992 0
M  V30 2934 C 278.048 1.52584 1.11191 0
M  V30 2935 O 277.405 0.675323 1.69545 0
M  V30 2936 C 277.456 3.60987 -0.192429 0
M  V30 2937 O 277.177 4.1195 -1.49094 0
M  V30 2938 C 278.678 4.42371 0.28681 0
M  V30 2939 H 275.898 0.661748 -0.111045 0
M  V30 2940 H 278.442 1.80987 -0.95205 0
M  V30 2941 H 276.597 3.84533 0.470472 0
M  V30 2942 H 277.011 5.06018 -1.38007 0
M  V30 2943 H 278.485 5.51344 0.26896 0
M  V30 2944 H 278.962 4.18699 1.32619 0
M  V30 2945 H 279.568 4.23897 -0.345201 0
M  V30 2946 N 277.883 0.443576 1.51229 0
M  V30 2947 C 278.813 -0.355142 2.30783 0
M  V30 2948 C 279.794 -1.0154 1.36468 0
M  V30 2949 O 280.979 -1.01785 1.65389 0
M  V30 2950 C 278.109 -1.45312 3.15439 0
M  V30 2951 C 277.063 -0.916002 4.18083 0
M  V30 2952 C 276.389 -2.1102 4.91299 0
M  V30 2953 C 277.689 0.0538602 5.22272 0
M  V30 2954 H 279.383 0.308767 2.97804 0
M  V30 2955 H 276.929 0.149937 1.43217 0
M  V30 2956 H 278.882 -2.01914 3.69876 0
M  V30 2957 H 277.606 -2.14541 2.46252 0
M  V30 2958 H 276.265 -0.372145 3.64706 0
M  V30 2959 H 275.913 -2.78882 4.18609 0
M  V30 2960 H 275.613 -1.75717 5.60712 0
M  V30 2961 H 277.137 -2.68164 5.48562 0
M  V30 2962 H 278.551 -0.422069 5.71744 0
M  V30 2963 H 276.948 0.319776 5.99247 0
M  V30 2964 H 278.018 0.98858 4.74716 0
M  V30 2965 N 279.361 -1.56624 0.175154 0
M  V30 2966 C 280.586 -2.01813 -0.478137 0
M  V30 2967 C 281.011 -1.05457 -1.55757 0
M  V30 2968 O 280.369 -0.0347439 -1.81267 0
M  V30 2969 C 280.417 -3.45581 -1.02987 0
M  V30 2970 O 279.521 -3.52305 -2.14371 0
M  V30 2971 H 278.862 -0.65413 -0.114059 0
M  V30 2972 H 281.392 -2.02673 0.280173 0
M  V30 2973 H 281.402 -3.84965 -1.35151 0
M  V30 2974 H 280.077 -4.1521 -0.239556 0
M  V30 2975 H 278.654 -3.24783 -1.83222 0
M  V30 2976 N 280.839 0.0985539 -1.57292 0
M  V30 2977 C 282.085 0.803867 -1.86188 0
M  V30 2978 C 282.418 1.78549 -0.763794 0
M  V30 2979 O 281.693 1.93153 0.22855 0
M  V30 2980 C 281.976 1.53568 -3.25713 0
M  V30 2981 C 281.829 0.572277 -4.46145 0
M  V30 2982 C 283.148 2.48708 -3.63087 0
M  V30 2983 H 280.267 0.290781 -0.677211 0
M  V30 2984 H 282.909 0.0675783 -1.8988 0
M  V30 2985 H 281.059 2.16332 -3.22696 0
M  V30 2986 H 282.731 -0.0480894 -4.61275 0
M  V30 2987 H 280.974 -0.114618 -4.33649 0
M  V30 2988 H 281.645 1.12139 -5.40489 0
M  V30 2989 H 284.121 1.96039 -3.67026 0
M  V30 2990 H 282.997 2.96932 -4.61652 0
M  V30 2991 H 283.258 3.32309 -2.91588 0
M  V30 2992 N 282.317 1.53212 0.369288 0
M  V30 2993 C 283.733 1.42902 0.710712 0
M  V30 2994 C 283.933 0.565135 1.93413 0
M  V30 2995 O 282.989 0.0461484 2.52458 0
M  V30 2996 C 284.302 2.86042 0.927382 0
M  V30 2997 C 285.85 2.9565 1.02762 0
M  V30 2998 C 286.325 4.39843 1.27679 0
M  V30 2999 N 287.816 4.43256 1.34457 0
M  V30 3000 C 288.551 5.51929 1.55439 0
M  V30 3001 N 288.047 6.70655 1.73762 0
M  V30 3002 N 289.84 5.39502 1.57779 0
M  V30 3003 H 281.991 2.07888 -0.435457 0
M  V30 3004 H 284.254 0.938661 -0.132739 0
M  V30 3005 H 283.96 3.51557 0.100287 0
M  V30 3006 H 283.834 3.29472 1.83653 0
M  V30 3007 H 286.221 2.30291 1.84527 0
M  V30 3008 H 286.302 2.5562 0.0959504 0
M  V30 3009 H 285.946 5.05774 0.464175 0
M  V30 3010 H 285.876 4.77443 2.22162 0
M  V30 3011 H 288.367 3.5769 1.21926 0
M  V30 3012 H 288.68 7.49248 1.89335 0
M  V30 3013 H 287.025 6.73648 1.70948 0
M  V30 3014 H 290.216 4.45713 1.43029 0
M  V30 3015 H 290.389 6.2426 1.7379 0
M  V30 3016 N 283.795 -0.628877 1.44509 0
M  V30 3017 C 284.728 -1.75367 1.46019 0
M  V30 3018 C 285.706 -1.59444 0.318787 0
M  V30 3019 O 286.89 -1.81297 0.516099 0
M  V30 3020 C 284.017 -3.12965 1.29501 0
M  V30 3021 C 283.063 -3.47532 2.47233 0
M  V30 3022 S 283.896 -3.44758 4.09758 0
M  V30 3023 C 285.052 -4.84973 3.95667 0
M  V30 3024 H 285.285 -1.7382 2.41193 0
M  V30 3025 H 282.818 -0.803686 1.31834 0
M  V30 3026 H 284.776 -3.92367 1.20658 0
M  V30 3027 H 283.437 -3.12049 0.358341 0
M  V30 3028 H 282.63 -4.47664 2.31544 0
M  V30 3029 H 282.232 -2.75598 2.52828 0
M  V30 3030 H 284.524 -5.74255 3.59496 0
M  V30 3031 H 285.467 -5.05716 4.95638 0
M  V30 3032 H 285.875 -4.59653 3.27688 0
M  V30 3033 N 285.273 -1.31445 -0.869486 0
M  V30 3034 C 286.203 -1.21727 -1.99261 0
M  V30 3035 C 287.184 -0.104359 -1.6978 0
M  V30 3036 O 288.369 -0.289038 -1.92037 0
M  V30 3037 C 285.499 -0.924317 -3.34774 0
M  V30 3038 C 284.453 -1.99685 -3.78563 0
M  V30 3039 C 283.779 -1.55658 -5.11541 0
M  V30 3040 C 285.079 -3.41003 -3.95619 0
M  V30 3041 H 286.773 -2.1569 -2.07649 0
M  V30 3042 H 284.319 -1.03839 -0.997675 0
M  V30 3043 H 286.272 -0.842934 -4.12883 0
M  V30 3044 H 284.996 0.0509793 -3.2656 0
M  V30 3045 H 283.655 -2.06813 -3.02694 0
M  V30 3046 H 283.303 -0.569132 -4.9977 0
M  V30 3047 H 283.003 -2.27409 -5.41811 0
M  V30 3048 H 284.527 -1.48928 -5.92159 0
M  V30 3049 H 285.941 -3.36547 -4.64122 0
M  V30 3050 H 284.338 -4.10975 -4.37286 0
M  V30 3051 H 285.408 -3.81754 -2.98985 0
M  V30 3052 N 286.751 1.08385 -1.14413 0
M  V30 3053 C 288.028 1.77429 -0.823297 0
M  V30 3054 C 288.408 1.9974 0.683163 0
M  V30 3055 O 287.756 1.60739 1.62405 0
M  V30 3056 C 287.966 3.09004 -1.62227 0
M  V30 3057 C 289.314 3.83532 -1.82177 0
M  V30 3058 O 290.338 3.18786 -1.58915 0
M  V30 3059 O 289.197 4.99792 -2.21067 0
M  V30 3060 H 286.291 0.769999 -0.301712 0
M  V30 3061 H 288.837 1.14846 -1.24934 0
M  V30 3062 H 287.609 2.88316 -2.64555 0
M  V30 3063 H 287.232 3.79316 -1.19187 0
M  V30 3064 N 288.23 0.939286 1.26551 0
M  V30 3065 C 289.507 0.5038 1.89001 0
M  V30 3066 C 289.887 -1.01854 1.84903 0
M  V30 3067 O 289.235 -1.87773 1.30206 0
M  V30 3068 C 289.445 1.063 3.32417 0
M  V30 3069 C 290.793 1.13051 4.09273 0
M  V30 3070 O 291.817 1.01345 3.41479 0
M  V30 3071 O 290.676 1.31233 5.30509 0
M  V30 3072 H 287.77 0.163897 0.810597 0
M  V30 3073 H 290.316 1.03173 1.34735 0
M  V30 3074 H 289.088 2.10665 3.29752 0
M  V30 3075 H 288.711 0.517408 3.94219 0
M  V30 3076 N 289.708 -1.40897 0.706093 0
M  V30 3077 C 290.936 -2.05373 0.250887 0
M  V30 3078 C 291.351 -1.53172 -1.10381 0
M  V30 3079 O 290.708 -0.684305 -1.69185 0
M  V30 3080 C 290.759 -3.6088 0.211571 0
M  V30 3081 O 290.48 -4.11153 1.51276 0
M  V30 3082 C 291.981 -4.42517 -0.263346 0
M  V30 3083 H 289.201 -0.66115 0.114552 0
M  V30 3084 H 291.745 -1.80479 0.961635 0
M  V30 3085 H 289.9 -3.84777 -0.450073 0
M  V30 3086 H 290.314 -5.05279 1.40689 0
M  V30 3087 H 291.788 -5.51479 -0.239718 0
M  V30 3088 H 292.265 -4.19396 -1.30397 0
M  V30 3089 H 292.871 -4.23708 0.367677 0
M  V30 3090 N 291.186 -0.45159 -1.50991 0
M  V30 3091 C 292.602 -0.104647 -1.59257 0
M  V30 3092 C 292.802 1.38728 -1.4614 0
M  V30 3093 O 291.858 2.15866 -1.30989 0
M  V30 3094 C 293.171 -0.637468 -2.93865 0
M  V30 3095 C 294.719 -0.599166 -3.07212 0
M  V30 3096 C 295.194 -1.1092 -4.44366 0
M  V30 3097 N 296.685 -1.06778 -4.50725 0
M  V30 3098 C 297.42 -1.43314 -5.55201 0
M  V30 3099 N 296.916 -1.87204 -6.67028 0
M  V30 3100 N 298.709 -1.3504 -5.45638 0
M  V30 3101 H 290.86 -1.42214 -1.57762 0
M  V30 3102 H 293.123 -0.586921 -0.744465 0
M  V30 3103 H 292.829 -1.68187 -3.08879 0
M  V30 3104 H 292.703 -0.0702139 -3.77135 0
M  V30 3105 H 295.09 0.436277 -2.91857 0
M  V30 3106 H 295.171 -1.20299 -2.25747 0
M  V30 3107 H 294.815 -2.14318 -4.60467 0
M  V30 3108 H 294.745 -0.481773 -5.24392 0
M  V30 3109 H 297.236 -0.745643 -3.70471 0
M  V30 3110 H 297.549 -2.13282 -7.42786 0
M  V30 3111 H 295.894 -1.91142 -6.68199 0
M  V30 3112 H 299.085 -1.00607 -4.57161 0
M  V30 3113 H 299.258 -1.63841 -6.26945 0
M  V30 3114 N 292.664 1.56529 -0.183458 0
M  V30 3115 C 293.941 1.88959 0.50536 0
M  V30 3116 C 294.321 1.09523 1.80466 0
M  V30 3117 O 293.669 0.19278 2.27685 0
M  V30 3118 C 293.879 3.41162 0.73547 0
M  V30 3119 C 295.227 4.11155 1.06005 0
M  V30 3120 O 296.251 3.46548 0.823594 0
M  V30 3121 O 295.11 5.25318 1.50675 0
M  V30 3122 H 292.204 0.78441 0.261973 0
M  V30 3123 H 294.75 1.68231 -0.222802 0
M  V30 3124 H 293.522 3.90874 -0.182561 0
M  V30 3125 H 293.145 3.67543 1.51651 0
M  V30 3126 N 294.142 -0.090211 1.57342 0
M  V30 3127 C 295.553 -0.644173 1.75235 0
M  V30 3128 C 295.904 -1.78865 0.806335 0
M  V30 3129 O 295.029 -2.16395 -0.0140128 0
M  V30 3130 C 295.624 -1.17532 3.1776 0
M  V30 3131 C 294.183 -1.67531 3.37061 0
M  V30 3132 C 293.33 -0.58693 2.71017 0
M  V30 3133 H 296.281 0.135884 1.58117 0
M  V30 3134 H 296.302 -2.04455 3.20902 0
M  V30 3135 H 295.814 -0.342138 3.86589 0
M  V30 3136 H 293.915 -2.53234 2.73319 0
M  V30 3137 H 294.028 -1.76493 4.45406 0
M  V30 3138 H 292.392 -1.02756 2.33052 0
M  V30 3139 H 293.175 0.235758 3.4249 0
M  V30 3140 N 295.62 -1.53406 -0.361157 0
M  V30 3141 C 296.848 -1.73717 -1.12383 0
M  V30 3142 C 297.263 -0.468161 -1.82904 0
M  V30 3143 O 296.62 0.559198 -1.73722 0
M  V30 3144 C 296.671 -2.90558 -2.15078 0
M  V30 3145 O 296.392 -4.12549 -1.47428 0
M  V30 3146 C 297.893 -3.22777 -3.03858 0
M  V30 3147 H 295.113 -0.580896 -0.335858 0
M  V30 3148 H 297.657 -2.00167 -0.418728 0
M  V30 3149 H 295.812 -2.66489 -2.8118 0
M  V30 3150 H 296.226 -4.78009 -2.15887 0
M  V30 3151 H 297.7 -4.07927 -3.71887 0
M  V30 3152 H 298.177 -2.38329 -3.68912 0
M  V30 3153 H 298.783 -3.48787 -2.43367 0
M  V30 3154 N 297.098 0.621204 -1.44841 0
M  V30 3155 C 298.509 1.20298 -1.42777 0
M  V30 3156 C 298.86 1.95639 -0.148259 0
M  V30 3157 O 297.985 2.02955 0.750892 0
M  V30 3158 C 298.58 2.1882 -2.58657 0
M  V30 3159 C 297.139 2.72403 -2.59756 0
M  V30 3160 C 296.286 1.4757 -2.34773 0
M  V30 3161 H 299.237 0.411297 -1.53278 0
M  V30 3162 H 299.258 3.01607 -2.31977 0
M  V30 3163 H 298.77 1.63957 -3.51766 0
M  V30 3164 H 296.871 3.31242 -1.70615 0
M  V30 3165 H 296.984 3.17765 -3.58556 0
M  V30 3166 H 295.348 1.76051 -1.8406 0
M  V30 3167 H 296.131 0.945954 -3.3001 0
M  V30 3168 N 298.576 1.31904 0.862503 0
M  V30 3169 C 299.506 1.22782 1.98612 0
M  V30 3170 C 300.487 0.113362 1.69722 0
M  V30 3171 O 301.672 0.299218 1.91881 0
M  V30 3172 C 298.802 0.942058 3.34279 0
M  V30 3173 C 297.756 2.0169 3.77499 0
M  V30 3174 C 297.082 1.58369 5.10709 0
M  V30 3175 C 298.382 3.43096 3.93805 0
M  V30 3176 H 300.076 2.16788 2.06502 0
M  V30 3177 H 297.622 1.04366 0.992154 0
M  V30 3178 H 299.575 0.864818 4.1243 0
M  V30 3179 H 298.299 -0.0336603 3.26583 0
M  V30 3180 H 296.958 2.08416 3.01593 0
M  V30 3181 H 296.606 0.595628 4.99461 0
M  V30 3182 H 296.306 2.30279 5.40597 0
M  V30 3183 H 297.83 1.52067 5.91361 0
M  V30 3184 H 299.244 3.39003 4.62331 0
M  V30 3185 H 297.641 4.13288 4.35101 0
M  V30 3186 H 298.711 3.83334 2.96957 0
M  V30 3187 N 300.054 -1.07777 1.14986 0
M  V30 3188 C 300.984 -2.16865 0.865557 0
M  V30 3189 C 301.965 -1.69123 -0.182083 0
M  V30 3190 O 303.15 -1.94164 -0.0373815 0
M  V30 3191 C 300.28 -3.45539 0.349313 0
M  V30 3192 C 299.234 -4.06708 1.33313 0
M  V30 3193 C 298.56 -5.30411 0.675918 0
M  V30 3194 C 299.86 -4.47241 2.69764 0
M  V30 3195 H 301.554 -2.40905 1.77778 0
M  V30 3196 H 299.1 -1.15781 0.856203 0
M  V30 3197 H 301.053 -4.21174 0.137983 0
M  V30 3198 H 299.777 -3.21072 -0.598362 0
M  V30 3199 H 298.436 -3.33112 1.53075 0
M  V30 3200 H 298.084 -5.02232 -0.277767 0
M  V30 3201 H 297.784 -5.72293 1.33244 0
M  V30 3202 H 299.308 -6.08755 0.474262 0
M  V30 3203 H 300.722 -5.14025 2.53873 0
M  V30 3204 H 299.119 -5.00062 3.3175 0
M  V30 3205 H 300.189 -3.58818 3.26156 0
M  V30 3206 N 301.532 -0.945985 -1.26051 0
M  V30 3207 C 302.479 -0.45809 -2.26208 0
M  V30 3208 C 303.449 0.484816 -1.58867 0
M  V30 3209 O 304.634 0.399969 -1.86561 0
M  V30 3210 C 301.774 0.266131 -3.44072 0
M  V30 3211 C 300.887 -0.713005 -4.26075 0
M  V30 3212 C 300.022 0.0329013 -5.3119 0
M  V30 3213 C 299.061 -0.93774 -6.04874 0
M  V30 3214 N 298.198 -0.223274 -7.01745 0
M  V30 3215 H 303.038 -1.3171 -2.67313 0
M  V30 3216 H 300.575 -0.66069 -1.31428 0
M  V30 3217 H 302.533 0.702514 -4.11243 0
M  V30 3218 H 301.163 1.08925 -3.03867 0
M  V30 3219 H 300.215 -1.26789 -3.58648 0
M  V30 3220 H 301.527 -1.45406 -4.77136 0
M  V30 3221 H 300.681 0.528335 -6.04395 0
M  V30 3222 H 299.42 0.806801 -4.8098 0
M  V30 3223 H 298.425 -1.44425 -5.30492 0
M  V30 3224 H 299.65 -1.71172 -6.57173 0
M  V30 3225 H 297.596 0.532046 -6.53839 0
M  V30 3226 H 297.513 -0.90357 -7.50581 0
M  V30 3227 H 298.781 0.250907 -7.79096 0
M  V30 3228 N 303.011 1.40521 -0.713556 0
M  V30 3229 C 303.921 2.34522 -0.0606667 0
M  V30 3230 C 304.937 1.57193 0.74607 0
M  V30 3231 O 306.113 1.89591 0.679493 0
M  V30 3232 C 303.178 3.36081 0.851491 0
M  V30 3233 C 302.239 4.29286 0.0349339 0
M  V30 3234 C 301.472 5.25994 0.903649 0
M  V30 3235 O 301.695 5.28616 2.14292 0
M  V30 3236 O 300.629 6.00918 0.343723 0
M  V30 3237 H 304.455 2.91968 -0.835972 0
M  V30 3238 H 302.04 1.41681 -0.47402 0
M  V30 3239 H 303.922 3.98369 1.37404 0
M  V30 3240 H 302.597 2.81052 1.60598 0
M  V30 3241 H 301.504 3.70289 -0.532633 0
M  V30 3242 H 302.837 4.87462 -0.681287 0
M  V30 3243 N 304.489 0.459591 1.5075 0
M  V30 3244 C 305.738 -0.100971 2.01447 0
M  V30 3245 C 306.051 -1.41816 1.34713 0
M  V30 3246 O 307.257 -2.06299 1.76502 0
M  V30 3247 C 305.713 -0.23047 3.59161 0
M  V30 3248 C 305.321 1.0776 4.34847 0
M  V30 3249 C 307.065 -0.743608 4.17936 0
M  V30 3250 C 304.972 0.91253 5.84317 0
M  V30 3251 H 303.902 -0.0415102 0.752856 0
M  V30 3252 H 306.553 0.592742 1.73663 0
M  V30 3253 H 304.935 -0.987703 3.83485 0
M  V30 3254 H 306.109 1.8449 4.22256 0
M  V30 3255 H 304.424 1.52097 3.87628 0
M  V30 3256 H 307.021 -0.883959 5.27343 0
M  V30 3257 H 307.364 -1.73196 3.78562 0
M  V30 3258 H 307.897 -0.04408 3.97776 0
M  V30 3259 H 304.636 1.87391 6.28144 0
M  V30 3260 H 304.156 0.185422 5.99513 0
M  V30 3261 H 305.835 0.574547 6.44444 0
M  V30 3262 N 305.967 -1.56429 0.191757 0
M  V30 3263 C 307.383 -1.58754 -0.164137 0
M  V30 3264 C 307.583 -1.20782 -1.61288 0
M  V30 3265 O 306.639 -0.928999 -2.34789 0
M  V30 3266 C 307.952 -3.00396 0.135195 0
M  V30 3267 C 309.5 -3.1291 0.0750351 0
M  V30 3268 C 309.975 -4.56679 0.347632 0
M  V30 3269 N 311.466 -4.62252 0.296131 0
M  V30 3270 C 312.201 -5.71379 0.480948 0
M  V30 3271 N 311.697 -6.88986 0.725933 0
M  V30 3272 N 313.49 -5.60563 0.415435 0
M  V30 3273 H 305.641 -1.79393 1.13718 0
M  V30 3274 H 307.904 -0.832414 0.453643 0
M  V30 3275 H 307.61 -3.32726 1.13958 0
M  V30 3276 H 307.484 -3.72963 -0.563773 0
M  V30 3277 H 309.871 -2.80394 -0.919948 0
M  V30 3278 H 309.952 -2.42736 0.807029 0
M  V30 3279 H 309.596 -4.89907 1.33992 0
M  V30 3280 H 309.526 -5.25039 -0.405212 0
M  V30 3281 H 312.017 -3.7773 0.113259 0
M  V30 3282 H 312.33 -7.68046 0.855857 0
M  V30 3283 H 310.675 -6.90801 0.762788 0
M  V30 3284 H 313.866 -4.67561 0.224486 0
M  V30 3285 H 314.039 -6.45551 0.562889 0
M  V30 3286 N 307.445 0.0818655 -1.57387 0
M  V30 3287 C 308.722 0.815343 -1.77796 0
M  V30 3288 C 309.102 1.96289 -0.77679 0
M  V30 3289 O 308.45 2.27691 0.192106 0
M  V30 3290 C 308.66 1.29765 -3.23978 0
M  V30 3291 C 310.008 1.7351 -3.8753 0
M  V30 3292 O 311.032 1.39356 -3.27808 0
M  V30 3293 O 309.891 2.36708 -4.92576 0
M  V30 3294 H 306.985 0.389914 -0.729312 0
M  V30 3295 H 309.531 0.0627213 -1.69584 0
M  V30 3296 H 308.303 0.47608 -3.88393 0
M  V30 3297 H 307.926 2.11189 -3.36875 0
M  V30 3298 N 308.923 1.53595 0.353017 0
M  V30 3299 C 310.2 1.61002 1.11075 0
M  V30 3300 C 310.58 0.425356 2.0677 0
M  V30 3301 O 309.928 -0.583267 2.2093 0
M  V30 3302 C 310.138 2.96631 1.83877 0
M  V30 3303 C 311.486 3.51653 2.37961 0
M  V30 3304 O 312.51 2.98743 1.93987 0
M  V30 3305 O 311.369 4.44177 3.18386 0
M  V30 3306 H 308.463 0.650825 0.510251 0
M  V30 3307 H 311.009 1.6594 0.35527 0
M  V30 3308 H 309.781 3.74293 1.14108 0
M  V30 3309 H 309.404 2.95242 2.66304 0
M  V30 3310 N 310.401 -0.613514 1.45168 0
M  V30 3311 C 311.348 -1.72456 1.53387 0
M  V30 3312 C 312.318 -1.6169 0.380191 0
M  V30 3313 O 313.503 -1.81356 0.592836 0
M  V30 3314 C 310.643 -3.10753 1.50088 0
M  V30 3315 C 309.756 -3.32368 2.75963 0
M  V30 3316 C 308.891 -4.60737 2.64376 0
M  V30 3317 C 307.93 -4.7559 3.85332 0
M  V30 3318 N 307.067 -5.95253 3.72315 0
M  V30 3319 H 311.907 -1.64768 2.48305 0
M  V30 3320 H 309.444 -0.803503 1.23216 0
M  V30 3321 H 311.402 -3.90758 1.46164 0
M  V30 3322 H 310.032 -3.17413 0.587243 0
M  V30 3323 H 309.084 -2.4618 2.89999 0
M  V30 3324 H 310.396 -3.39218 3.65695 0
M  V30 3325 H 309.55 -5.48928 2.58385 0
M  V30 3326 H 308.289 -4.56275 1.72233 0
M  V30 3327 H 307.294 -3.85824 3.91688 0
M  V30 3328 H 308.519 -4.81854 4.78533 0
M  V30 3329 H 306.465 -5.91847 2.82937 0
M  V30 3330 H 306.382 -6.03236 4.55677 0
M  V30 3331 H 307.65 -6.85958 3.70246 0
M  V30 3332 N 311.879 -1.3236 -0.855495 0
M  V30 3333 C 313.107 -1.2587 -1.64208 0
M  V30 3334 C 313.522 0.173457 -1.88002 0
M  V30 3335 O 312.879 1.11027 -1.44842 0
M  V30 3336 C 312.93 -2.01424 -3.00184 0
M  V30 3337 O 312.651 -3.39051 -2.77445 0
M  V30 3338 C 314.152 -2.01948 -3.94629 0
M  V30 3339 H 311.372 -0.434318 -0.511477 0
M  V30 3340 H 313.916 -1.74469 -1.0668 0
M  V30 3341 H 312.071 -1.56549 -3.5436 0
M  V30 3342 H 312.485 -3.77711 -3.63916 0
M  V30 3343 H 313.959 -2.59297 -4.87308 0
M  V30 3344 H 314.436 -1.00554 -4.27534 0
M  V30 3345 H 315.042 -2.46767 -3.4639 0
M  V30 3346 N 313.357 1.07166 -1.15556 0
M  V30 3347 C 314.32 2.12589 -0.856644 0
M  V30 3348 C 315.32 1.6015 0.14444 0
M  V30 3349 O 316.51 1.7399 -0.0854163 0
M  V30 3350 C 313.642 3.39753 -0.279405 0
M  V30 3351 H 314.835 2.40539 -1.79112 0
M  V30 3352 H 312.388 1.23086 -0.963298 0
M  V30 3353 H 313.123 3.17447 0.663174 0
M  V30 3354 H 312.908 3.79117 -1.00063 0
M  V30 3355 H 314.398 4.17507 -0.0879113 0
M  V30 3356 N 314.835 0.952656 1.25548 0
M  V30 3357 C 316.063 0.623496 1.97282 0
M  V30 3358 C 316.478 -0.803987 1.70826 0
M  V30 3359 O 315.835 -1.53755 0.983147 0
M  V30 3360 C 315.886 0.870209 3.5087 0
M  V30 3361 O 315.607 2.24156 3.76412 0
M  V30 3362 C 317.108 0.553164 4.39835 0
M  V30 3363 H 314.328 0.233931 0.628902 0
M  V30 3364 H 316.872 1.27649 1.59768 0
M  V30 3365 H 315.027 0.263652 3.86502 0
M  V30 3366 H 315.441 2.31021 4.70882 0
M  V30 3367 H 316.915 0.776342 5.46513 0
M  V30 3368 H 317.392 -0.512215 4.36203 0
M  V30 3369 H 317.998 1.13896 4.09766 0
M  V30 3370 N 316.313 -1.40141 0.720998 0
M  V30 3371 C 317.562 -2.0002 0.259804 0
M  V30 3372 C 317.875 -1.57839 -1.15526 0
M  V30 3373 O 319.081 -2.10455 -1.71525 0
M  V30 3374 C 317.537 -3.57516 0.413566 0
M  V30 3375 C 317.145 -4.08667 1.83562 0
M  V30 3376 C 318.889 -4.24498 0.0134387 0
M  V30 3377 C 316.796 -5.58686 1.93968 0
M  V30 3378 H 315.726 -0.748195 0.0933806 0
M  V30 3379 H 318.377 -1.60313 0.892866 0
M  V30 3380 H 316.759 -3.9495 -0.288169 0
M  V30 3381 H 317.933 -3.82598 2.56817 0
M  V30 3382 H 316.248 -3.543 2.1877 0
M  V30 3383 H 318.845 -5.34654 0.0703954 0
M  V30 3384 H 319.188 -4.03375 -1.02927 0
M  V30 3385 H 319.721 -3.92188 0.665815 0
M  V30 3386 H 316.46 -5.8467 2.96379 0
M  V30 3387 H 315.98 -5.86602 1.25131 0
M  V30 3388 H 317.659 -6.23875 1.71431 0
M  V30 3389 N 317.792 -0.46758 -1.50504 0
M  V30 3390 C 319.041 0.0902868 -2.01498 0
M  V30 3391 C 319.354 1.411 -1.35463 0
M  V30 3392 O 320.56 2.0536 -1.77594 0
M  V30 3393 C 319.016 0.21142 -3.59278 0
M  V30 3394 C 318.624 -1.10065 -4.34269 0
M  V30 3395 C 320.368 0.721433 -4.18325 0
M  V30 3396 C 318.275 -0.943505 -5.83825 0
M  V30 3397 H 317.205 0.037517 -0.753066 0
M  V30 3398 H 319.856 -0.601943 -1.73346 0
M  V30 3399 H 318.238 0.967352 -3.84003 0
M  V30 3400 H 319.412 -1.86726 -4.21272 0
M  V30 3401 H 317.727 -1.5415 -3.86816 0
M  V30 3402 H 320.324 0.85598 -5.27804 0
M  V30 3403 H 320.667 1.71186 -3.79475 0
M  V30 3404 H 321.2 0.0229843 -3.97793 0
M  V30 3405 H 317.939 -1.90719 -6.27141 0
M  V30 3406 H 317.459 -0.217213 -5.99407 0
M  V30 3407 H 319.138 -0.608715 -6.4413 0
M  V30 3408 N 319.27 1.56325 -0.20005 0
M  V30 3409 C 320.519 1.96895 0.437652 0
M  V30 3410 C 320.832 1.08999 1.62415 0
M  V30 3411 O 322.038 1.39372 2.32997 0
M  V30 3412 C 320.494 3.50198 0.830025 0
M  V30 3413 C 320.102 4.46765 -0.332461 0
M  V30 3414 C 321.846 3.99526 1.43453 0
M  V30 3415 C 319.753 5.91344 0.0811468 0
M  V30 3416 H 318.683 0.735209 0.167282 0
M  V30 3417 H 321.334 1.81148 -0.292853 0
M  V30 3418 H 319.716 3.61467 1.61734 0
M  V30 3419 H 320.89 4.47231 -1.11 0
M  V30 3420 H 319.205 4.07657 -0.848789 0
M  V30 3421 H 321.802 5.05025 1.75652 0
M  V30 3422 H 322.145 3.44122 2.34277 0
M  V30 3423 H 322.678 3.91393 0.71109 0
M  V30 3424 H 319.417 6.50685 -0.793033 0
M  V30 3425 H 318.937 5.94121 0.823445 0
M  V30 3426 H 320.616 6.44945 0.515252 0
M  V30 3427 N 320.748 -0.0735177 1.57428 0
M  V30 3428 C 321.698 -1.09442 2.00016 0
M  V30 3429 C 322.682 -1.34575 0.881947 0
M  V30 3430 O 323.874 -1.34905 1.14585 0
M  V30 3431 C 321.003 -2.40865 2.4462 0
M  V30 3432 C 320.089 -2.19014 3.63172 0
M  V30 3433 N 320.48 -1.67087 4.77405 0
M  V30 3434 C 318.778 -2.49494 3.69688 0
M  V30 3435 C 319.479 -1.6001 5.5926 0
M  V30 3436 N 318.455 -2.05999 5.03056 0
M  V30 3437 H 322.257 -0.686227 2.85776 0
M  V30 3438 H 319.771 -0.280617 1.59957 0
M  V30 3439 H 321.768 -3.14763 2.73368 0
M  V30 3440 H 320.428 -2.82403 1.60246 0
M  V30 3441 H 321.439 -1.35975 4.99731 0
M  V30 3442 H 318.116 -2.94409 2.96023 0
M  V30 3443 H 319.506 -1.2073 6.60964 0
M  V30 3444 N 322.226 -1.5378 -0.344866 0
M  V30 3445 C 323.189 -1.80981 -1.40637 0
M  V30 3446 C 324.189 -0.680816 -1.45676 0
M  V30 3447 O 325.379 -0.949095 -1.46075 0
M  V30 3448 C 322.511 -1.95063 -2.79577 0
M  V30 3449 H 323.704 -2.75803 -1.17783 0
M  V30 3450 H 321.257 -1.45173 -0.579181 0
M  V30 3451 H 321.992 -1.02379 -3.07716 0
M  V30 3452 H 321.777 -2.77198 -2.77315 0
M  V30 3453 H 323.267 -2.17629 -3.56409 0
M  V30 3454 N 323.704 0.605807 -1.45491 0
M  V30 3455 C 324.652 1.73754 -1.54636 0
M  V30 3456 C 325.646 1.64207 -0.416219 0
M  V30 3457 O 326.852 1.69979 -0.592199 0
M  V30 3458 H 323.227 0.574073 -0.485741 0
M  V30 3459 H 325.198 1.63169 -2.49837 0
M  V30 3460 C 323.947 3.12135 -1.53189 0
M  V30 3461 H 323.27 3.20141 -2.39478 0
M  V30 3462 H 324.71 3.91147 -1.63645 0
M  V30 3463 C 323.169 3.35921 -0.256616 0
M  V30 3464 O 323.699 3.96194 0.662798 0
M  V30 3465 N 321.905 2.90204 -0.151751 0
M  V30 3466 H 321.452 2.41336 -0.90081 0
M  V30 3467 H 321.41 3.06492 0.700699 0
M  V30 3468 N 325.182 1.32811 0.848464 0
M  V30 3469 C 326.145 1.22194 1.9391 0
M  V30 3470 C 327.145 0.143404 1.60159 0
M  V30 3471 O 328.335 0.394253 1.6968 0
M  V30 3472 C 325.467 0.88067 3.29328 0
M  V30 3473 H 326.66 2.19127 2.04752 0
M  V30 3474 H 324.213 1.16731 1.0394 0
M  V30 3475 H 324.948 -0.0865776 3.24184 0
M  V30 3476 H 324.733 1.66052 3.55203 0
M  V30 3477 H 326.223 0.830871 4.09251 0
M  V30 3478 N 326.66 -1.06551 1.16123 0
M  V30 3479 C 327.885 -1.83544 0.965735 0
M  V30 3480 C 328.31 -1.81843 -0.481102 0
M  V30 3481 O 327.668 -1.21732 -1.34354 0
M  V30 3482 C 327.716 -3.28169 1.49457 0
M  V30 3483 O 326.82 -4.0643 0.699157 0
M  V30 3484 H 326.161 -0.568026 0.343864 0
M  V30 3485 H 328.691 -1.34362 1.54299 0
M  V30 3486 H 328.701 -3.78992 1.51092 0
M  V30 3487 H 327.376 -3.28722 2.54784 0
M  V30 3488 H 325.953 -3.65216 0.7531 0
M  V30 3489 N 328.138 -0.959301 -1.25041 0
M  V30 3490 C 329.071 -0.427418 -2.24161 0
M  V30 3491 C 330.049 0.493837 -1.54919 0
M  V30 3492 O 331.233 0.427144 -1.83597 0
M  V30 3493 C 328.36 0.383893 -3.36517 0
M  V30 3494 C 327.406 -0.478431 -4.23808 0
M  V30 3495 S 328.239 -1.91353 -5.00144 0
M  V30 3496 C 329.395 -1.11077 -6.15965 0
M  V30 3497 H 329.628 -1.26743 -2.6893 0
M  V30 3498 H 327.161 -0.763714 -1.34189 0
M  V30 3499 H 329.119 0.846039 -4.01687 0
M  V30 3500 H 327.78 1.19878 -2.90324 0
M  V30 3501 H 326.973 0.14406 -5.03794 0
M  V30 3502 H 326.575 -0.87597 -3.63597 0
M  V30 3503 H 328.867 -0.361699 -6.76534 0
M  V30 3504 H 329.81 -1.88472 -6.82557 0
M  V30 3505 H 330.218 -0.638843 -5.60873 0
M  V30 3506 N 329.616 1.39756 -0.72842 0
M  V30 3507 C 330.841 2.05472 -0.282159 0
M  V30 3508 C 331.266 1.54549 1.07221 0
M  V30 3509 O 330.624 0.686372 1.67805 0
M  V30 3510 C 330.672 3.59462 -0.286264 0
M  V30 3511 O 329.776 4.05918 0.728298 0
M  V30 3512 H 329.117 0.651226 -0.129618 0
M  V30 3513 H 331.647 1.78915 -0.992499 0
M  V30 3514 H 331.657 4.07798 -0.128373 0
M  V30 3515 H 330.332 3.95889 -1.27456 0
M  V30 3516 H 328.909 3.69012 0.537081 0
M  V30 3517 N 331.094 0.475555 1.50254 0
M  V30 3518 C 332.044 -0.335025 2.25525 0
M  V30 3519 C 333.028 -0.957625 1.29299 0
M  V30 3520 O 334.22 -0.869436 1.54175 0
M  V30 3521 C 331.349 -1.41385 3.12834 0
M  V30 3522 C 330.435 -0.798762 4.1651 0
M  V30 3523 N 330.826 0.0835815 5.05731 0
M  V30 3524 C 329.124 -1.06221 4.33166 0
M  V30 3525 C 329.825 0.433113 5.80085 0
M  V30 3526 N 328.801 -0.1928 5.43258 0
M  V30 3527 H 332.603 0.344612 2.91873 0
M  V30 3528 H 330.117 0.289986 1.5979 0
M  V30 3529 H 332.114 -2.00777 3.65368 0
M  V30 3530 H 330.774 -2.09543 2.48036 0
M  V30 3531 H 331.785 0.452715 5.15918 0
M  V30 3532 H 328.462 -1.73844 3.79585 0
M  V30 3533 H 329.852 1.15346 6.61925 0
M  V30 3534 N 332.573 -1.56217 0.208337 0
M  V30 3535 C 333.801 -2.02337 -0.43215 0
M  V30 3536 C 334.216 -1.08834 -1.54275 0
M  V30 3537 O 333.573 -0.0955462 -1.8225 0
M  V30 3538 C 333.624 -3.48072 -0.976138 0
M  V30 3539 O 333.345 -4.38007 0.0901621 0
M  V30 3540 C 334.846 -4.09773 -1.69119 0
M  V30 3541 H 332.066 -0.662385 -0.10718 0
M  V30 3542 H 334.61 -2.01966 0.320923 0
M  V30 3543 H 332.765 -3.49099 -1.67954 0
M  V30 3544 H 333.179 -5.23543 -0.316701 0
M  V30 3545 H 334.653 -5.13556 -2.02397 0
M  V30 3546 H 335.13 -3.53999 -2.59964 0
M  V30 3547 H 335.736 -4.12556 -1.03332 0
M  V30 3548 N 334.051 0.0651679 -1.57465 0
M  V30 3549 C 335.3 0.761916 -1.86756 0
M  V30 3550 C 335.613 1.78406 -0.801925 0
M  V30 3551 O 336.819 2.53084 -0.982885 0
M  V30 3552 C 335.275 1.40603 -3.31299 0
M  V30 3553 C 334.883 0.422115 -4.46007 0
M  V30 3554 C 336.627 2.08476 -3.69781 0
M  V30 3555 C 334.534 1.07252 -5.81593 0
M  V30 3556 H 333.464 0.288308 -0.696702 0
M  V30 3557 H 336.115 0.015344 -1.83494 0
M  V30 3558 H 334.497 2.20109 -3.29193 0
M  V30 3559 H 335.671 -0.343613 -4.59517 0
M  V30 3560 H 333.986 -0.152527 -4.16121 0
M  V30 3561 H 336.583 2.57925 -4.68379 0
M  V30 3562 H 336.926 2.88712 -2.99919 0
M  V30 3563 H 337.459 1.35792 -3.73905 0
M  V30 3564 H 334.198 0.310342 -6.54765 0
M  V30 3565 H 333.718 1.80895 -5.71872 0
M  V30 3566 H 335.397 1.59043 -6.27148 0
M  V30 3567 N 335.529 1.53961 0.336706 0
M  V30 3568 C 336.459 1.85417 1.41925 0
M  V30 3569 C 337.44 0.709856 1.5458 0
M  V30 3570 O 338.625 0.962396 1.68676 0
M  V30 3571 C 335.755 2.06985 2.78881 0
M  V30 3572 C 334.709 3.22813 2.81026 0
M  V30 3573 C 334.035 3.29727 4.20932 0
M  V30 3574 C 335.335 4.60767 2.45949 0
M  V30 3575 H 337.029 2.76079 1.15848 0
M  V30 3576 H 334.575 1.32839 0.555859 0
M  V30 3577 H 336.528 2.27575 3.54665 0
M  V30 3578 H 335.252 1.13061 3.06406 0
M  V30 3579 H 333.911 3.0209 2.07695 0
M  V30 3580 H 333.559 2.33385 4.45579 0
M  V30 3581 H 333.259 4.07566 4.23277 0
M  V30 3582 H 334.783 3.52536 4.98549 0
M  V30 3583 H 336.197 4.81325 3.11446 0
M  V30 3584 H 334.594 5.4106 2.59566 0
M  V30 3585 H 335.664 4.6391 1.41122 0
M  V30 3586 N 337.007 -0.598083 1.45811 0
M  V30 3587 C 337.937 -1.71873 1.58057 0
M  V30 3588 C 338.918 -1.64533 0.431615 0
M  V30 3589 O 340.103 -1.82787 0.65595 0
M  V30 3590 C 337.233 -3.10495 1.55597 0
M  V30 3591 C 336.187 -3.32654 2.69305 0
M  V30 3592 C 335.513 -4.71646 2.51902 0
M  V30 3593 C 336.813 -3.21981 4.11248 0
M  V30 3594 H 338.507 -1.61881 2.51863 0
M  V30 3595 H 336.053 -0.777372 1.21214 0
M  V30 3596 H 338.006 -3.88699 1.6276 0
M  V30 3597 H 336.73 -3.2135 0.583255 0
M  V30 3598 H 335.389 -2.56843 2.61586 0
M  V30 3599 H 335.037 -4.79246 1.52748 0
M  V30 3600 H 334.737 -4.87426 3.2816 0
M  V30 3601 H 336.261 -5.52038 2.60933 0
M  V30 3602 H 337.675 -3.90049 4.20161 0
M  V30 3603 H 336.072 -3.49289 4.87972 0
M  V30 3604 H 337.142 -2.1928 4.32486 0
M  V30 3605 N 338.485 -1.33259 -0.841409 0
M  V30 3606 C 339.432 -1.23302 -1.95103 0
M  V30 3607 C 340.402 -0.112204 -1.65721 0
M  V30 3608 O 341.587 -0.290038 -1.88583 0
M  V30 3609 C 338.727 -0.975583 -3.31023 0
M  V30 3610 C 337.84 -2.18243 -3.72819 0
M  V30 3611 C 336.975 -1.85936 -4.97595 0
M  V30 3612 C 336.014 -3.02866 -5.3192 0
M  V30 3613 N 335.151 -2.70565 -6.47873 0
M  V30 3614 H 339.991 -2.18207 -2.02952 0
M  V30 3615 H 337.528 -1.0851 -0.993173 0
M  V30 3616 H 339.486 -0.80677 -4.09325 0
M  V30 3617 H 338.116 -0.0632755 -3.22738 0
M  V30 3618 H 337.168 -2.46107 -2.90061 0
M  V30 3619 H 338.48 -3.05666 -3.94169 0
M  V30 3620 H 337.634 -1.65684 -5.83638 0
M  V30 3621 H 336.373 -0.957452 -4.78209 0
M  V30 3622 H 335.378 -3.23736 -4.44382 0
M  V30 3623 H 336.603 -3.93809 -5.53255 0
M  V30 3624 H 334.549 -1.8293 -6.29978 0
M  V30 3625 H 334.466 -3.51519 -6.69306 0
M  V30 3626 H 335.734 -2.53774 -7.37034 0
M  V30 3627 N 339.963 1.05934 -1.16686 0
M  V30 3628 C 340.926 2.11669 -0.879144 0
M  V30 3629 C 341.926 1.60294 0.127445 0
M  V30 3630 O 343.116 1.7389 -0.103865 0
M  V30 3631 C 340.248 3.39438 -0.315425 0
M  V30 3632 H 341.441 2.38626 -1.81653 0
M  V30 3633 H 338.994 1.22058 -0.976299 0
M  V30 3634 H 339.729 3.18132 0.629468 0
M  V30 3635 H 339.514 3.78034 -1.04079 0
M  V30 3636 H 341.004 4.17391 -0.132189 0
M  V30 3637 N 341.441 0.965919 1.2453 0
M  V30 3638 C 342.404 0.499547 2.2369 0
M  V30 3639 C 343.404 -0.40294 1.5567 0
M  V30 3640 O 344.594 -0.19865 1.73064 0
M  V30 3641 C 341.726 -0.276792 3.39774 0
M  V30 3642 H 342.919 1.37613 2.66463 0
M  V30 3643 H 340.472 0.750324 1.37112 0
M  V30 3644 H 341.207 -1.17055 3.02438 0
M  V30 3645 H 340.992 0.370826 3.90343 0
M  V30 3646 H 342.482 -0.592175 4.1338 0
M  V30 3647 N 342.919 -1.39368 0.735821 0
M  V30 3648 C 343.829 -2.34395 0.0979693 0
M  V30 3649 C 344.845 -1.58361 -0.720968 0
M  V30 3650 O 346.021 -1.90648 -0.649245 0
M  V30 3651 C 343.086 -3.37393 -0.797916 0
M  V30 3652 C 342.147 -4.29287 0.0333662 0
M  V30 3653 C 341.38 -5.27365 -0.819854 0
M  V30 3654 O 341.603 -5.31959 -2.05855 0
M  V30 3655 O 340.537 -6.01389 -0.248079 0
M  V30 3656 H 344.363 -2.90601 0.882315 0
M  V30 3657 H 341.948 -1.40909 0.4965 0
M  V30 3658 H 343.83 -4.00505 -1.31048 0
M  V30 3659 H 342.505 -2.83571 -1.56106 0
M  V30 3660 H 341.412 -3.69395 0.591475 0
M  V30 3661 H 342.745 -4.86317 0.758752 0
M  V30 3662 N 344.397 -0.483516 -1.5 0
M  V30 3663 C 345.327 0.293829 -2.31644 0
M  V30 3664 C 346.308 0.978864 -1.39112 0
M  V30 3665 O 347.493 0.973644 -1.68029 0
M  V30 3666 C 344.623 1.36897 -3.19181 0
M  V30 3667 C 343.577 0.804833 -4.20365 0
M  V30 3668 C 342.903 1.9792 -4.96721 0
M  V30 3669 C 344.203 -0.192313 -5.21946 0
M  V30 3670 H 345.897 -0.387616 -2.9688 0
M  V30 3671 H 343.443 -0.187856 -1.42769 0
M  V30 3672 H 345.396 1.92037 -3.751 0
M  V30 3673 H 344.12 2.07936 -2.51853 0
M  V30 3674 H 342.779 0.275319 -3.65565 0
M  V30 3675 H 342.427 2.67686 -4.25856 0
M  V30 3676 H 342.127 1.60789 -5.65173 0
M  V30 3677 H 343.651 2.53526 -5.55479 0
M  V30 3678 H 345.065 0.270333 -5.72662 0
M  V30 3679 H 343.462 -0.478543 -5.98189 0
M  V30 3680 H 344.532 -1.11409 -4.71928 0
M  V30 3681 N 345.875 1.56104 -0.216619 0
M  V30 3682 C 347.123 1.97781 0.415593 0
M  V30 3683 C 347.444 1.10536 1.60645 0
M  V30 3684 O 346.714 0.181303 1.95059 0
M  V30 3685 H 345.294 0.730415 0.156534 0
M  V30 3686 H 347.956 1.92445 -0.308366 0
M  V30 3687 H 347.052 3.03072 0.74525 0
M  V30 3688 N 347.353 -0.0568162 1.57498 0
M  V30 3689 C 348.286 -1.09817 2.00039 0
M  V30 3690 C 349.264 -1.3674 0.879819 0
M  V30 3691 O 350.448 -1.49863 1.14338 0
M  V30 3692 C 347.575 -2.43924 2.34986 0
M  V30 3693 C 346.621 -2.33039 3.57204 0
M  V30 3694 S 347.454 -1.7102 5.07457 0
M  V30 3695 C 348.61 -3.06674 5.45621 0
M  V30 3696 H 348.843 -0.735701 2.88053 0
M  V30 3697 H 346.376 -0.265871 1.52094 0
M  V30 3698 H 348.334 -3.2106 2.55795 0
M  V30 3699 H 346.995 -2.77327 1.47474 0
M  V30 3700 H 346.188 -3.31973 3.79223 0
M  V30 3701 H 345.79 -1.64043 3.36104 0
M  V30 3702 H 348.082 -4.03 5.44608 0
M  V30 3703 H 349.025 -2.8942 6.46252 0
M  V30 3704 H 349.433 -3.07969 4.73091 0
M  V30 3705 N 348.832 -1.54138 -0.328536 0
M  V30 3706 C 350.078 -1.7236 -1.06865 0
M  V30 3707 C 350.411 -0.493231 -1.87832 0
M  V30 3708 O 349.686 0.5098 -1.877 0
M  V30 3709 C 349.969 -2.99621 -1.99747 0
M  V30 3710 C 349.822 -4.32899 -1.22143 0
M  V30 3711 C 351.141 -3.22615 -2.99345 0
M  V30 3712 H 348.26 -0.627151 -0.387105 0
M  V30 3713 H 350.902 -1.86827 -0.345767 0
M  V30 3714 H 349.052 -2.87418 -2.61387 0
M  V30 3715 H 350.724 -4.56978 -0.630017 0
M  V30 3716 H 348.967 -4.30628 -0.523628 0
M  V30 3717 H 349.638 -5.18154 -1.90318 0
M  V30 3718 H 352.114 -3.34248 -2.47826 0
M  V30 3719 H 350.99 -4.13027 -3.61524 0
M  V30 3720 H 351.251 -2.3961 -3.71536 0
M  V30 3721 N 350.31 0.590341 -1.46126 0
M  V30 3722 C 351.535 1.37991 -1.54833 0
M  V30 3723 C 351.96 1.87163 -0.187506 0
M  V30 3724 O 351.318 1.61133 0.831008 0
M  V30 3725 C 351.366 2.54867 -2.55098 0
M  V30 3726 O 350.47 3.56061 -2.08073 0
M  V30 3727 H 349.811 0.411265 -0.521303 0
M  V30 3728 H 352.341 0.716819 -1.91632 0
M  V30 3729 H 352.351 3.01886 -2.74461 0
M  V30 3730 H 351.026 2.18429 -3.53923 0
M  V30 3731 H 349.603 3.15574 -1.98664 0
M  V30 3732 N 351.788 1.33704 0.83433 0
M  V30 3733 C 352.751 1.24244 1.92603 0
M  V30 3734 C 353.751 0.160383 1.59998 0
M  V30 3735 O 354.941 0.412228 1.69252 0
M  V30 3736 C 352.073 0.91555 3.28376 0
M  V30 3737 H 353.266 2.21287 2.02416 0
M  V30 3738 H 350.819 1.17827 1.02696 0
M  V30 3739 H 351.554 -0.0521886 3.24258 0
M  V30 3740 H 351.339 1.69811 3.53422 0
M  V30 3741 H 352.829 0.874231 4.08347 0
M  V30 3742 N 353.266 -1.05314 1.17247 0
M  V30 3743 C 354.496 -1.81707 0.983166 0
M  V30 3744 C 354.904 -1.83222 -0.471822 0
M  V30 3745 O 354.247 -1.25721 -1.3394 0
M  V30 3746 C 354.309 -3.29134 1.44606 0
M  V30 3747 C 353.973 -3.51304 2.92292 0
M  V30 3748 C 354.97 -3.4353 3.90235 0
M  V30 3749 C 352.655 -3.78306 3.30439 0
M  V30 3750 C 354.649 -3.62442 5.24323 0
M  V30 3751 C 352.336 -3.96866 4.64694 0
M  V30 3752 C 353.334 -3.88933 5.61445 0
M  V30 3753 O 353.022 -4.06976 6.93272 0
M  V30 3754 H 352.754 -0.579476 0.348114 0
M  V30 3755 H 355.308 -1.33705 1.55924 0
M  V30 3756 H 353.538 -3.78046 0.813537 0
M  V30 3757 H 355.227 -3.87049 1.22262 0
M  V30 3758 H 355.993 -3.22648 3.62109 0
M  V30 3759 H 351.872 -3.83585 2.55702 0
M  V30 3760 H 355.416 -3.56165 5.99827 0
M  V30 3761 H 351.313 -4.1724 4.92525 0
M  V30 3762 H 352.081 -4.24209 6.99992 0
M  V30 3763 N 354.744 -0.972509 -1.24016 0
M  V30 3764 C 355.974 -0.653853 -1.9598 0
M  V30 3765 C 356.382 0.781801 -1.72292 0
M  V30 3766 O 355.725 1.53677 -1.00644 0
M  V30 3767 C 355.787 -0.854608 -3.49194 0
M  V30 3768 C 355.451 -2.27082 -3.96589 0
M  V30 3769 C 356.448 -3.24892 -4.05883 0
M  V30 3770 C 354.133 -2.5998 -4.29786 0
M  V30 3771 C 356.127 -4.53684 -4.47716 0
M  V30 3772 C 353.814 -3.88997 -4.71301 0
M  V30 3773 C 354.812 -4.85661 -4.80232 0
M  V30 3774 O 354.5 -6.12376 -5.20818 0
M  V30 3775 H 354.232 -0.242572 -0.630979 0
M  V30 3776 H 356.786 -1.30431 -1.58673 0
M  V30 3777 H 355.016 -0.146985 -3.86421 0
M  V30 3778 H 356.705 -0.534311 -4.02368 0
M  V30 3779 H 357.471 -3.00805 -3.80449 0
M  V30 3780 H 353.35 -1.85457 -4.22051 0
M  V30 3781 H 356.894 -5.29135 -4.54601 0
M  V30 3782 H 352.791 -4.12882 -4.96184 0
M  V30 3783 H 353.559 -6.16013 -5.38953 0
M  V30 3784 N 356.222 1.38976 -0.743202 0
M  V30 3785 C 357.45 2.04636 -0.30525 0
M  V30 3786 C 357.865 1.56044 1.06281 0
M  V30 3787 O 357.222 0.728921 1.67311 0
M  V30 3788 C 357.273 3.60193 -0.307177 0
M  V30 3789 O 356.994 4.06998 -1.62124 0
M  V30 3790 C 358.495 4.4306 0.145928 0
M  V30 3791 H 355.715 0.65788 -0.132041 0
M  V30 3792 H 358.259 1.77866 -1.00915 0
M  V30 3793 H 356.414 3.85835 0.347898 0
M  V30 3794 H 356.828 5.01371 -1.54036 0
M  V30 3795 H 358.302 5.51921 0.0934183 0
M  V30 3796 H 358.779 4.22706 1.19231 0
M  V30 3797 H 359.385 4.22584 -0.479886 0
M  V30 3798 N 357.7 0.491464 1.49741 0
M  V30 3799 C 358.93 -0.0534375 2.06531 0
M  V30 3800 C 359.338 -1.32233 1.35318 0
M  V30 3801 O 358.681 -1.78781 0.422243 0
M  V30 3802 C 358.743 -0.387034 3.57411 0
M  V30 3803 C 358.407 0.782764 4.50246 0
M  V30 3804 C 359.404 1.67059 4.92329 0
M  V30 3805 C 357.089 0.978866 4.9267 0
M  V30 3806 C 359.083 2.73874 5.75562 0
M  V30 3807 C 356.77 2.05022 5.75682 0
M  V30 3808 C 357.768 2.92851 6.17031 0
M  V30 3809 O 357.456 3.98138 6.98385 0
M  V30 3810 H 357.188 0.0129324 0.675876 0
M  V30 3811 H 359.742 0.685238 1.93633 0
M  V30 3812 H 357.972 -1.17918 3.68283 0
M  V30 3813 H 359.661 -0.869419 3.96479 0
M  V30 3814 H 360.427 1.53086 4.60206 0
M  V30 3815 H 356.306 0.304646 4.59992 0
M  V30 3816 H 359.85 3.42458 6.07757 0
M  V30 3817 H 355.747 2.18993 6.07217 0
M  V30 3818 H 356.515 3.95374 7.16674 0
M  V30 3819 N 359.178 -1.55987 0.224894 0
M  V30 3820 C 360.427 -1.97566 -0.406273 0
M  V30 3821 C 360.74 -1.11569 -1.6066 0
M  V30 3822 O 361.946 -1.43062 -2.3075 0
M  V30 3823 C 360.402 -3.51474 -0.774207 0
M  V30 3824 C 360.01 -4.46179 0.403496 0
M  V30 3825 C 361.754 -4.01758 -1.37079 0
M  V30 3826 C 359.661 -5.91399 0.0129412 0
M  V30 3827 H 358.591 -0.737777 -0.155565 0
M  V30 3828 H 361.242 -1.80659 0.321635 0
M  V30 3829 H 359.624 -3.63994 -1.55963 0
M  V30 3830 H 360.798 -4.45409 1.18101 0
M  V30 3831 H 359.113 -4.06255 0.913536 0
M  V30 3832 H 361.71 -5.07756 -1.67596 0
M  V30 3833 H 362.053 -3.47805 -2.28773 0
M  V30 3834 H 362.586 -3.92475 -0.648733 0
M  V30 3835 H 359.325 -6.49341 0.896451 0
M  V30 3836 H 358.845 -5.95356 -0.728821 0
M  V30 3837 H 360.524 -6.45683 -0.412582 0
M  V30 3838 N 360.656 0.0484629 -1.57525 0
M  V30 3839 C 361.903 0.743125 -1.88372 0
M  V30 3840 C 362.231 1.76383 -0.819715 0
M  V30 3841 O 361.486 1.94855 0.181659 0
M  V30 3842 C 361.785 1.46632 -3.25935 0
M  V30 3843 C 361.451 0.583427 -4.4711 0
M  V30 3844 C 360.113 0.340191 -4.79996 0
M  V30 3845 C 362.465 -0.0273345 -5.21193 0
M  V30 3846 C 359.793 -0.522903 -5.84365 0
M  V30 3847 C 362.145 -0.878017 -6.26477 0
M  V30 3848 C 360.809 -1.1309 -6.5785 0
M  V30 3849 H 360.079 0.271929 -0.689301 0
M  V30 3850 H 362.726 0.00336166 -1.915 0
M  V30 3851 H 361.031 2.2789 -3.18706 0
M  V30 3852 H 362.728 2.00902 -3.47044 0
M  V30 3853 H 359.318 0.783151 -4.21384 0
M  V30 3854 H 363.502 0.147654 -4.9608 0
M  V30 3855 H 358.758 -0.727335 -6.07058 0
M  V30 3856 H 362.932 -1.35789 -6.83033 0
M  V30 3857 H 360.559 -1.80144 -7.38547 0
M  V30 3858 N 362.134 1.5431 0.320358 0
M  V30 3859 C 363.362 1.76636 1.07738 0
M  V30 3860 C 363.777 0.51649 1.81598 0
M  V30 3861 O 363.134 -0.512942 1.75143 0
M  V30 3862 C 363.185 2.96158 2.07299 0
M  V30 3863 O 362.906 4.16313 1.36438 0
M  V30 3864 C 364.407 3.3072 2.95193 0
M  V30 3865 H 361.627 0.589597 0.320339 0
M  V30 3866 H 364.171 2.01207 0.36551 0
M  V30 3867 H 362.326 2.73851 2.74016 0
M  V30 3868 H 362.74 4.83565 2.03138 0
M  V30 3869 H 364.214 4.17643 3.60941 0
M  V30 3870 H 364.691 2.48026 3.62463 0
M  V30 3871 H 365.297 3.55117 2.34034 0
M  V30 3872 N 363.613 -0.582584 1.46437 0
M  V30 3873 C 364.561 -1.71272 1.5738 0
M  V30 3874 C 365.555 -1.63524 0.44229 0
M  V30 3875 O 366.761 -1.69016 0.619166 0
M  V30 3876 H 363.136 -0.566273 0.494813 0
M  V30 3877 H 365.107 -1.59174 2.52401 0
M  V30 3878 C 363.856 -3.09658 1.58136 0
M  V30 3879 H 363.179 -3.16291 2.44541 0
M  V30 3880 H 364.619 -3.88494 1.69847 0
M  V30 3881 C 363.078 -3.3547 0.310026 0
M  V30 3882 O 363.608 -3.97199 -0.599683 0
M  V30 3883 N 361.814 -2.89925 0.197901 0
M  V30 3884 H 361.361 -2.39873 0.93909 0
M  V30 3885 H 361.319 -3.07568 -0.65185 0
M  V30 3886 N 365.091 -1.34144 -0.827227 0
M  V30 3887 C 366.021 -1.28005 -1.95287 0
M  V30 3888 C 367.002 -0.158321 -1.69362 0
M  V30 3889 O 368.187 -0.349987 -1.9102 0
M  V30 3890 C 365.317 -1.03036 -3.31664 0
M  V30 3891 C 364.271 -2.11628 -3.72019 0
M  V30 3892 C 363.597 -1.71854 -5.0633 0
M  V30 3893 C 364.897 -3.53417 -3.8457 0
M  V30 3894 H 366.591 -2.22187 -2.00682 0
M  V30 3895 H 364.137 -1.0696 -0.964135 0
M  V30 3896 H 366.09 -0.973863 -4.09993 0
M  V30 3897 H 364.814 -0.0529391 -3.26557 0
M  V30 3898 H 363.473 -2.16339 -2.95961 0
M  V30 3899 H 363.121 -0.727841 -4.97706 0
M  V30 3900 H 362.821 -2.44531 -5.34302 0
M  V30 3901 H 364.345 -1.67692 -5.87122 0
M  V30 3902 H 365.759 -3.51142 -4.5318 0
M  V30 3903 H 364.156 -4.24679 -4.2399 0
M  V30 3904 H 365.226 -3.91072 -2.86689 0
M  V30 3905 N 366.569 1.04691 -1.17803 0
M  V30 3906 C 367.479 2.16057 -0.914151 0
M  V30 3907 C 368.495 1.73589 0.119503 0
M  V30 3908 O 369.671 2.01308 -0.0609468 0
M  V30 3909 C 366.736 3.4394 -0.436603 0
M  V30 3910 C 365.797 4.00825 -1.53746 0
M  V30 3911 C 365.03 5.22604 -1.0826 0
M  V30 3912 O 365.253 5.70367 0.0612244 0
M  V30 3913 O 364.187 5.7186 -1.87775 0
M  V30 3914 H 368.013 2.41169 -1.84584 0
M  V30 3915 H 365.598 1.1453 -0.959334 0
M  V30 3916 H 367.48 4.21024 -0.178057 0
M  V30 3917 H 366.155 3.20316 0.466869 0
M  V30 3918 H 365.062 3.25158 -1.84995 0
M  V30 3919 H 366.395 4.28778 -2.41683 0
M  V30 3920 N 368.047 0.979072 1.23499 0
M  V30 3921 C 369.294 0.647219 1.91878 0
M  V30 3922 C 369.622 -0.819074 1.76413 0
M  V30 3923 O 368.877 -1.60616 1.11808 0
M  V30 3924 C 369.176 0.981932 3.43646 0
M  V30 3925 C 368.842 2.43822 3.79291 0
M  V30 3926 C 367.504 2.83622 3.88731 0
M  V30 3927 C 369.856 3.3828 3.96505 0
M  V30 3928 C 367.184 4.16897 4.12812 0
M  V30 3929 C 369.536 4.71197 4.22085 0
M  V30 3930 C 368.2 5.10758 4.29747 0
M  V30 3931 H 367.47 0.236834 0.702133 0
M  V30 3932 H 370.117 1.23268 1.46551 0
M  V30 3933 H 368.422 0.314365 3.90537 0
M  V30 3934 H 370.119 0.703395 3.94783 0
M  V30 3935 H 366.709 2.11966 3.72516 0
M  V30 3936 H 370.893 3.0871 3.88603 0
M  V30 3937 H 366.149 4.47157 4.16966 0
M  V30 3938 H 370.323 5.44348 4.34348 0
M  V30 3939 H 367.95 6.1405 4.48159 0
M  V30 3940 N 369.525 -1.3858 0.750561 0
M  V30 3941 C 370.75 -2.04997 0.314812 0
M  V30 3942 C 371.175 -1.56235 -1.04749 0
M  V30 3943 O 370.533 -0.712981 -1.66692 0
M  V30 3944 C 370.581 -3.58961 0.343415 0
M  V30 3945 O 369.685 -4.07025 -0.663628 0
M  V30 3946 H 369.026 -0.649081 0.139962 0
M  V30 3947 H 371.556 -1.77313 1.02084 0
M  V30 3948 H 371.566 -4.07542 0.193233 0
M  V30 3949 H 370.241 -3.93811 1.33738 0
M  V30 3950 H 368.818 -3.6982 -0.478307 0
M  V30 3951 N 371.003 -0.499398 -1.49478 0
M  V30 3952 C 371.933 0.269244 -2.31943 0
M  V30 3953 C 372.914 0.964054 -1.40143 0
M  V30 3954 O 374.099 0.955767 -1.69052 0
M  V30 3955 C 371.229 1.33504 -3.20615 0
M  V30 3956 C 370.183 0.760202 -4.21195 0
M  V30 3957 C 369.509 1.9264 -4.98792 0
M  V30 3958 C 370.809 -0.247661 -5.21712 0
M  V30 3959 H 372.503 -0.419082 -2.96452 0
M  V30 3960 H 370.049 -0.202988 -1.42562 0
M  V30 3961 H 372.002 1.88048 -3.77115 0
M  V30 3962 H 370.726 2.05253 -2.54045 0
M  V30 3963 H 369.385 0.23653 -3.65836 0
M  V30 3964 H 369.033 2.63154 -4.28671 0
M  V30 3965 H 368.733 1.54785 -5.66847 0
M  V30 3966 H 370.257 2.4762 -5.58137 0
M  V30 3967 H 371.671 0.209579 -5.72917 0
M  V30 3968 H 370.068 -0.541962 -5.97648 0
M  V30 3969 H 371.138 -1.16409 -4.7072 0
M  V30 3970 N 372.481 1.55866 -0.233164 0
M  V30 3971 C 373.413 2.18099 0.704668 0
M  V30 3972 C 374.426 1.15334 1.14899 0
M  V30 3973 O 375.615 1.42262 1.07814 0
M  V30 3974 C 372.715 2.7592 1.96777 0
M  V30 3975 C 371.888 4.03969 1.67713 0
M  V30 3976 C 370.947 4.46242 2.78845 0
M  V30 3977 O 369.973 5.12903 2.46818 0
M  V30 3978 N 371.175 4.12886 4.08051 0
M  V30 3979 H 373.94 2.99205 0.172258 0
M  V30 3980 H 371.501 1.61815 -0.0525945 0
M  V30 3981 H 373.493 3.01165 2.70337 0
M  V30 3982 H 372.063 1.99051 2.41034 0
M  V30 3983 H 371.283 3.86459 0.777391 0
M  V30 3984 H 372.571 4.8748 1.4574 0
M  V30 3985 H 371.969 3.59342 4.3691 0
M  V30 3986 H 370.526 4.42997 4.78118 0
M  V30 3987 N 373.959 -0.0401083 1.57549 0
M  V30 3988 C 375.375 -0.395556 1.54621 0
M  V30 3989 C 375.575 -1.77281 0.957799 0
M  V30 3990 O 374.631 -2.45888 0.574031 0
M  V30 3991 C 375.944 -0.307535 2.99123 0
M  V30 3992 C 377.492 -0.385425 3.10618 0
M  V30 3993 C 377.967 -0.326973 4.56831 0
M  V30 3994 N 379.458 -0.386102 4.61588 0
M  V30 3995 C 380.193 -0.363591 5.72246 0
M  V30 3996 N 379.689 -0.29402 6.92176 0
M  V30 3997 N 381.482 -0.412503 5.60584 0
M  V30 3998 H 373.633 0.861325 1.94152 0
M  V30 3999 H 375.896 0.326445 0.890021 0
M  V30 4000 H 375.602 0.638461 3.45856 0
M  V30 4001 H 375.476 -1.10552 3.60636 0
M  V30 4002 H 377.863 -1.32185 2.63839 0
M  V30 4003 H 377.944 0.44171 2.51957 0
M  V30 4004 H 377.588 0.605738 5.04275 0
M  V30 4005 H 377.518 -1.17207 5.13391 0
M  V30 4006 H 380.009 -0.442832 3.75296 0
M  V30 4007 H 380.322 -0.28164 7.72287 0
M  V30 4008 H 378.667 -0.260232 6.94513 0
M  V30 4009 H 381.858 -0.464769 4.65787 0
M  V30 4010 H 382.031 -0.391492 6.46816 0
M  V30 4011 N 375.437 -1.54477 -0.31217 0
M  V30 4012 C 376.37 -1.79519 -1.40884 0
M  V30 4013 C 377.348 -0.645753 -1.49227 0
M  V30 4014 O 378.532 -0.884468 -1.66461 0
M  V30 4015 C 375.659 -1.92194 -2.78889 0
M  V30 4016 C 374.705 -3.14555 -2.88023 0
M  V30 4017 S 375.538 -4.72893 -2.51262 0
M  V30 4018 C 376.694 -4.8849 -3.91317 0
M  V30 4019 H 376.927 -2.72256 -1.19432 0
M  V30 4020 H 374.46 -1.45746 -0.509654 0
M  V30 4021 H 376.418 -2.00182 -3.58382 0
M  V30 4022 H 375.079 -1.00414 -2.97617 0
M  V30 4023 H 374.272 -3.20193 -3.89221 0
M  V30 4024 H 373.874 -3.04955 -2.16514 0
M  V30 4025 H 376.166 -4.71826 -4.86196 0
M  V30 4026 H 377.109 -5.90588 -3.90656 0
M  V30 4027 H 377.517 -4.16715 -3.80801 0
M  V30 4028 N 376.915 0.57481 -1.46744 0
M  V30 4029 C 378.192 1.3352 -1.4294 0
M  V30 4030 C 378.572 2.10775 -0.117009 0
M  V30 4031 O 377.92 2.09966 0.901474 0
M  V30 4032 C 378.13 2.25456 -2.66403 0
M  V30 4033 C 379.478 2.87035 -3.12883 0
M  V30 4034 O 380.502 2.35766 -2.67007 0
M  V30 4035 O 379.361 3.80179 -3.92589 0
M  V30 4036 H 376.455 0.600318 -0.568812 0
M  V30 4037 H 379.001 0.595171 -1.58921 0
M  V30 4038 H 377.773 1.67851 -3.53471 0
M  V30 4039 H 377.396 3.06785 -2.52921 0
M  V30 4040 N 378.394 1.34581 0.820102 0
M  V30 4041 C 379.619 1.30333 1.61332 0
M  V30 4042 C 380.044 -0.119339 1.87721 0
M  V30 4043 O 379.402 -1.08197 1.45475 0
M  V30 4044 C 379.45 2.10258 2.92957 0
M  V30 4045 O 378.554 1.47404 3.85157 0
M  V30 4046 H 377.895 0.447488 0.490561 0
M  V30 4047 H 380.425 1.77425 1.01889 0
M  V30 4048 H 380.435 2.21718 3.42498 0
M  V30 4049 H 379.11 3.13693 2.73074 0
M  V30 4050 H 377.687 1.44703 3.43679 0
M  V30 4051 N 379.872 -1.04064 1.18357 0
M  V30 4052 C 380.802 -2.14001 0.934113 0
M  V30 4053 C 381.783 -1.69616 -0.128186 0
M  V30 4054 O 382.968 -1.94185 0.0244093 0
M  V30 4055 C 380.098 -3.44253 0.459066 0
M  V30 4056 C 379.052 -4.02261 1.46185 0
M  V30 4057 C 378.378 -5.27992 0.844322 0
M  V30 4058 C 379.678 -4.38432 2.83856 0
M  V30 4059 H 381.372 -2.35127 1.85352 0
M  V30 4060 H 378.918 -1.12998 0.892604 0
M  V30 4061 H 380.871 -4.20522 0.271907 0
M  V30 4062 H 379.595 -3.22813 -0.495912 0
M  V30 4063 H 378.254 -3.28074 1.63595 0
M  V30 4064 H 377.902 -5.02862 -0.117845 0
M  V30 4065 H 377.602 -5.67765 1.51384 0
M  V30 4066 H 379.126 -6.06938 0.667693 0
M  V30 4067 H 380.54 -5.05688 2.70098 0
M  V30 4068 H 378.937 -4.89254 3.47491 0
M  V30 4069 H 380.007 -3.4826 3.37406 0
M  V30 4070 N 381.35 -0.985608 -1.22978 0
M  V30 4071 C 382.596 -0.65836 -1.91816 0
M  V30 4072 C 382.929 0.806692 -1.76653 0
M  V30 4073 O 382.204 1.58252 -1.13078 0
M  V30 4074 C 382.487 -1.056 -3.44268 0
M  V30 4075 C 382.34 -2.57906 -3.68516 0
M  V30 4076 C 383.659 -0.603781 -4.35939 0
M  V30 4077 H 380.778 -0.24065 -0.696604 0
M  V30 4078 H 383.42 -1.22783 -1.44998 0
M  V30 4079 H 381.57 -0.571445 -3.84274 0
M  V30 4080 H 383.242 -3.13976 -3.3796 0
M  V30 4081 H 381.485 -3.00305 -3.13048 0
M  V30 4082 H 382.156 -2.80779 -4.75255 0
M  V30 4083 H 384.632 -1.01987 -4.03408 0
M  V30 4084 H 383.508 -0.910383 -5.41298 0
M  V30 4085 H 383.769 0.495761 -4.39312 0
M  V30 4086 N 382.828 1.3818 -0.7579 0
M  V30 4087 C 384.105 1.94106 -0.241306 0
M  V30 4088 C 384.485 1.69282 1.26122 0
M  V30 4089 O 383.833 1.03378 2.03777 0
M  V30 4090 C 384.043 3.43809 -0.59967 0
M  V30 4091 C 385.391 4.20868 -0.561717 0
M  V30 4092 O 386.415 3.5211 -0.538222 0
M  V30 4093 O 385.274 5.43451 -0.576478 0
M  V30 4094 H 382.368 0.825376 -0.0518042 0
M  V30 4095 H 384.914 1.47548 -0.838315 0
M  V30 4096 H 383.686 3.55403 -1.6372 0
M  V30 4097 H 383.309 3.97592 0.0251197 0
M  V30 4098 N 384.306 0.507319 1.49211 0
M  V30 4099 C 385.583 -0.0982702 1.95353 0
M  V30 4100 C 385.963 -1.53516 1.449 0
M  V30 4101 O 385.311 -2.18594 0.66551 0
M  V30 4102 C 385.521 -0.00440283 3.49 0
M  V30 4103 C 386.869 -0.175147 4.24239 0
M  V30 4104 O 387.893 -0.0792891 3.56112 0
M  V30 4105 O 386.752 -0.37276 5.45227 0
M  V30 4106 H 383.846 -0.0918236 0.821887 0
M  V30 4107 H 386.392 0.570307 1.5983 0
M  V30 4108 H 385.164 0.997402 3.78375 0
M  V30 4109 H 384.787 -0.712845 3.91158 0
M  V30 4110 N 385.784 -1.5574 0.241426 0
M  V30 4111 C 387.2 -1.59196 -0.113548 0
M  V30 4112 C 387.4 -1.25852 -1.57364 0
M  V30 4113 O 386.456 -1.00322 -2.31715 0
M  V30 4114 C 387.769 -2.99814 0.230695 0
M  V30 4115 C 389.317 -3.12513 0.174547 0
M  V30 4116 C 389.792 -4.55342 0.492744 0
M  V30 4117 N 391.283 -4.61076 0.443043 0
M  V30 4118 C 392.018 -5.6956 0.662484 0
M  V30 4119 N 391.514 -6.86328 0.944761 0
M  V30 4120 N 393.307 -5.58957 0.593564 0
M  V30 4121 H 385.458 -1.75685 1.19368 0
M  V30 4122 H 387.721 -0.81756 0.479896 0
M  V30 4123 H 387.427 -3.28932 1.24485 0
M  V30 4124 H 387.301 -3.74568 -0.444833 0
M  V30 4125 H 389.688 -2.83179 -0.830277 0
M  V30 4126 H 389.769 -2.40045 0.883845 0
M  V30 4127 H 389.413 -4.85396 1.4951 0
M  V30 4128 H 389.343 -5.26062 -0.23797 0
M  V30 4129 H 391.834 -3.77179 0.233374 0
M  V30 4130 H 392.147 -7.64935 1.09977 0
M  V30 4131 H 390.492 -6.88025 0.982175 0
M  V30 4132 H 393.683 -4.66611 0.373123 0
M  V30 4133 H 393.856 -6.43433 0.767981 0
M  V30 4134 N 387.262 0.0317525 -1.57568 0
M  V30 4135 C 388.508 0.724175 -1.8943 0
M  V30 4136 C 388.841 1.75149 -0.838836 0
M  V30 4137 O 388.116 1.93948 0.146422 0
M  V30 4138 C 388.399 1.39615 -3.31933 0
M  V30 4139 C 388.252 0.382537 -4.4817 0
M  V30 4140 C 389.571 2.33084 -3.73309 0
M  V30 4141 H 386.69 0.261797 -0.688935 0
M  V30 4142 H 389.332 -0.013017 -1.89996 0
M  V30 4143 H 387.482 2.02451 -3.31581 0
M  V30 4144 H 389.154 -0.243689 -4.60656 0
M  V30 4145 H 387.397 -0.29844 -4.32772 0
M  V30 4146 H 388.068 0.891145 -5.44759 0
M  V30 4147 H 390.544 1.80295 -3.7501 0
M  V30 4148 H 389.42 2.77084 -4.73831 0
M  V30 4149 H 389.681 3.19643 -3.05419 0
M  V30 4150 N 388.74 1.54641 0.303973 0
M  V30 4151 C 389.688 1.86137 1.39484 0
M  V30 4152 C 390.682 0.734854 1.52631 0
M  V30 4153 O 391.888 0.918803 1.54784 0
M  V30 4154 H 388.263 0.590324 0.465856 0
M  V30 4155 H 390.234 2.77324 1.10154 0
M  V30 4156 C 388.983 2.12274 2.75382 0
M  V30 4157 H 388.306 2.98429 2.66046 0
M  V30 4158 H 389.746 2.38254 3.5073 0
M  V30 4159 C 388.205 0.920365 3.24085 0
M  V30 4160 O 388.735 0.139377 4.01458 0
M  V30 4161 N 386.941 0.726566 2.81371 0
M  V30 4162 H 386.488 1.36332 2.18567 0
M  V30 4163 H 386.446 -0.0763799 3.14307 0
M  V30 4164 N 390.218 -0.567019 1.47046 0
M  V30 4165 C 391.467 -1.32091 1.5243 0
M  V30 4166 C 391.78 -1.94704 0.187021 0
M  V30 4167 O 392.986 -2.7124 0.118771 0
M  V30 4168 C 391.442 -2.39479 2.68659 0
M  V30 4169 C 391.05 -1.831 4.08874 0
M  V30 4170 C 392.794 -3.16111 2.83327 0
M  V30 4171 C 390.701 -2.8821 5.16419 0
M  V30 4172 H 389.631 -0.496629 0.56734 0
M  V30 4173 H 392.282 -0.603354 1.73297 0
M  V30 4174 H 390.664 -3.14105 2.41152 0
M  V30 4175 H 391.838 -1.14913 4.46242 0
M  V30 4176 H 390.153 -1.19085 3.99008 0
M  V30 4177 H 392.75 -3.94585 3.60842 0
M  V30 4178 H 393.093 -3.69686 1.91411 0
M  V30 4179 H 393.626 -2.48595 3.10556 0
M  V30 4180 H 390.365 -2.39504 6.10179 0
M  V30 4181 H 389.885 -3.54839 4.8358 0
M  V30 4182 H 391.564 -3.51881 5.42945 0
M  V30 4183 N 391.696 -1.35014 -0.812953 0
M  V30 4184 C 392.626 -1.30069 -1.93919 0
M  V30 4185 C 393.607 -0.176275 -1.69184 0
M  V30 4186 O 394.792 -0.370227 -1.90638 0
M  V30 4187 C 391.922 -1.06547 -3.30552 0
M  V30 4188 C 390.876 -2.15561 -3.69753 0
M  V30 4189 C 390.202 -1.77214 -5.04479 0
M  V30 4190 C 391.502 -3.57476 -3.808 0
M  V30 4191 H 393.196 -2.24303 -1.98314 0
M  V30 4192 H 390.742 -1.07977 -0.952736 0
M  V30 4193 H 392.695 -1.01729 -4.08937 0
M  V30 4194 H 391.419 -0.0875719 -3.26483 0
M  V30 4195 H 390.078 -2.19466 -2.9365 0
M  V30 4196 H 389.726 -0.780589 -4.96906 0
M  V30 4197 H 389.426 -2.50184 -5.31678 0
M  V30 4198 H 390.95 -1.7391 -5.8531 0
M  V30 4199 H 392.364 -3.55929 -4.4943 0
M  V30 4200 H 390.761 -4.29152 -4.19462 0
M  V30 4201 H 391.831 -3.94091 -2.82525 0
M  V30 4202 N 393.175 1.03435 -1.18907 0
M  V30 4203 C 394.423 1.76394 -0.986382 0
M  V30 4204 C 394.744 1.88883 0.484567 0
M  V30 4205 O 394.014 1.41843 1.3512 0
M  V30 4206 H 392.594 0.65344 -0.361975 0
M  V30 4207 H 395.256 1.248 -1.49703 0
M  V30 4208 H 394.352 2.77424 -1.42978 0
M  V30 4209 N 394.653 0.992116 1.22453 0
M  V30 4210 C 395.9 0.667534 1.91181 0
M  V30 4211 C 396.228 -0.800317 1.77271 0
M  V30 4212 O 395.483 -1.59421 1.13505 0
M  V30 4213 C 395.782 1.01832 3.42586 0
M  V30 4214 C 395.448 2.47831 3.76684 0
M  V30 4215 C 394.11 2.87729 3.85701 0
M  V30 4216 C 396.462 3.42466 3.92895 0
M  V30 4217 C 393.79 4.21252 4.08367 0
M  V30 4218 C 396.142 4.75648 4.17064 0
M  V30 4219 C 394.806 5.15288 4.24305 0
M  V30 4220 H 394.076 0.244268 0.699581 0
M  V30 4221 H 396.723 1.24816 1.45235 0
M  V30 4222 H 395.028 0.355769 3.90181 0
M  V30 4223 H 396.725 0.745228 3.94014 0
M  V30 4224 H 393.315 2.15905 3.70247 0
M  V30 4225 H 397.499 3.12814 3.85307 0
M  V30 4226 H 392.755 4.51554 4.122 0
M  V30 4227 H 396.929 5.48924 4.2855 0
M  V30 4228 H 394.556 6.18769 4.41621 0
M  V30 4229 N 396.131 -1.37776 0.765217 0
M  V30 4230 C 397.356 -2.04651 0.336537 0
M  V30 4231 C 397.781 -1.57337 -1.03086 0
M  V30 4232 O 397.139 -0.730621 -1.65927 0
M  V30 4233 C 397.187 -3.58577 0.381468 0
M  V30 4234 O 396.291 -4.07706 -0.62042 0
M  V30 4235 H 395.632 -0.64756 0.146838 0
M  V30 4236 H 398.162 -1.76221 1.03959 0
M  V30 4237 H 398.172 -4.07314 0.236448 0
M  V30 4238 H 396.847 -3.9237 1.37907 0
M  V30 4239 H 395.424 -3.70306 -0.439056 0
M  V30 4240 N 397.609 -0.515225 -1.4894 0
M  V30 4241 C 398.858 0.0261361 -2.01683 0
M  V30 4242 C 399.171 1.36719 -1.39883 0
M  V30 4243 O 400.377 1.99606 -1.84037 0
M  V30 4244 C 398.833 0.0970111 -3.59769 0
M  V30 4245 C 398.441 -1.23825 -4.30548 0
M  V30 4246 C 400.185 0.587981 -4.20408 0
M  V30 4247 C 398.092 -1.12877 -5.80528 0
M  V30 4248 H 397.022 0.0135398 -0.753878 0
M  V30 4249 H 399.673 -0.656787 -1.71343 0
M  V30 4250 H 398.055 0.844694 -3.86886 0
M  V30 4251 H 399.229 -2.00034 -4.15118 0
M  V30 4252 H 397.544 -1.66379 -3.81716 0
M  V30 4253 H 400.141 0.68763 -5.3026 0
M  V30 4254 H 400.484 1.59026 -3.84729 0
M  V30 4255 H 401.017 -0.103582 -3.97665 0
M  V30 4256 H 397.756 -2.10575 -6.20756 0
M  V30 4257 H 397.276 -0.407799 -5.98412 0
M  V30 4258 H 398.955 -0.813332 -6.41868 0
M  V30 4259 N 399.087 1.5561 -0.249682 0
M  V30 4260 C 400.334 1.99011 0.374287 0
M  V30 4261 C 400.662 1.13785 1.57744 0
M  V30 4262 O 399.917 0.189326 1.94782 0
M  V30 4263 C 400.216 3.4775 0.824887 0
M  V30 4264 C 399.882 4.50086 -0.270819 0
M  V30 4265 C 398.544 4.77791 -0.571746 0
M  V30 4266 C 400.896 5.11312 -1.01041 0
M  V30 4267 C 398.224 5.63997 -1.61629 0
M  V30 4268 C 400.576 5.98651 -2.0445 0
M  V30 4269 C 399.24 6.24688 -2.35204 0
M  V30 4270 H 398.51 0.728233 0.136961 0
M  V30 4271 H 401.157 1.88122 -0.358087 0
M  V30 4272 H 399.462 3.55985 1.63651 0
M  V30 4273 H 401.159 3.78721 1.31799 0
M  V30 4274 H 397.749 4.28592 -0.026136 0
M  V30 4275 H 401.933 4.89953 -0.791177 0
M  V30 4276 H 397.189 5.82425 -1.85988 0
M  V30 4277 H 401.363 6.45135 -2.62248 0
M  V30 4278 H 398.99 6.91281 -3.16282 0
M  V30 4279 N 400.565 -0.0233959 1.57583 0
M  V30 4280 C 401.513 -1.04063 2.08023 0
M  V30 4281 C 402.507 -1.37084 0.995204 0
M  V30 4282 O 403.713 -1.35923 1.18004 0
M  V30 4283 H 400.088 -0.353144 0.663922 0
M  V30 4284 H 402.059 -0.589453 2.9252 0
M  V30 4285 C 400.808 -2.33123 2.57971 0
M  V30 4286 H 400.131 -2.08577 3.4108 0
M  V30 4287 H 401.571 -3.02632 2.96967 0
M  V30 4288 C 400.03 -3.02483 1.48342 0
M  V30 4289 O 400.56 -3.92541 0.852898 0
M  V30 4290 N 398.766 -2.63909 1.21658 0
M  V30 4291 H 398.313 -1.90758 1.73116 0
M  V30 4292 H 398.271 -3.10633 0.485218 0
M  V30 4293 N 402.043 -1.548 -0.295768 0
M  V30 4294 C 402.975 -1.82492 -1.3867 0
M  V30 4295 C 403.988 -0.708134 -1.46592 0
M  V30 4296 O 405.177 -0.985686 -1.48817 0
M  V30 4297 C 402.277 -1.95256 -2.76999 0
M  V30 4298 C 401.45 -3.25709 -2.91946 0
M  V30 4299 C 400.509 -3.28824 -4.10806 0
M  V30 4300 O 399.535 -4.02328 -4.02643 0
M  V30 4301 N 400.737 -2.5459 -5.21694 0
M  V30 4302 H 403.502 -2.76646 -1.15269 0
M  V30 4303 H 401.063 -1.54438 -0.485849 0
M  V30 4304 H 403.055 -1.94736 -3.54768 0
M  V30 4305 H 401.625 -1.08072 -2.93324 0
M  V30 4306 H 400.845 -3.38959 -2.01247 0
M  V30 4307 H 402.133 -4.11786 -2.98847 0
M  V30 4308 H 401.531 -1.94512 -5.31208 0
M  V30 4309 H 400.088 -2.59818 -5.97778 0
M  V30 4310 N 403.521 0.559213 -1.47345 0
M  V30 4311 C 404.746 1.34676 -1.57725 0
M  V30 4312 C 405.171 1.86723 -0.227164 0
M  V30 4313 O 404.529 1.6286 0.796642 0
M  V30 4314 C 404.577 2.49399 -2.60447 0
M  V30 4315 O 403.681 3.51567 -2.15578 0
M  V30 4316 H 403.022 0.400115 -0.52991 0
M  V30 4317 H 405.552 0.676009 -1.93109 0
M  V30 4318 H 405.562 2.95996 -2.80803 0
M  V30 4319 H 404.237 2.10873 -3.58477 0
M  V30 4320 H 402.814 3.11289 -2.05313 0
M  V30 4321 N 404.999 1.35443 0.805782 0
M  V30 4322 C 405.949 1.24972 1.90699 0
M  V30 4323 C 406.933 0.144806 1.60247 0
M  V30 4324 O 408.125 0.376102 1.72958 0
M  V30 4325 C 405.254 1.02475 3.27649 0
M  V30 4326 C 404.34 2.17361 3.64164 0
M  V30 4327 N 404.731 3.42591 3.72109 0
M  V30 4328 C 403.029 2.08765 3.94123 0
M  V30 4329 C 403.73 4.18144 4.04389 0
M  V30 4330 N 402.706 3.4691 4.18515 0
M  V30 4331 H 406.508 2.19852 1.95044 0
M  V30 4332 H 404.022 1.27928 1.00041 0
M  V30 4333 H 406.019 0.930617 4.06381 0
M  V30 4334 H 404.679 0.0848009 3.24589 0
M  V30 4335 H 405.69 3.76932 3.55166 0
M  V30 4336 H 402.367 1.22629 3.99084 0
M  V30 4337 H 403.757 5.26367 4.17597 0
M  V30 4338 N 406.477 -1.02803 1.19454 0
M  V30 4339 C 407.44 -2.09264 0.934955 0
M  V30 4340 C 408.44 -1.60576 -0.0849015 0
M  V30 4341 O 409.63 -1.73554 0.149933 0
M  V30 4342 C 406.762 -3.38482 0.40531 0
M  V30 4343 H 407.955 -2.33726 1.87916 0
M  V30 4344 H 405.508 -1.19426 1.00832 0
M  V30 4345 H 406.243 -3.19689 -0.544899 0
M  V30 4346 H 406.028 -3.75142 1.14065 0
M  V30 4347 H 407.518 -4.16894 0.242806 0
M  V30 4348 N 407.956 -0.998596 -1.21925 0
M  V30 4349 C 409.203 -0.677663 -1.90824 0
M  V30 4350 C 409.531 0.790905 -1.77693 0
M  V30 4351 O 408.786 1.58817 -1.14349 0
M  V30 4352 C 409.085 -1.03648 -3.42041 0
M  V30 4353 C 408.751 -2.49825 -3.75364 0
M  V30 4354 C 407.413 -2.8977 -3.8417 0
M  V30 4355 C 409.765 -3.44545 -3.91073 0
M  V30 4356 C 407.093 -4.23412 -4.06127 0
M  V30 4357 C 409.445 -4.77853 -4.14535 0
M  V30 4358 C 408.109 -5.17531 -4.21566 0
M  V30 4359 H 407.379 -0.247975 -0.698276 0
M  V30 4360 H 410.026 -1.25584 -1.44571 0
M  V30 4361 H 408.331 -0.376457 -3.89987 0
M  V30 4362 H 410.028 -0.766113 -3.93614 0
M  V30 4363 H 406.618 -2.17866 -3.69097 0
M  V30 4364 H 410.802 -3.14853 -3.83642 0
M  V30 4365 H 406.058 -4.53734 -4.09799 0
M  V30 4366 H 410.232 -5.51189 -4.25633 0
M  V30 4367 H 407.859 -6.21102 -4.38333 0
M  V30 4368 N 409.434 1.37368 -0.772513 0
M  V30 4369 C 410.681 1.99673 -0.337182 0
M  V30 4370 C 411.009 1.61324 1.0865 0
M  V30 4371 O 410.264 0.851377 1.7621 0
M  V30 4372 C 410.563 3.54817 -0.428876 0
M  V30 4373 C 410.229 4.12936 -1.81092 0
M  V30 4374 C 408.891 4.28523 -2.1891 0
M  V30 4375 C 411.243 4.44801 -2.71664 0
M  V30 4376 C 408.571 4.73277 -3.46735 0
M  V30 4377 C 410.923 4.90981 -3.98899 0
M  V30 4378 C 409.587 5.04773 -4.36761 0
M  V30 4379 H 408.857 0.730656 -0.123384 0
M  V30 4380 H 411.504 1.64124 -0.986686 0
M  V30 4381 H 409.809 3.90618 0.304167 0
M  V30 4382 H 411.506 4.00933 -0.0733334 0
M  V30 4383 H 408.096 4.01233 -1.50699 0
M  V30 4384 H 412.28 4.32344 -2.43706 0
M  V30 4385 H 407.536 4.82142 -3.75964 0
M  V30 4386 H 411.71 5.14603 -4.69208 0
M  V30 4387 H 409.337 5.39211 -5.35868 0
M  V30 4388 N 410.912 0.523116 1.48665 0
M  V30 4389 C 411.844 -0.280421 2.27478 0
M  V30 4390 C 412.857 -0.910694 1.34945 0
M  V30 4391 O 414.046 -0.790295 1.60052 0
M  V30 4392 C 411.146 -1.41171 3.08097 0
M  V30 4393 C 410.319 -0.884642 4.28361 0
M  V30 4394 C 409.378 -1.89622 4.90846 0
M  V30 4395 O 408.404 -1.4559 5.50265 0
M  V30 4396 N 409.606 -3.22801 4.82472 0
M  V30 4397 H 412.371 0.395481 2.97079 0
M  V30 4398 H 409.932 0.357018 1.57915 0
M  V30 4399 H 411.924 -2.08645 3.4677 0
M  V30 4400 H 410.494 -1.99139 2.40961 0
M  V30 4401 H 409.714 -0.0341177 3.94185 0
M  V30 4402 H 411.002 -0.511268 5.06225 0
M  V30 4403 H 410.4 -3.61246 4.35336 0
M  V30 4404 H 408.957 -3.85927 5.25265 0
M  V30 4405 N 412.39 -1.55475 0.257931 0
M  V30 4406 C 413.3 -2.2549 -0.647425 0
M  V30 4407 C 414.316 -1.2748 -1.18427 0
M  V30 4408 O 415.492 -1.6038 -1.2182 0
M  V30 4409 C 412.557 -2.94916 -1.82278 0
M  V30 4410 C 411.618 -4.08363 -1.32432 0
M  V30 4411 C 410.851 -4.74469 -2.44366 0
M  V30 4412 O 411.074 -4.39701 -3.63344 0
M  V30 4413 O 410.008 -5.62763 -2.13497 0
M  V30 4414 H 413.834 -3.03593 -0.0807707 0
M  V30 4415 H 411.419 -1.49377 0.0259962 0
M  V30 4416 H 413.301 -3.38606 -2.50846 0
M  V30 4417 H 411.976 -2.19744 -2.37685 0
M  V30 4418 H 410.883 -3.69166 -0.605605 0
M  V30 4419 H 412.216 -4.85385 -0.816211 0
M  V30 4420 N 413.868 0.0150385 -1.57593 0
M  V30 4421 C 415.115 0.703001 -1.89906 0
M  V30 4422 C 415.443 1.74604 -0.856944 0
M  V30 4423 O 414.698 1.95197 0.140287 0
M  V30 4424 C 414.997 1.39686 -3.28972 0
M  V30 4425 C 414.663 0.488457 -4.48246 0
M  V30 4426 C 413.325 0.2383 -4.8061 0
M  V30 4427 C 415.677 -0.137881 -5.21018 0
M  V30 4428 C 413.005 -0.646738 -5.83125 0
M  V30 4429 C 415.357 -1.0107 -6.24474 0
M  V30 4430 C 414.021 -1.27019 -6.55303 0
M  V30 4431 H 413.291 0.257246 -0.694914 0
M  V30 4432 H 415.938 -0.037259 -1.91464 0
M  V30 4433 H 414.243 2.21079 -3.23468 0
M  V30 4434 H 415.94 1.93495 -3.51227 0
M  V30 4435 H 412.53 0.693593 -4.22951 0
M  V30 4436 H 416.714 0.0423953 -4.96282 0
M  V30 4437 H 411.97 -0.855937 -6.05379 0
M  V30 4438 H 416.144 -1.50247 -6.79999 0
M  V30 4439 H 413.771 -1.95769 -7.3456 0
M  V30 4440 N 415.346 1.54954 0.287554 0
M  V30 4441 C 416.309 1.86076 1.33823 0
M  V30 4442 C 417.309 0.734414 1.43049 0
M  V30 4443 O 418.499 1.00266 1.42452 0
M  V30 4444 C 415.631 2.05305 2.72144 0
M  V30 4445 H 416.824 2.79984 1.07465 0
M  V30 4446 H 414.377 1.47223 0.524902 0
M  V30 4447 H 415.112 1.1373 3.03704 0
M  V30 4448 H 414.897 2.873 2.66836 0
M  V30 4449 H 416.387 2.30706 3.48087 0
M  V30 4450 N 416.824 -0.551391 1.4764 0
M  V30 4451 C 417.756 -1.67333 1.56628 0
M  V30 4452 C 418.769 -1.56398 0.452045 0
M  V30 4453 O 419.958 -1.6325 0.721926 0
M  V30 4454 C 417.058 -3.05841 1.45994 0
M  V30 4455 C 416.231 -3.42472 2.72088 0
M  V30 4456 C 415.29 -4.60168 2.55209 0
M  V30 4457 O 414.316 -4.64458 3.2904 0
M  V30 4458 N 415.518 -5.57024 1.63416 0
M  V30 4459 H 418.283 -1.60066 2.53375 0
M  V30 4460 H 415.844 -0.738169 1.44093 0
M  V30 4461 H 417.836 -3.8242 1.32428 0
M  V30 4462 H 416.406 -3.07302 0.573071 0
M  V30 4463 H 415.626 -2.55284 3.00373 0
M  V30 4464 H 416.914 -3.63723 3.55785 0
M  V30 4465 H 416.312 -5.56319 1.02594 0
M  V30 4466 H 414.869 -6.32906 1.558 0
M  V30 4467 N 418.302 -1.35869 -0.798587 0
M  V30 4468 C 419.527 -1.32883 -1.59238 0
M  V30 4469 C 419.952 0.0894587 -1.87887 0
M  V30 4470 O 419.31 1.05869 -1.47178 0
M  V30 4471 C 419.358 -2.14892 -2.89575 0
M  V30 4472 O 418.462 -1.53512 -3.82763 0
M  V30 4473 H 417.803 -0.455236 -0.48338 0
M  V30 4474 H 420.333 -1.79024 -0.990539 0
M  V30 4475 H 420.343 -2.27139 -3.38928 0
M  V30 4476 H 419.018 -3.17998 -2.68049 0
M  V30 4477 H 417.595 -1.50153 -3.41334 0
M  V30 4478 N 419.78 1.02168 -1.19998 0
M  V30 4479 C 420.71 2.12488 -0.96804 0
M  V30 4480 C 421.691 1.69799 0.101185 0
M  V30 4481 O 422.876 1.94121 -0.0552993 0
M  V30 4482 C 420.006 3.43479 -0.513776 0
M  V30 4483 C 418.96 3.99884 -1.52566 0
M  V30 4484 C 418.286 5.26582 -0.928214 0
M  V30 4485 C 419.586 4.33861 -2.90795 0
M  V30 4486 H 421.28 2.32149 -1.89069 0
M  V30 4487 H 418.826 1.11564 -0.910468 0
M  V30 4488 H 420.779 4.20036 -0.338774 0
M  V30 4489 H 419.503 3.23561 0.444493 0
M  V30 4490 H 418.162 3.25429 -1.68794 0
M  V30 4491 H 417.81 5.02986 0.0378289 0
M  V30 4492 H 417.51 5.65284 -1.60397 0
M  V30 4493 H 419.034 6.05799 -0.764167 0
M  V30 4494 H 420.448 5.01327 -2.78109 0
M  V30 4495 H 418.845 4.83664 -3.55231 0
M  V30 4496 H 419.915 3.42848 -3.42904 0
M  V30 4497 N 421.258 1.00505 1.21394 0
M  V30 4498 C 422.206 0.558623 2.25792 0
M  V30 4499 C 423.2 -0.396848 1.64686 0
M  V30 4500 O 424.406 -0.268035 1.77993 0
M  V30 4501 H 420.781 0.1623 0.734277 0
M  V30 4502 H 422.752 1.4503 2.60785 0
M  V30 4503 C 421.501 -0.0989574 3.47559 0
M  V30 4504 H 420.824 0.627225 3.94849 0
M  V30 4505 H 422.264 -0.3746 4.22342 0
M  V30 4506 C 420.723 -1.33817 3.09184 0
M  V30 4507 O 421.253 -2.43252 3.19674 0
M  V30 4508 N 419.459 -1.21793 2.63846 0
M  V30 4509 H 419.006 -0.32746 2.5551 0
M  V30 4510 H 418.964 -2.04809 2.38539 0
M  V30 4511 N 422.737 -1.36956 0.779787 0
M  V30 4512 C 423.669 -2.28833 0.129639 0
M  V30 4513 C 424.682 -1.4902 -0.655511 0
M  V30 4514 O 425.871 -1.71578 -0.492279 0
M  V30 4515 C 422.971 -3.2833 -0.839792 0
M  V30 4516 C 422.144 -4.3727 -0.10675 0
M  V30 4517 C 421.203 -5.16789 -0.990717 0
M  V30 4518 O 420.229 -5.67406 -0.451516 0
M  V30 4519 N 421.431 -5.32294 -2.3161 0
M  V30 4520 H 424.196 -2.85268 0.918803 0
M  V30 4521 H 421.757 -1.49019 0.632841 0
M  V30 4522 H 423.749 -3.78413 -1.43477 0
M  V30 4523 H 422.319 -2.72605 -1.52988 0
M  V30 4524 H 421.539 -3.88478 0.669216 0
M  V30 4525 H 422.827 -5.07229 0.399464 0
M  V30 4526 H 422.225 -4.92768 -2.77843 0
M  V30 4527 H 420.782 -5.85656 -2.86095 0
M  V30 4528 N 424.215 -0.530993 -1.48385 0
M  V30 4529 C 425.44 0.000729535 -2.074 0
M  V30 4530 C 425.865 1.27298 -1.3848 0
M  V30 4531 O 425.223 1.75599 -0.451081 0
M  V30 4532 C 425.271 0.206697 -3.60007 0
M  V30 4533 O 424.375 1.27514 -3.92191 0
M  V30 4534 H 423.716 -0.039583 -0.662819 0
M  V30 4535 H 426.246 -0.739194 -1.9078 0
M  V30 4536 H 426.256 0.42904 -4.05738 0
M  V30 4537 H 424.931 -0.722675 -4.09573 0
M  V30 4538 H 423.508 1.03537 -3.58238 0
M  V30 4539 N 425.693 1.55336 -0.266172 0
M  V30 4540 C 426.939 2.00423 0.346714 0
M  V30 4541 C 427.294 1.15132 1.54151 0
M  V30 4542 O 426.587 0.211289 1.90431 0
M  V30 4543 C 426.781 3.48606 0.787957 0
M  V30 4544 C 426.61 4.48236 -0.362535 0
M  V30 4545 C 425.38 4.98211 -0.843445 0
M  V30 4546 C 427.578 5.00199 -1.19603 0
M  V30 4547 N 425.56 5.81625 -1.96434 0
M  V30 4548 C 426.931 5.80973 -2.16497 0
M  V30 4549 C 428.986 4.82458 -1.2304 0
M  V30 4550 C 427.689 6.45896 -3.1656 0
M  V30 4551 C 429.715 5.48174 -2.21944 0
M  V30 4552 C 429.077 6.28751 -3.17571 0
M  V30 4553 H 425.176 0.776535 0.0922914 0
M  V30 4554 H 427.76 1.90792 -0.388154 0
M  V30 4555 H 425.931 3.58597 1.49207 0
M  V30 4556 H 427.663 3.80538 1.37742 0
M  V30 4557 H 424.418 4.71696 -0.424271 0
M  V30 4558 H 424.842 6.28025 -2.52813 0
M  V30 4559 H 429.484 4.19774 -0.504903 0
M  V30 4560 H 427.202 7.07734 -3.90048 0
M  V30 4561 H 430.788 5.36392 -2.25333 0
M  V30 4562 H 429.668 6.78703 -3.92851 0
M  V30 4563 N 427.171 -0.0066808 1.57599 0
M  V30 4564 C 428.103 -1.02827 2.04839 0
M  V30 4565 C 429.116 -1.31108 0.965113 0
M  V30 4566 O 430.305 -1.28202 1.24203 0
M  V30 4567 C 427.405 -2.36464 2.42771 0
M  V30 4568 C 426.578 -2.27219 3.73751 0
M  V30 4569 C 425.637 -3.43489 3.98625 0
M  V30 4570 O 424.663 -3.21976 4.69382 0
M  V30 4571 N 425.865 -4.66116 3.46 0
M  V30 4572 H 428.63 -0.625455 2.93101 0
M  V30 4573 H 426.191 -0.194198 1.60731 0
M  V30 4574 H 428.183 -3.13008 2.56531 0
M  V30 4575 H 426.753 -2.68512 1.60063 0
M  V30 4576 H 425.973 -1.35629 3.70133 0
M  V30 4577 H 427.261 -2.18208 4.59633 0
M  V30 4578 H 426.659 -4.86493 2.88688 0
M  V30 4579 H 425.216 -5.39949 3.65101 0
M  V30 4580 N 428.649 -1.55105 -0.279332 0
M  V30 4581 C 429.559 -1.90638 -1.36727 0
M  V30 4582 C 430.575 -0.802899 -1.54368 0
M  V30 4583 O 431.751 -1.10138 -1.68616 0
M  V30 4584 C 428.816 -2.16547 -2.70755 0
M  V30 4585 C 427.877 -3.40146 -2.61915 0
M  V30 4586 C 427.11 -3.6481 -3.8955 0
M  V30 4587 O 427.333 -2.92095 -4.89935 0
M  V30 4588 O 426.267 -4.58343 -3.90135 0
M  V30 4589 H 430.093 -2.83237 -1.09591 0
M  V30 4590 H 427.678 -1.4157 -0.477306 0
M  V30 4591 H 429.56 -2.34665 -3.50014 0
M  V30 4592 H 428.235 -1.27131 -2.9769 0
M  V30 4593 H 427.142 -3.2737 -1.81052 0
M  V30 4594 H 428.475 -4.29761 -2.3993 0
M  V30 4595 N 430.127 0.543554 -1.4793 0
M  V30 4596 C 431.075 1.67039 -1.61866 0
M  V30 4597 C 432.069 1.62294 -0.48549 0
M  V30 4598 O 433.275 1.67315 -0.66376 0
M  V30 4599 H 429.65 0.552954 -0.509652 0
M  V30 4600 H 431.621 1.52426 -2.56533 0
M  V30 4601 C 430.37 3.05357 -1.6629 0
M  V30 4602 H 429.693 3.09696 -2.5284 0
M  V30 4603 H 431.133 3.83855 -1.80088 0
M  V30 4604 C 429.592 3.34531 -0.398861 0
M  V30 4605 O 430.122 3.98649 0.494162 0
M  V30 4606 N 428.328 2.89299 -0.2747 0
M  V30 4607 H 427.875 2.37298 -1.00236 0
M  V30 4608 H 427.833 3.09188 0.570075 0
M  V30 4609 N 431.605 1.3629 0.791371 0
M  V30 4610 C 432.845 1.31792 1.56238 0
M  V30 4611 C 433.209 -0.102237 1.91728 0
M  V30 4612 O 434.41 -0.271759 2.67423 0
M  V30 4613 C 432.681 2.21303 2.80642 0
M  V30 4614 S 434.24 2.34468 3.70904 0
M  V30 4615 H 431.058 0.468141 0.535131 0
M  V30 4616 H 433.66 1.71841 0.932246 0
M  V30 4617 H 432.364 3.23439 2.52617 0
M  V30 4618 H 431.895 1.82266 3.4863 0
M  V30 4619 H 433.91 1.54074 4.71673 0
M  V30 4620 N 433.083 -1.0153 1.20538 0
M  V30 4621 C 434.36 -1.72327 0.925343 0
M  V30 4622 C 434.74 -2.03383 -0.565547 0
M  V30 4623 O 434.088 -1.69934 -1.52757 0
M  V30 4624 C 434.298 -2.9902 1.79967 0
M  V30 4625 C 435.646 -3.72258 2.04228 0
M  V30 4626 O 436.67 -3.08979 1.77231 0
M  V30 4627 O 435.529 -4.86053 2.4983 0
M  V30 4628 H 432.623 -0.751099 0.346092 0
M  V30 4629 H 435.169 -1.07366 1.31417 0
M  V30 4630 H 433.941 -2.72402 2.80915 0
M  V30 4631 H 433.564 -3.71721 1.41099 0
M  V30 4632 N 434.561 -1.01147 -1.20859 0
M  V30 4633 C 435.511 -0.548247 -2.2131 0
M  V30 4634 C 436.495 0.393646 -1.5601 0
M  V30 4635 O 437.687 0.217445 -1.75659 0
M  V30 4636 C 434.816 0.117252 -3.431 0
M  V30 4637 C 433.902 -0.846043 -4.15575 0
M  V30 4638 N 434.293 -2.00149 -4.64515 0
M  V30 4639 C 432.591 -0.665783 -4.41003 0
M  V30 4640 C 433.292 -2.60764 -5.19978 0
M  V30 4641 N 432.268 -1.88868 -5.09735 0
M  V30 4642 H 436.07 -1.42921 -2.56809 0
M  V30 4643 H 433.584 -0.876142 -1.36739 0
M  V30 4644 H 435.581 0.46662 -4.1428 0
M  V30 4645 H 434.241 0.994115 -3.09107 0
M  V30 4646 H 435.252 -2.38162 -4.5989 0
M  V30 4647 H 431.929 0.163456 -4.1718 0
M  V30 4648 H 433.319 -3.58519 -5.68255 0
M  V30 4649 N 436.039 1.36541 -0.78704 0
M  V30 4650 C 437.285 1.99599 -0.358872 0
M  V30 4651 C 437.618 1.62323 1.06606 0
M  V30 4652 O 436.893 0.876858 1.73613 0
M  V30 4653 C 437.176 3.56327 -0.519944 0
M  V30 4654 C 437.029 4.03464 -1.98839 0
M  V30 4655 C 438.348 4.4005 0.0664737 0
M  V30 4656 H 435.467 0.725107 -0.131869 0
M  V30 4657 H 438.109 1.6199 -0.992936 0
M  V30 4658 H 436.259 3.88495 0.0198321 0
M  V30 4659 H 437.931 3.81793 -2.58905 0
M  V30 4660 H 436.174 3.55092 -2.49183 0
M  V30 4661 H 436.845 5.12439 -2.05207 0
M  V30 4662 H 439.321 4.14228 -0.394267 0
M  V30 4663 H 438.197 5.48847 -0.0762682 0
M  V30 4664 H 438.458 4.26655 1.15835 0
M  V30 4665 N 437.518 0.538854 1.48102 0
M  V30 4666 C 438.929 0.100679 1.86428 0
M  V30 4667 C 439.28 -1.32447 1.44749 0
M  V30 4668 O 438.405 -1.99339 0.842199 0
M  V30 4669 C 439 0.175933 3.38343 0
M  V30 4670 C 437.559 -0.207098 3.7583 0
M  V30 4671 C 436.706 0.531741 2.72154 0
M  V30 4672 H 439.657 0.749614 1.3988 0
M  V30 4673 H 439.678 -0.610144 3.75576 0
M  V30 4674 H 439.19 1.21328 3.68648 0
M  V30 4675 H 437.291 -1.24626 3.5114 0
M  V30 4676 H 437.404 0.138687 4.78899 0
M  V30 4677 H 435.768 -0.0230462 2.5469 0
M  V30 4678 H 436.551 1.56989 3.05302 0
M  V30 4679 N 438.996 -1.55193 0.274407 0
M  V30 4680 C 440.243 -1.99581 -0.342579 0
M  V30 4681 C 440.571 -1.1628 -1.55914 0
M  V30 4682 O 439.826 -0.22029 -1.94456 0
M  V30 4683 C 440.125 -3.49019 -0.769458 0
M  V30 4684 C 439.791 -4.49598 0.342389 0
M  V30 4685 C 438.453 -4.76821 0.647686 0
M  V30 4686 C 440.805 -5.0964 1.09163 0
M  V30 4687 C 438.133 -5.61354 1.70581 0
M  V30 4688 C 440.485 -5.95323 2.13948 0
M  V30 4689 C 439.149 -6.20867 2.45113 0
M  V30 4690 H 438.419 -0.730319 -0.125358 0
M  V30 4691 H 441.066 -1.87529 0.387971 0
M  V30 4692 H 439.371 -3.58544 -1.57967 0
M  V30 4693 H 441.068 -3.8077 -1.25757 0
M  V30 4694 H 437.658 -4.28496 0.094318 0
M  V30 4695 H 441.842 -4.88632 0.869024 0
M  V30 4696 H 437.098 -5.79392 1.9523 0
M  V30 4697 H 441.272 -6.40881 2.72478 0
M  V30 4698 H 438.899 -6.86162 3.27239 0
M  V30 4699 N 440.474 -0.00167713 -1.576 0
M  V30 4700 C 441.702 0.693759 -1.94922 0
M  V30 4701 C 442.117 1.67215 -0.876626 0
M  V30 4702 O 441.474 1.81929 0.144279 0
M  V30 4703 C 441.525 1.42416 -3.32265 0
M  V30 4704 O 441.246 0.485014 -4.35407 0
M  V30 4705 C 442.747 2.21395 -3.84056 0
M  V30 4706 H 439.967 0.193118 -0.642609 0
M  V30 4707 H 442.511 -0.0532952 -2.04431 0
M  V30 4708 H 440.666 2.12284 -3.24059 0
M  V30 4709 H 441.08 1.00053 -5.14868 0
M  V30 4710 H 442.554 2.67996 -4.82578 0
M  V30 4711 H 443.031 3.04142 -3.16851 0
M  V30 4712 H 443.637 1.56542 -3.95443 0
M  V30 4713 N 441.952 1.55251 0.271103 0
M  V30 4714 C 443.2 1.75599 1.00047 0
M  V30 4715 C 443.521 0.561188 1.8675 0
M  V30 4716 O 442.791 -0.423846 1.9126 0
M  V30 4717 H 441.371 0.647562 0.372387 0
M  V30 4718 H 444.033 1.92656 0.294876 0
M  V30 4719 H 443.129 2.65766 1.6363 0
M  V30 4720 N 443.43 -0.535701 1.48216 0
M  V30 4721 C 444.841 -1.11769 1.49548 0
M  V30 4722 C 445.192 -1.94442 0.26207 0
M  V30 4723 O 444.317 -2.06987 -0.631287 0
M  V30 4724 C 444.912 -2.03367 2.70975 0
M  V30 4725 C 443.471 -2.56795 2.75196 0
M  V30 4726 C 442.618 -1.33631 2.42977 0
M  V30 4727 H 445.569 -0.321232 1.55415 0
M  V30 4728 H 445.59 -2.87569 2.49167 0
M  V30 4729 H 445.102 -1.43169 3.60727 0
M  V30 4730 H 443.203 -3.20731 1.89638 0
M  V30 4731 H 443.316 -2.9632 3.76472 0
M  V30 4732 H 441.68 -1.6502 1.94012 0
M  V30 4733 H 442.463 -0.75194 3.34964 0
M  V30 4734 N 444.908 -1.36708 -0.784132 0
M  V30 4735 C 445.871 -1.31307 -1.87859 0
M  V30 4736 C 446.871 -0.219654 -1.59293 0
M  V30 4737 O 448.061 -0.47476 -1.67606 0
M  V30 4738 C 445.193 -1.03679 -3.24751 0
M  V30 4739 H 446.386 -2.28647 -1.94064 0
M  V30 4740 H 443.939 -1.21558 -0.98252 0
M  V30 4741 H 444.674 -0.0681936 -3.24228 0
M  V30 4742 H 444.459 -1.82811 -3.46876 0
M  V30 4743 H 445.949 -1.02518 -4.04821 0
M  V30 4744 N 446.386 1.0089 -1.21074 0
M  V30 4745 C 447.316 2.1145 -0.990523 0
M  V30 4746 C 448.297 1.69897 0.0831699 0
M  V30 4747 O 449.482 1.94052 -0.0758853 0
M  V30 4748 C 446.612 3.42914 -0.550177 0
M  V30 4749 C 445.566 3.98244 -1.56799 0
M  V30 4750 C 444.892 5.25568 -0.984013 0
M  V30 4751 C 446.192 4.30752 -2.95381 0
M  V30 4752 H 447.886 2.3013 -1.91521 0
M  V30 4753 H 445.432 1.10592 -0.92225 0
M  V30 4754 H 447.385 4.19653 -0.383305 0
M  V30 4755 H 446.109 3.24014 0.41015 0
M  V30 4756 H 444.768 3.23621 -1.72236 0
M  V30 4757 H 444.416 5.02998 -0.0155216 0
M  V30 4758 H 444.116 5.63551 -1.66384 0
M  V30 4759 H 445.64 6.04955 -0.828378 0
M  V30 4760 H 447.054 4.98349 -2.8341 0
M  V30 4761 H 445.451 4.79869 -3.60341 0
M  V30 4762 H 446.521 3.39192 -3.46521 0
M  V30 4763 N 447.864 1.01787 1.20321 0
M  V30 4764 C 449.089 0.727009 1.9424 0
M  V30 4765 C 449.514 -0.706179 1.74341 0
M  V30 4766 O 448.872 -1.48609 1.03852 0
M  V30 4767 C 448.92 1.06958 3.44372 0
M  V30 4768 O 448.024 0.181983 4.11998 0
M  V30 4769 H 447.365 0.269626 0.606793 0
M  V30 4770 H 449.895 1.36158 1.52716 0
M  V30 4771 H 449.905 1.02182 3.94997 0
M  V30 4772 H 448.58 2.11378 3.58179 0
M  V30 4773 H 447.157 0.287378 3.71791 0
M  V30 4774 N 449.342 -1.36122 0.79427 0
M  V30 4775 C 450.567 -2.03891 0.379871 0
M  V30 4776 C 450.992 -1.59488 -0.997251 0
M  V30 4777 O 450.35 -0.765652 -1.64339 0
M  V30 4778 C 450.398 -3.57687 0.457442 0
M  V30 4779 O 449.502 -4.08931 -0.5338 0
M  V30 4780 H 448.843 -0.6443 0.160541 0
M  V30 4781 H 451.373 -1.73976 1.07673 0
M  V30 4782 H 451.383 -4.06721 0.322792 0
M  V30 4783 H 450.058 -3.89357 1.46199 0
M  V30 4784 H 448.635 -3.71154 -0.360409 0
M  V30 4785 N 450.82 -0.546701 -1.47814 0
M  V30 4786 C 451.783 0.196287 -2.28358 0
M  V30 4787 C 452.783 0.852437 -1.36346 0
M  V30 4788 O 453.973 0.709913 -1.59078 0
M  V30 4789 C 451.105 1.28579 -3.15722 0
M  V30 4790 H 452.298 -0.511086 -2.95513 0
M  V30 4791 H 449.851 -0.303248 -1.5333 0
M  V30 4792 H 450.586 2.0259 -2.53235 0
M  V30 4793 H 450.371 0.820229 -3.83425 0
M  V30 4794 H 451.861 1.80793 -3.76435 0
M  V30 4795 N 452.299 1.55045 -0.282633 0
M  V30 4796 C 453.229 2.2579 0.595066 0
M  V30 4797 C 454.21 1.25074 1.15284 0
M  V30 4798 O 455.395 1.5381 1.18559 0
M  V30 4799 C 452.525 2.98472 1.77572 0
M  V30 4800 C 451.479 4.0618 1.34914 0
M  V30 4801 C 450.805 4.66477 2.6135 0
M  V30 4802 C 452.105 5.1996 0.493821 0
M  V30 4803 H 453.799 2.994 0.00505653 0
M  V30 4804 H 451.345 1.44 0.000992001 0
M  V30 4805 H 453.298 3.46677 2.39568 0
M  V30 4806 H 452.022 2.2241 2.39168 0
M  V30 4807 H 450.681 3.58797 0.752338 0
M  V30 4808 H 450.329 3.87074 3.2122 0
M  V30 4809 H 450.029 5.39207 2.33516 0
M  V30 4810 H 451.553 5.17435 3.24181 0
M  V30 4811 H 452.967 5.64172 1.01898 0
M  V30 4812 H 451.364 5.99299 0.310047 0
M  V30 4813 H 452.434 4.82462 -0.485593 0
M  V30 4814 N 453.777 0.010035 1.57597 0
M  V30 4815 C 454.707 -0.976857 2.12084 0
M  V30 4816 C 455.688 -1.35191 1.03235 0
M  V30 4817 O 456.873 -1.43389 1.3097 0
M  V30 4818 C 454.003 -2.26548 2.63236 0
M  V30 4819 C 452.957 -2.03175 3.76701 0
M  V30 4820 C 452.283 -3.38138 4.14206 0
M  V30 4821 C 453.583 -1.38625 5.03568 0
M  V30 4822 H 455.277 -0.523145 2.94794 0
M  V30 4823 H 452.823 -0.250195 1.4181 0
M  V30 4824 H 454.776 -2.95952 2.99984 0
M  V30 4825 H 453.5 -2.74051 1.77661 0
M  V30 4826 H 452.159 -1.36195 3.40362 0
M  V30 4827 H 451.807 -3.83363 3.25641 0
M  V30 4828 H 451.507 -3.23312 4.90656 0
M  V30 4829 H 453.031 -4.08841 4.53521 0
M  V30 4830 H 454.445 -1.98 5.38023 0
M  V30 4831 H 452.842 -1.34256 5.84889 0
M  V30 4832 H 453.912 -0.356722 4.83586 0
M  V30 4833 N 455.255 -1.55392 -0.262866 0
M  V30 4834 C 456.502 -1.76476 -0.993109 0
M  V30 4835 C 456.83 -0.571479 -1.85915 0
M  V30 4836 O 456.085 0.445733 -1.90556 0
M  V30 4837 C 456.384 -3.02889 -1.89718 0
M  V30 4838 C 456.05 -4.34974 -1.18781 0
M  V30 4839 C 454.712 -4.7087 -0.991699 0
M  V30 4840 C 457.064 -5.16695 -0.683798 0
M  V30 4841 C 454.392 -5.86036 -0.279024 0
M  V30 4842 C 456.744 -6.32598 0.0153327 0
M  V30 4843 C 455.408 -6.67127 0.223062 0
M  V30 4844 H 454.678 -0.64577 -0.363404 0
M  V30 4845 H 457.325 -1.89664 -0.264525 0
M  V30 4846 H 455.63 -2.84644 -2.6923 0
M  V30 4847 H 457.327 -3.16399 -2.46359 0
M  V30 4848 H 453.917 -4.06765 -1.35058 0
M  V30 4849 H 458.101 -4.8943 -0.8229 0
M  V30 4850 H 453.357 -6.11306 -0.107456 0
M  V30 4851 H 457.531 -6.95171 0.413584 0
M  V30 4852 H 455.158 -7.56216 0.777265 0
M  V30 4853 N 456.733 0.527833 -1.48498 0
M  V30 4854 C 458.01 1.28905 -1.47115 0
M  V30 4855 C 458.39 2.10297 -0.184007 0
M  V30 4856 O 457.738 2.12728 0.834218 0
M  V30 4857 C 457.948 2.16866 -2.73441 0
M  V30 4858 C 459.296 2.76936 -3.21857 0
M  V30 4859 O 460.32 2.27152 -2.74373 0
M  V30 4860 O 459.179 3.67496 -4.04486 0
M  V30 4861 H 456.273 0.581918 -0.587623 0
M  V30 4862 H 458.819 0.544311 -1.60734 0
M  V30 4863 H 457.591 1.56521 -3.58632 0
M  V30 4864 H 457.214 2.98583 -2.62553 0
M  V30 4865 N 458.211 1.37122 0.776871 0
M  V30 4866 C 459.174 1.32301 1.8716 0
M  V30 4867 C 460.174 0.228099 1.59174 0
M  V30 4868 O 461.364 0.483642 1.67352 0
M  V30 4869 C 458.496 1.054 3.24197 0
M  V30 4870 H 459.689 2.29673 1.92848 0
M  V30 4871 H 457.242 1.22077 0.97606 0
M  V30 4872 H 457.977 0.0853872 3.24188 0
M  V30 4873 H 457.762 1.84648 3.45901 0
M  V30 4874 H 459.252 1.04664 4.04271 0
M  V30 4875 N 459.689 -1.00246 1.21608 0
M  V30 4876 C 460.935 -1.74319 1.03638 0
M  V30 4877 C 461.268 -1.89408 -0.428749 0
M  V30 4878 O 460.543 -1.43026 -1.3181 0
M  V30 4879 C 460.826 -3.15431 1.73711 0
M  V30 4880 C 460.679 -3.08049 3.27759 0
M  V30 4881 C 461.998 -4.14407 1.48173 0
M  V30 4882 H 459.117 -0.632741 0.377899 0
M  V30 4883 H 461.759 -1.16853 1.49818 0
M  V30 4884 H 459.909 -3.64493 1.34452 0
M  V30 4885 H 461.581 -2.66681 3.76403 0
M  V30 4886 H 459.824 -2.45088 3.57931 0
M  V30 4887 H 460.495 -4.07862 3.71958 0
M  V30 4888 H 462.971 -3.74061 1.82258 0
M  V30 4889 H 461.847 -5.11279 1.99713 0
M  V30 4890 H 462.108 -4.40174 0.412273 0
M  V30 4891 N 461.167 -1.02423 -1.1978 0
M  V30 4892 C 462.397 -0.736387 -1.93031 0
M  V30 4893 C 462.805 0.708023 -1.75453 0
M  V30 4894 O 462.148 1.4927 -1.07071 0
M  V30 4895 C 462.21 -1.00194 -3.45255 0
M  V30 4896 C 461.874 -2.43698 -3.86601 0
M  V30 4897 C 462.871 -3.41814 -3.91738 0
M  V30 4898 C 460.556 -2.77975 -4.18372 0
M  V30 4899 C 462.55 -4.72265 -4.28071 0
M  V30 4900 C 460.237 -4.08636 -4.54378 0
M  V30 4901 C 461.235 -5.05592 -4.59201 0
M  V30 4902 O 460.923 -6.33914 -4.94376 0
M  V30 4903 H 460.655 -0.269116 -0.620123 0
M  V30 4904 H 463.209 -1.37043 -1.52998 0
M  V30 4905 H 461.439 -0.310747 -3.85449 0
M  V30 4906 H 463.128 -0.704488 -3.9974 0
M  V30 4907 H 463.894 -3.16671 -3.67348 0
M  V30 4908 H 459.773 -2.0319 -4.13805 0
M  V30 4909 H 463.317 -5.4794 -4.3175 0
M  V30 4910 H 459.214 -4.33556 -4.78226 0
M  V30 4911 H 459.982 -6.38317 -5.12341 0
M  V30 4912 N 462.645 1.35699 -0.801477 0
M  V30 4913 C 463.608 2.28199 -0.213994 0
M  V30 4914 C 464.608 1.49359 0.595691 0
M  V30 4915 O 465.798 1.69186 0.414921 0
M  V30 4916 C 462.93 3.33587 0.702297 0
M  V30 4917 H 464.123 2.81666 -1.02976 0
M  V30 4918 H 461.676 1.45467 -0.571759 0
M  V30 4919 H 462.411 2.85297 1.54195 0
M  V30 4920 H 462.196 3.91906 0.123484 0
M  V30 4921 H 463.686 4.02638 1.10783 0
M  V30 4922 N 464.123 0.554532 1.47522 0
M  V30 4923 C 465.369 0.0295227 2.02779 0
M  V30 4924 C 465.702 -1.31582 1.42828 0
M  V30 4925 O 464.977 -1.85561 0.582872 0
M  V30 4926 C 465.26 -0.0664057 3.60039 0
M  V30 4927 C 465.113 1.30585 4.30427 0
M  V30 4928 C 466.432 -0.781162 4.33112 0
M  V30 4929 H 463.551 0.0122027 0.736899 0
M  V30 4930 H 466.193 0.716305 1.7598 0
M  V30 4931 H 464.343 -0.651307 3.83002 0
M  V30 4932 H 466.015 1.93374 4.18813 0
M  V30 4933 H 464.258 1.88125 3.90886 0
M  V30 4934 H 464.929 1.19147 5.38988 0
M  V30 4935 H 467.405 -0.284565 4.15126 0
M  V30 4936 H 466.281 -0.817237 5.42782 0
M  V30 4937 H 466.542 -1.83672 4.0214 0
M  V30 4938 N 465.601 -1.54893 0.290851 0
M  V30 4939 C 466.847 -2.0023 -0.321867 0
M  V30 4940 C 467.18 -1.179 -1.54316 0
M  V30 4941 O 466.455 -0.25293 -1.92848 0
M  V30 4942 C 466.738 -3.53456 -0.688515 0
M  V30 4943 C 466.591 -4.46532 0.541209 0
M  V30 4944 C 467.91 -4.13057 -1.51895 0
M  V30 4945 H 465.029 -0.727891 -0.115515 0
M  V30 4946 H 467.671 -1.85722 0.400931 0
M  V30 4947 H 465.821 -3.6595 -1.30433 0
M  V30 4948 H 467.493 -4.4596 1.17973 0
M  V30 4949 H 465.736 -4.17545 1.17636 0
M  V30 4950 H 466.407 -5.51475 0.240675 0
M  V30 4951 H 468.883 -4.03937 -0.99872 0
M  V30 4952 H 467.759 -5.20448 -1.74429 0
M  V30 4953 H 468.02 -3.64284 -2.50498 0
M  V30 4954 N 467.08 -0.0183926 -1.57589 0
M  V30 4955 C 468.308 0.673046 -1.95647 0
M  V30 4956 C 468.723 1.66275 -0.894312 0
M  V30 4957 O 468.08 1.82072 0.124975 0
M  V30 4958 C 468.131 1.38884 -3.33756 0
M  V30 4959 O 467.852 0.438806 -4.35897 0
M  V30 4960 C 469.353 2.1731 -3.86383 0
M  V30 4961 H 466.573 0.186292 -0.644621 0
M  V30 4962 H 469.117 -0.0749748 -2.04363 0
M  V30 4963 H 467.272 2.08835 -3.26293 0
M  V30 4964 H 467.686 0.945869 -5.15901 0
M  V30 4965 H 469.16 2.62863 -4.85394 0
M  V30 4966 H 469.637 3.00764 -3.20059 0
M  V30 4967 H 470.243 1.52339 -3.97081 0
M  V30 4968 N 468.558 1.5553 0.254621 0
M  V30 4969 C 469.521 1.88872 1.29846 0
M  V30 4970 C 470.521 0.764591 1.41459 0
M  V30 4971 O 471.711 1.03265 1.40293 0
M  V30 4972 C 468.843 2.11032 2.67728 0
M  V30 4973 H 470.036 2.82201 1.01502 0
M  V30 4974 H 467.589 1.48303 0.493556 0
M  V30 4975 H 468.324 1.20146 3.01223 0
M  V30 4976 H 468.109 2.92895 2.60682 0
M  V30 4977 H 469.599 2.38038 3.43115 0
M  V30 4978 N 470.036 -0.519951 1.48776 0
M  V30 4979 C 471.282 -1.27711 1.57536 0
M  V30 4980 C 471.615 -1.92547 0.252866 0
M  V30 4981 O 470.89 -1.7979 -0.742021 0
M  V30 4982 C 471.173 -2.35875 2.72094 0
M  V30 4983 C 471.026 -1.75664 4.1408 0
M  V30 4984 C 472.345 -3.37575 2.82367 0
M  V30 4985 H 469.464 -0.462971 0.573434 0
M  V30 4986 H 472.106 -0.578194 1.80989 0
M  V30 4987 H 470.256 -2.95488 2.52228 0
M  V30 4988 H 471.928 -1.20025 4.45412 0
M  V30 4989 H 470.171 -1.06154 4.20611 0
M  V30 4990 H 470.842 -2.54029 4.90075 0
M  V30 4991 H 473.318 -2.87929 3.00393 0
M  V30 4992 H 472.194 -4.1064 3.64233 0
M  V30 4993 H 472.455 -3.98743 1.90936 0
M  V30 4994 N 471.514 -1.37532 -0.769588 0
M  V30 4995 C 472.446 -1.29347 -1.89214 0
M  V30 4996 C 473.459 -0.208842 -1.61455 0
M  V30 4997 O 474.648 -0.465158 -1.72333 0
M  V30 4998 C 471.748 -0.977649 -3.24492 0
M  V30 4999 C 470.921 -2.16817 -3.7988 0
M  V30 5000 C 469.98 -1.82229 -4.93639 0
M  V30 5001 O 469.006 -2.54548 -5.09111 0
M  V30 5002 N 470.208 -0.767696 -5.75401 0
M  V30 5003 H 472.973 -2.26073 -1.96751 0
M  V30 5004 H 470.534 -1.31185 -0.948795 0
M  V30 5005 H 472.526 -0.727065 -3.98115 0
M  V30 5006 H 471.096 -0.0988777 -3.12444 0
M  V30 5007 H 470.316 -2.58038 -2.9801 0
M  V30 5008 H 471.604 -2.96308 -4.13617 0
M  V30 5009 H 471.002 -0.167626 -5.65452 0
M  V30 5010 H 469.559 -0.576973 -6.49241 0
M  V30 5011 N 472.992 0.995999 -1.22138 0
M  V30 5012 C 473.902 2.11985 -1.00496 0
M  V30 5013 C 474.918 1.7394 0.0457701 0
M  V30 5014 O 476.094 2.00868 -0.146273 0
M  V30 5015 C 473.159 3.41779 -0.582086 0
M  V30 5016 C 472.22 3.93943 -1.70608 0
M  V30 5017 C 471.453 5.17542 -1.30328 0
M  V30 5018 O 471.676 5.70114 -0.180743 0
M  V30 5019 O 470.61 5.63382 -2.11861 0
M  V30 5020 H 474.436 2.33123 -1.94647 0
M  V30 5021 H 472.021 1.10358 -1.00705 0
M  V30 5022 H 473.903 4.1989 -0.356467 0
M  V30 5023 H 472.578 3.22007 0.330592 0
M  V30 5024 H 471.485 3.17019 -1.98619 0
M  V30 5025 H 472.818 4.18141 -2.59651 0
M  V30 5026 N 474.47 1.03057 1.19235 0
M  V30 5027 C 475.4 0.633497 2.24742 0
M  V30 5028 C 476.381 -0.358335 1.66283 0
M  V30 5029 O 477.566 -0.240676 1.92703 0
M  V30 5030 C 474.696 -0.0147648 3.47297 0
M  V30 5031 C 473.65 0.899527 4.18441 0
M  V30 5032 C 472.976 0.116281 5.34574 0
M  V30 5033 C 474.276 2.21404 4.73051 0
M  V30 5034 H 475.97 1.5155 2.58211 0
M  V30 5035 H 473.516 0.73014 1.24117 0
M  V30 5036 H 475.469 -0.304202 4.20301 0
M  V30 5037 H 474.193 -0.931577 3.13032 0
M  V30 5038 H 472.852 1.17319 3.47321 0
M  V30 5039 H 472.5 -0.802619 4.96555 0
M  V30 5040 H 472.2 0.725293 5.83107 0
M  V30 5041 H 473.724 -0.166376 6.10373 0
M  V30 5042 H 475.138 1.98601 5.37802 0
M  V30 5043 H 473.535 2.77512 5.32078 0
M  V30 5044 H 474.605 2.86752 3.91026 0
M  V30 5045 N 475.948 -1.35272 0.808662 0
M  V30 5046 C 476.896 -2.31663 0.208606 0
M  V30 5047 C 477.89 -1.56731 -0.642778 0
M  V30 5048 O 479.096 -1.71843 -0.53571 0
M  V30 5049 H 475.471 -0.750421 0.0486993 0
M  V30 5050 H 477.442 -2.79814 1.03666 0
M  V30 5051 C 476.191 -3.42008 -0.626573 0
M  V30 5052 H 475.514 -3.99795 0.0192103 0
M  V30 5053 H 476.954 -4.11727 -1.01278 0
M  V30 5054 C 475.413 -2.85226 -1.79298 0
M  V30 5055 O 475.943 -2.78945 -2.89055 0
M  V30 5056 N 474.149 -2.42245 -1.60516 0
M  V30 5057 H 473.696 -2.47554 -0.712375 0
M  V30 5058 H 473.654 -2.04603 -2.38715 0
M  V30 5059 N 477.426 -0.562348 -1.47226 0
M  V30 5060 C 478.842 -0.222492 -1.58042 0
M  V30 5061 C 479.042 1.27505 -1.56028 0
M  V30 5062 O 478.098 2.05555 -1.46641 0
M  V30 5063 C 479.411 -0.853694 -2.88327 0
M  V30 5064 C 480.959 -0.825397 -3.01921 0
M  V30 5065 C 481.434 -1.43576 -4.34914 0
M  V30 5066 N 482.925 -1.39918 -4.41562 0
M  V30 5067 C 483.66 -1.84103 -5.43041 0
M  V30 5068 N 483.156 -2.36167 -6.51304 0
M  V30 5069 N 484.949 -1.75142 -5.34118 0
M  V30 5070 H 477.1 -1.53525 -1.46778 0
M  V30 5071 H 479.363 -0.640527 -0.698877 0
M  V30 5072 H 479.069 -1.90635 -2.95552 0
M  V30 5073 H 478.943 -0.34977 -3.75575 0
M  V30 5074 H 481.33 0.218583 -2.94289 0
M  V30 5075 H 481.411 -1.36713 -2.16202 0
M  V30 5076 H 481.055 -2.47884 -4.43301 0
M  V30 5077 H 480.985 -0.869427 -5.19373 0
M  V30 5078 H 483.476 -1.0184 -3.63919 0
M  V30 5079 H 483.789 -2.67793 -7.24919 0
M  V30 5080 H 482.134 -2.40181 -6.52179 0
M  V30 5081 H 485.325 -1.34241 -4.48439 0
M  V30 5082 H 485.498 -2.09895 -6.13065 0
M  V30 5083 N 478.904 1.54736 -0.299062 0
M  V30 5084 C 480.129 2.04975 0.316254 0
M  V30 5085 C 480.554 1.17501 1.46885 0
M  V30 5086 O 479.912 0.178678 1.80417 0
M  V30 5087 C 479.96 3.52672 0.751997 0
M  V30 5088 O 479.064 3.68226 1.85697 0
M  V30 5089 H 478.405 0.661126 0.0617175 0
M  V30 5090 H 480.935 1.99805 -0.440341 0
M  V30 5091 H 480.945 3.94488 1.04133 0
M  V30 5092 H 479.62 4.158 -0.0911482 0
M  V30 5093 H 478.197 3.38316 1.56834 0
M  V30 5094 N 480.382 0.0267497 1.57577 0
M  V30 5095 C 481.314 -0.984594 2.06974 0
M  V30 5096 C 482.327 -1.29032 0.992705 0
M  V30 5097 O 483.516 -1.25539 1.26895 0
M  V30 5098 C 480.616 -2.31262 2.47732 0
M  V30 5099 C 479.789 -2.1924 3.78487 0
M  V30 5100 C 478.848 -3.34956 4.05821 0
M  V30 5101 O 477.874 -3.11948 4.76106 0
M  V30 5102 N 479.076 -4.58672 3.55809 0
M  V30 5103 H 481.841 -0.563143 2.94362 0
M  V30 5104 H 479.402 -0.160061 1.61107 0
M  V30 5105 H 481.394 -3.07496 2.63112 0
M  V30 5106 H 479.964 -2.65056 1.65723 0
M  V30 5107 H 479.184 -1.27747 3.72927 0
M  V30 5108 H 480.472 -2.08409 4.64158 0
M  V30 5109 H 479.87 -4.8026 2.98942 0
M  V30 5110 H 478.427 -5.32083 3.76472 0
M  V30 5111 N 481.861 -1.55662 -0.24637 0
M  V30 5112 C 482.771 -1.93495 -1.32653 0
M  V30 5113 C 483.787 -0.835462 -1.5263 0
M  V30 5114 O 484.963 -1.1369 -1.66242 0
M  V30 5115 C 482.028 -2.22242 -2.66101 0
M  V30 5116 C 481.089 -3.45625 -2.54641 0
M  V30 5117 C 480.322 -3.72991 -3.81724 0
M  V30 5118 O 480.545 -3.02421 -4.8363 0
M  V30 5119 O 479.479 -4.66515 -3.80325 0
M  V30 5120 H 483.305 -2.85498 -1.03559 0
M  V30 5121 H 480.89 -1.42551 -0.44717 0
M  V30 5122 H 482.772 -2.42037 -3.44958 0
M  V30 5123 H 481.447 -1.33417 -2.94926 0
M  V30 5124 H 480.354 -3.31136 -1.74067 0
M  V30 5125 H 481.687 -4.34754 -2.3076 0
M  V30 5126 N 483.339 0.512053 -1.4905 0
M  V30 5127 C 484.588 1.26343 -1.57227 0
M  V30 5128 C 484.901 1.93876 -0.259155 0
M  V30 5129 O 486.107 2.70612 -0.219358 0
M  V30 5130 C 484.563 2.29343 -2.77362 0
M  V30 5131 C 484.171 1.67799 -4.15388 0
M  V30 5132 C 485.915 3.05378 -2.94864 0
M  V30 5133 C 483.822 2.68845 -5.2676 0
M  V30 5134 H 482.752 0.475231 -0.585382 0
M  V30 5135 H 485.403 0.53862 -1.75417 0
M  V30 5136 H 483.785 3.04938 -2.52643 0
M  V30 5137 H 484.959 0.982715 -4.50199 0
M  V30 5138 H 483.274 1.04194 -4.03153 0
M  V30 5139 H 485.871 3.80921 -3.75238 0
M  V30 5140 H 486.214 3.62327 -2.05 0
M  V30 5141 H 486.747 2.36898 -3.19569 0
M  V30 5142 H 483.486 2.16692 -6.18647 0
M  V30 5143 H 483.006 3.36647 -4.96416 0
M  V30 5144 H 484.685 3.31487 -5.5563 0
M  V30 5145 N 484.817 1.37938 0.762283 0
M  V30 5146 C 486.065 1.33404 1.51815 0
M  V30 5147 C 486.386 -0.0780975 1.94844 0
M  V30 5148 O 485.656 -1.02405 1.67003 0
M  V30 5149 H 484.236 0.490839 0.563104 0
M  V30 5150 H 486.898 1.72527 0.906669 0
M  V30 5151 H 485.994 1.97926 2.41313 0
M  V30 5152 N 486.295 -0.989507 1.22664 0
M  V30 5153 C 487.541 -1.7321 1.05481 0
M  V30 5154 C 487.874 -1.89852 -0.408635 0
M  V30 5155 O 487.149 -1.44416 -1.30285 0
M  V30 5156 C 487.432 -3.1357 1.77047 0
M  V30 5157 C 487.285 -3.04555 3.31008 0
M  V30 5158 C 488.604 -4.12812 1.5256 0
M  V30 5159 H 485.723 -0.628697 0.384589 0
M  V30 5160 H 488.365 -1.15258 1.51049 0
M  V30 5161 H 486.515 -3.63046 1.3831 0
M  V30 5162 H 488.187 -2.62674 3.7921 0
M  V30 5163 H 486.43 -2.41278 3.6051 0
M  V30 5164 H 487.101 -4.03894 3.76263 0
M  V30 5165 H 489.577 -3.72106 1.86215 0
M  V30 5166 H 488.453 -5.09132 2.05124 0
M  V30 5167 H 488.714 -4.39711 0.458936 0
M  V30 5168 N 487.773 -1.03688 -1.18687 0
M  V30 5169 C 488.72 -0.624624 -2.22187 0
M  V30 5170 C 489.69 0.365636 -1.62026 0
M  V30 5171 O 490.875 0.260481 -1.89014 0
M  V30 5172 C 488.015 0.0101738 -3.45099 0
M  V30 5173 C 487.128 -1.02709 -4.19613 0
M  V30 5174 C 486.263 -0.361213 -5.2997 0
M  V30 5175 C 485.302 -1.38384 -5.96252 0
M  V30 5176 N 484.439 -0.743196 -6.98155 0
M  V30 5177 H 489.279 -1.51176 -2.56807 0
M  V30 5178 H 486.816 -0.75636 -1.26165 0
M  V30 5179 H 488.774 0.395528 -4.15321 0
M  V30 5180 H 487.404 0.860848 -3.1111 0
M  V30 5181 H 486.456 -1.53043 -3.48256 0
M  V30 5182 H 487.768 -1.80398 -4.65036 0
M  V30 5183 H 486.922 0.0785537 -6.06649 0
M  V30 5184 H 485.661 0.447799 -4.8564 0
M  V30 5185 H 484.666 -1.83378 -5.18317 0
M  V30 5186 H 485.891 -2.19448 -6.42666 0
M  V30 5187 H 483.837 0.0455789 -6.55984 0
M  V30 5188 H 483.754 -1.45784 -7.41811 0
M  V30 5189 H 485.022 -0.327698 -7.78811 0
M  V30 5190 N 489.251 1.34841 -0.815825 0
M  V30 5191 C 490.662 1.80937 -0.46029 0
M  V30 5192 C 491.013 1.67685 1.01863 0
M  V30 5193 O 490.138 1.21277 1.79223 0
M  V30 5194 C 490.733 3.28509 -0.828708 0
M  V30 5195 C 489.292 3.72712 -0.525644 0
M  V30 5196 C 488.439 2.56676 -1.04941 0
M  V30 5197 H 491.39 1.22688 -1.00664 0
M  V30 5198 H 491.411 3.80279 -0.129757 0
M  V30 5199 H 490.923 3.38122 -1.90513 0
M  V30 5200 H 489.024 3.68642 0.541666 0
M  V30 5201 H 489.137 4.67119 -1.06474 0
M  V30 5202 H 487.501 2.50302 -0.471286 0
M  V30 5203 H 488.284 2.69063 -2.13214 0
M  V30 5204 N 490.729 0.570148 1.46925 0
M  V30 5205 C 491.659 -0.158274 2.32963 0
M  V30 5206 C 492.64 -0.896093 1.44583 0
M  V30 5207 O 493.825 -0.874022 1.7342 0
M  V30 5208 C 490.955 -1.18055 3.26619 0
M  V30 5209 C 489.909 -0.558379 4.24342 0
M  V30 5210 C 489.235 -1.68623 5.07415 0
M  V30 5211 C 490.535 0.496295 5.19937 0
M  V30 5212 H 492.229 0.560046 2.94115 0
M  V30 5213 H 489.775 0.270775 1.41431 0
M  V30 5214 H 491.728 -1.69841 3.85658 0
M  V30 5215 H 490.452 -1.92899 2.63548 0
M  V30 5216 H 489.111 -0.0617157 3.66548 0
M  V30 5217 H 488.759 -2.42402 4.40738 0
M  V30 5218 H 488.459 -1.27564 5.73586 0
M  V30 5219 H 489.983 -2.20709 5.69315 0
M  V30 5220 H 491.397 0.0640052 5.73264 0
M  V30 5221 H 489.794 0.82649 5.94381 0
M  V30 5222 H 490.864 1.38735 4.6463 0
M  V30 5223 N 492.207 -1.54576 0.307264 0
M  V30 5224 C 493.432 -2.05139 -0.305379 0
M  V30 5225 C 493.857 -1.18278 -1.46259 0
M  V30 5226 O 493.215 -0.188243 -1.8032 0
M  V30 5227 C 493.263 -3.53066 -0.733283 0
M  V30 5228 O 492.367 -3.69206 -1.83741 0
M  V30 5229 H 491.708 -0.661444 -0.0582105 0
M  V30 5230 H 494.238 -1.99569 0.450931 0
M  V30 5231 H 494.248 -3.95034 -1.02039 0
M  V30 5232 H 492.923 -4.15746 0.113198 0
M  V30 5233 H 491.5 -3.39143 -1.55037 0
M  V30 5234 N 493.685 -0.035106 -1.57561 0
M  V30 5235 C 494.925 0.646316 -1.93913 0
M  V30 5236 C 495.289 1.68947 -0.912185 0
M  V30 5237 O 496.49 2.42381 -1.1621 0
M  V30 5238 C 494.761 1.24136 -3.35149 0
M  V30 5239 S 496.32 1.94302 -3.93436 0
M  V30 5240 H 493.138 0.212642 -0.678457 0
M  V30 5241 H 495.74 -0.100203 -1.95243 0
M  V30 5242 H 494.444 0.46979 -4.07702 0
M  V30 5243 H 493.975 2.02505 -3.37276 0
M  V30 5244 H 495.99 3.22205 -3.77357 0
M  V30 5245 N 495.163 1.55791 0.238111 0
M  V30 5246 C 496.411 1.77681 0.963001 0
M  V30 5247 C 496.732 0.600674 1.85518 0
M  V30 5248 O 496.002 -0.383182 1.92116 0
M  V30 5249 H 494.582 0.655315 0.358568 0
M  V30 5250 H 497.244 1.93239 0.253945 0
M  V30 5251 H 496.34 2.69177 1.57956 0
M  V30 5252 N 496.642 -0.504142 1.49319 0
M  V30 5253 C 497.867 -1.28729 1.62615 0
M  V30 5254 C 498.292 -1.85752 0.296309 0
M  V30 5255 O 497.65 -1.65704 -0.735649 0
M  V30 5256 C 497.698 -2.39561 2.69524 0
M  V30 5257 O 496.802 -3.43324 2.28478 0
M  V30 5258 H 496.143 -0.380172 0.544395 0
M  V30 5259 H 498.673 -0.603872 1.95485 0
M  V30 5260 H 498.683 -2.8537 2.91595 0
M  V30 5261 H 497.358 -1.97423 3.66056 0
M  V30 5262 H 495.935 -3.03455 2.16725 0
M  V30 5263 N 498.12 -1.38341 -0.754957 0
M  V30 5264 C 499.083 -1.35262 -1.85032 0
M  V30 5265 C 500.083 -0.253393 -1.58791 0
M  V30 5266 O 501.273 -0.510205 -1.66561 0
M  V30 5267 C 498.405 -1.10544 -3.22479 0
M  V30 5268 H 499.598 -2.32712 -1.8917 0
M  V30 5269 H 497.151 -1.23614 -0.956515 0
M  V30 5270 H 497.886 -0.136952 -3.24011 0
M  V30 5271 H 497.671 -1.90127 -3.4292 0
M  V30 5272 H 499.161 -1.11082 -4.02555 0
M  V30 5273 N 499.598 0.982988 -1.23187 0
M  V30 5274 C 500.53 2.07729 -0.968572 0
M  V30 5275 C 501.543 1.62702 0.0564821 0
M  V30 5276 O 502.732 1.77603 -0.178733 0
M  V30 5277 C 499.832 3.36071 -0.436974 0
M  V30 5278 C 499.005 4.10081 -1.52159 0
M  V30 5279 C 498.064 5.16701 -0.99532 0
M  V30 5280 O 497.09 5.43727 -1.68373 0
M  V30 5281 N 498.292 5.80226 0.178192 0
M  V30 5282 H 501.057 2.30894 -1.9107 0
M  V30 5283 H 498.618 1.14949 -1.1401 0
M  V30 5284 H 500.61 4.04639 -0.0700051 0
M  V30 5285 H 499.18 3.09893 0.410509 0
M  V30 5286 H 498.4 3.36004 -2.06144 0
M  V30 5287 H 499.688 4.56295 -2.25105 0
M  V30 5288 H 499.086 5.60651 0.754096 0
M  V30 5289 H 497.643 6.49982 0.486449 0
M  V30 5290 N 501.076 1.04316 1.18135 0
M  V30 5291 C 502.325 0.74319 1.87509 0
M  V30 5292 C 502.638 -0.732136 1.81381 0
M  V30 5293 O 503.844 -1.14572 2.46141 0
M  V30 5294 C 502.3 1.27913 3.36402 0
M  V30 5295 C 501.908 2.78326 3.51053 0
M  V30 5296 C 503.652 1.0558 4.11161 0
M  V30 5297 C 501.559 3.25266 4.93919 0
M  V30 5298 H 500.489 0.274313 0.702331 0
M  V30 5299 H 503.14 1.25931 1.33467 0
M  V30 5300 H 501.522 0.690853 3.89927 0
M  V30 5301 H 502.696 3.42933 3.07788 0
M  V30 5302 H 501.011 2.991 2.89704 0
M  V30 5303 H 503.608 1.38161 5.16542 0
M  V30 5304 H 503.951 -0.00684729 4.16299 0
M  V30 5305 H 504.484 1.60882 3.63816 0
M  V30 5306 H 501.223 4.30922 4.9395 0
M  V30 5307 H 500.743 2.65396 5.3789 0
M  V30 5308 H 502.422 3.19433 5.62647 0
M  V30 5309 N 502.554 -1.34406 0.822964 0
M  V30 5310 C 503.8 -1.98999 0.420847 0
M  V30 5311 C 504.155 -1.64067 -1.00498 0
M  V30 5312 O 503.448 -0.902071 -1.69036 0
M  V30 5313 C 503.642 -3.52981 0.560268 0
M  V30 5314 C 503.471 -4.02873 1.99809 0
M  V30 5315 C 502.241 -4.31463 2.62998 0
M  V30 5316 C 504.439 -4.20241 2.96483 0
M  V30 5317 N 502.421 -4.6739 3.9802 0
M  V30 5318 C 503.792 -4.59348 4.16413 0
M  V30 5319 C 505.847 -4.02489 2.93098 0
M  V30 5320 C 504.55 -4.82559 5.33413 0
M  V30 5321 C 506.576 -4.26866 4.09315 0
M  V30 5322 C 505.938 -4.6626 5.27997 0
M  V30 5323 H 502.037 -0.755432 0.202104 0
M  V30 5324 H 504.621 -1.62815 1.06767 0
M  V30 5325 H 502.792 -3.88359 -0.0566596 0
M  V30 5326 H 504.524 -4.04487 0.131146 0
M  V30 5327 H 501.279 -4.22373 2.14238 0
M  V30 5328 H 501.703 -4.89588 4.67582 0
M  V30 5329 H 506.345 -3.71161 2.02483 0
M  V30 5330 H 504.063 -5.12754 6.24587 0
M  V30 5331 H 507.649 -4.14667 4.08096 0
M  V30 5332 H 506.529 -4.84752 6.16429 0
M  V30 5333 N 504.032 -0.577932 -1.46621 0
M  V30 5334 C 504.964 0.195801 -2.28362 0
M  V30 5335 C 505.977 0.859983 -1.38232 0
M  V30 5336 O 507.166 0.730349 -1.62875 0
M  V30 5337 C 504.266 1.29639 -3.13124 0
M  V30 5338 C 503.439 0.725049 -4.31349 0
M  V30 5339 C 502.498 1.71274 -4.97546 0
M  V30 5340 O 501.524 1.25067 -5.5529 0
M  V30 5341 N 502.726 3.04672 -4.94121 0
M  V30 5342 H 505.491 -0.505468 -2.95407 0
M  V30 5343 H 503.052 -0.415381 -1.56481 0
M  V30 5344 H 505.044 1.95631 -3.54275 0
M  V30 5345 H 503.614 1.90059 -2.48186 0
M  V30 5346 H 502.834 -0.112205 -3.9404 0
M  V30 5347 H 504.122 0.323034 -5.07774 0
M  V30 5348 H 503.52 3.4484 -4.48444 0
M  V30 5349 H 502.077 3.66166 -5.39227 0
M  V30 5350 N 505.51 1.54411 -0.315457 0
M  V30 5351 C 506.46 2.20772 0.569549 0
M  V30 5352 C 507.444 1.18551 1.08787 0
M  V30 5353 O 508.636 1.44213 1.02624 0
M  V30 5354 C 505.765 2.96293 1.73394 0
M  V30 5355 C 504.851 4.05844 1.2309 0
M  V30 5356 N 505.242 5.03822 0.446927 0
M  V30 5357 C 503.54 4.19648 1.51035 0
M  V30 5358 C 504.241 5.8143 0.17725 0
M  V30 5359 N 503.217 5.38245 0.761118 0
M  V30 5360 H 507.019 2.93877 -0.0368076 0
M  V30 5361 H 504.533 1.61949 -0.120915 0
M  V30 5362 H 506.53 3.42313 2.37965 0
M  V30 5363 H 505.19 2.24708 2.34386 0
M  V30 5364 H 506.201 5.17821 0.0905027 0
M  V30 5365 H 502.878 3.59274 2.1267 0
M  V30 5366 H 504.268 6.70369 -0.45335 0
M  V30 5367 N 506.988 0.0434614 1.5754 0
M  V30 5368 C 508.236 -0.630786 1.92004 0
M  V30 5369 C 508.557 -1.71836 0.921807 0
M  V30 5370 O 507.827 -1.9587 -0.034522 0
M  V30 5371 H 506.407 -0.235988 0.708745 0
M  V30 5372 H 509.069 0.0946462 1.9467 0
M  V30 5373 H 508.165 -1.07434 2.93026 0
M  V30 5374 N 508.466 -1.55915 -0.229846 0
M  V30 5375 C 509.694 -1.82617 -0.972562 0
M  V30 5376 C 510.109 -0.621488 -1.78278 0
M  V30 5377 O 509.466 0.409956 -1.77836 0
M  V30 5378 C 509.517 -3.0774 -1.89679 0
M  V30 5379 O 509.238 -4.23559 -1.11934 0
M  V30 5380 C 510.739 -3.47368 -2.75409 0
M  V30 5381 H 507.959 -0.60727 -0.285419 0
M  V30 5382 H 510.503 -2.02996 -0.247579 0
M  V30 5383 H 508.658 -2.89361 -2.57583 0
M  V30 5384 H 509.072 -4.94586 -1.74599 0
M  V30 5385 H 510.546 -4.37977 -3.35977 0
M  V30 5386 H 511.023 -2.68737 -3.47386 0
M  V30 5387 H 511.629 -3.68158 -2.12931 0
M  V30 5388 N 509.944 0.496216 -1.49584 0
M  V30 5389 C 511.169 1.27865 -1.63295 0
M  V30 5390 C 511.594 1.85592 -0.306156 0
M  V30 5391 O 510.952 1.66092 0.726851 0
M  V30 5392 C 511 2.38128 -2.7079 0
M  V30 5393 O 510.104 3.42108 -2.30296 0
M  V30 5394 H 509.445 0.377279 -0.546403 0
M  V30 5395 H 511.975 0.593497 -1.95803 0
M  V30 5396 H 511.985 2.8382 -2.93104 0
M  V30 5397 H 510.66 1.95479 -3.67098 0
M  V30 5398 H 509.237 3.02301 -2.18331 0
M  V30 5399 N 511.423 1.38739 0.74761 0
M  V30 5400 C 512.353 1.39173 1.87492 0
M  V30 5401 C 513.334 0.256794 1.6815 0
M  V30 5402 O 514.519 0.460762 1.88655 0
M  V30 5403 C 511.649 1.22197 3.25093 0
M  V30 5404 C 510.603 2.32957 3.59047 0
M  V30 5405 C 509.929 2.01082 4.95449 0
M  V30 5406 C 511.229 3.75237 3.6331 0
M  V30 5407 H 512.923 2.3351 1.87386 0
M  V30 5408 H 510.469 1.12399 0.900134 0
M  V30 5409 H 512.422 1.21124 4.03617 0
M  V30 5410 H 511.146 0.243241 3.25693 0
M  V30 5411 H 509.805 2.33226 2.82845 0
M  V30 5412 H 509.453 1.01678 4.92616 0
M  V30 5413 H 509.153 2.75267 5.19136 0
M  V30 5414 H 510.677 2.01638 5.76346 0
M  V30 5415 H 512.091 3.76966 4.31937 0
M  V30 5416 H 510.488 4.48677 3.98509 0
M  V30 5417 H 511.558 4.07122 2.634 0
M  V30 5418 N 512.901 -0.976442 1.23707 0
M  V30 5419 C 513.834 -2.06793 0.964973 0
M  V30 5420 C 514.812 -1.62304 -0.0981472 0
M  V30 5421 O 515.996 -1.88464 0.0369477 0
M  V30 5422 C 513.123 -3.35636 0.454522 0
M  V30 5423 C 512.169 -3.99069 1.50485 0
M  V30 5424 S 513.002 -4.37814 3.0835 0
M  V30 5425 C 514.158 -5.69805 2.58985 0
M  V30 5426 H 514.391 -2.29556 1.88922 0
M  V30 5427 H 511.924 -1.11317 1.06995 0
M  V30 5428 H 513.882 -4.10162 0.166626 0
M  V30 5429 H 512.543 -3.10876 -0.448871 0
M  V30 5430 H 511.736 -4.91896 1.09792 0
M  V30 5431 H 511.338 -3.30938 1.7423 0
M  V30 5432 H 513.63 -6.46919 2.01252 0
M  V30 5433 H 514.573 -6.15345 3.50366 0
M  V30 5434 H 514.981 -5.27994 1.99705 0
M  V30 5435 N 514.379 -1.04941 -1.1758 0
M  V30 5436 C 515.327 -0.64204 -2.23563 0
M  V30 5437 C 516.321 0.335453 -1.66045 0
M  V30 5438 O 517.527 0.20179 -1.78865 0
M  V30 5439 H 513.902 -0.18944 -0.727748 0
M  V30 5440 H 515.873 -1.54609 -2.55223 0
M  V30 5441 C 514.622 -0.0301051 -3.47687 0
M  V30 5442 H 513.945 -0.773339 -3.92249 0
M  V30 5443 H 515.385 0.217592 -4.23441 0
M  V30 5444 C 513.844 1.2225 -3.13937 0
M  V30 5445 O 514.374 2.3122 -3.28482 0
M  V30 5446 N 512.58 1.11917 -2.68185 0
M  V30 5447 H 512.127 0.232403 -2.5655 0
M  V30 5448 H 512.085 1.95814 -2.45976 0
M  V30 5449 N 515.857 1.33968 -0.830081 0
M  V30 5450 C 517.087 2.01987 -0.434142 0
M  V30 5451 C 517.495 1.62639 0.96671 0
M  V30 5452 O 516.838 0.831151 1.63822 0
M  V30 5453 C 516.9 3.5648 -0.465018 0
M  V30 5454 C 516.564 4.19176 -1.82045 0
M  V30 5455 C 517.561 4.39181 -2.78237 0
M  V30 5456 C 515.246 4.55792 -2.11089 0
M  V30 5457 C 517.24 4.94937 -4.01642 0
M  V30 5458 C 514.927 5.11258 -3.34752 0
M  V30 5459 C 515.925 5.30775 -4.29845 0
M  V30 5460 O 515.613 5.85064 -5.51322 0
M  V30 5461 H 515.345 0.653847 -0.171639 0
M  V30 5462 H 517.899 1.72066 -1.12171 0
M  V30 5463 H 516.129 3.8569 0.279284 0
M  V30 5464 H 517.818 4.05804 -0.0881334 0
M  V30 5465 H 518.584 4.11249 -2.57097 0
M  V30 5466 H 514.463 4.39901 -1.3787 0
M  V30 5467 H 518.007 5.10086 -4.75876 0
M  V30 5468 H 513.904 5.38619 -3.55753 0
M  V30 5469 H 514.672 6.03489 -5.5294 0
M  V30 5470 N 517.335 0.585699 1.46312 0
M  V30 5471 C 518.265 -0.133556 2.33118 0
M  V30 5472 C 519.246 -0.880707 1.45525 0
M  V30 5473 O 520.431 -0.855579 1.74337 0
M  V30 5474 C 517.561 -1.14585 3.27853 0
M  V30 5475 C 516.515 -0.513341 4.2491 0
M  V30 5476 C 515.841 -1.63231 5.09175 0
M  V30 5477 C 517.141 0.551413 5.19381 0
M  V30 5478 H 518.835 0.59121 2.93505 0
M  V30 5479 H 516.381 0.285761 1.41136 0
M  V30 5480 H 518.334 -1.65741 3.87438 0
M  V30 5481 H 517.058 -1.90093 2.65579 0
M  V30 5482 H 515.717 -0.0228349 3.66593 0
M  V30 5483 H 515.365 -2.37713 4.43285 0
M  V30 5484 H 515.065 -1.21473 5.74907 0
M  V30 5485 H 516.589 -2.14658 5.71624 0
M  V30 5486 H 518.003 0.124804 5.73164 0
M  V30 5487 H 516.4 0.889486 5.93471 0
M  V30 5488 H 517.47 1.43655 4.63132 0
M  V30 5489 N 518.813 -1.54241 0.323641 0
M  V30 5490 C 520.229 -1.59574 -0.0290018 0
M  V30 5491 C 520.429 -1.34017 -1.50472 0
M  V30 5492 O 519.485 -1.12464 -2.26071 0
M  V30 5493 C 520.798 -2.98169 0.389295 0
M  V30 5494 C 522.346 -3.11148 0.339958 0
M  V30 5495 C 522.821 -4.5209 0.733418 0
M  V30 5496 N 524.312 -4.5808 0.686827 0
M  V30 5497 C 525.047 -5.65248 0.963464 0
M  V30 5498 N 524.543 -6.80355 1.30724 0
M  V30 5499 N 526.336 -5.55025 0.88902 0
M  V30 5500 H 518.487 -1.6911 1.28512 0
M  V30 5501 H 520.75 -0.790972 0.522558 0
M  V30 5502 H 520.456 -3.21871 1.41746 0
M  V30 5503 H 520.33 -3.76399 -0.245657 0
M  V30 5504 H 522.717 -2.87182 -0.679002 0
M  V30 5505 H 522.798 -2.35023 1.00985 0
M  V30 5506 H 522.442 -4.76788 1.75029 0
M  V30 5507 H 522.372 -5.26584 0.0412189 0
M  V30 5508 H 524.863 -3.75411 0.43298 0
M  V30 5509 H 525.176 -7.58029 1.5037 0
M  V30 5510 H 523.521 -6.81851 1.3455 0
M  V30 5511 H 526.712 -4.63977 0.619939 0
M  V30 5512 H 526.885 -6.38458 1.10797 0
M  V30 5513 N 520.291 -0.0518155 -1.57515 0
M  V30 5514 C 521.224 0.957758 -2.07129 0
M  V30 5515 C 522.202 1.30355 -0.971927 0
M  V30 5516 O 523.386 1.41631 -1.2439 0
M  V30 5517 C 520.513 2.27157 -2.51232 0
M  V30 5518 C 519.559 2.07879 -3.72409 0
M  V30 5519 S 520.392 1.35656 -5.18033 0
M  V30 5520 C 521.548 2.68359 -5.65451 0
M  V30 5521 H 521.781 0.53552 -2.92437 0
M  V30 5522 H 519.314 0.160465 -1.53564 0
M  V30 5523 H 521.272 3.02676 -2.77304 0
M  V30 5524 H 519.933 2.66509 -1.66228 0
M  V30 5525 H 519.126 3.05061 -4.01191 0
M  V30 5526 H 518.728 1.40499 -3.46606 0
M  V30 5527 H 521.02 3.64526 -5.71076 0
M  V30 5528 H 521.963 2.44213 -6.64654 0
M  V30 5529 H 522.371 2.74647 -4.93183 0
M  V30 5530 N 521.769 1.56035 0.221574 0
M  V30 5531 C 523.015 1.79312 0.947372 0
M  V30 5532 C 523.348 0.621453 1.83988 0
M  V30 5533 O 522.623 -0.379287 1.90766 0
M  V30 5534 C 522.906 3.1267 1.78633 0
M  V30 5535 C 522.759 4.40284 0.920312 0
M  V30 5536 C 524.078 3.4247 2.7641 0
M  V30 5537 H 521.197 0.652328 0.342982 0
M  V30 5538 H 523.839 1.88765 0.216244 0
M  V30 5539 H 521.989 3.04741 2.40967 0
M  V30 5540 H 523.661 4.60232 0.313718 0
M  V30 5541 H 521.904 4.33212 0.225734 0
M  V30 5542 H 522.575 5.30033 1.54171 0
M  V30 5543 H 525.051 3.50526 2.24211 0
M  V30 5544 H 523.927 4.3695 3.32213 0
M  V30 5545 H 524.188 2.64635 3.54148 0
M  V30 5546 N 523.247 -0.488276 1.49845 0
M  V30 5547 C 524.157 -1.61451 1.70207 0
M  V30 5548 C 525.173 -1.63877 0.584846 0
M  V30 5549 O 526.349 -1.82063 0.861107 0
M  V30 5550 C 523.414 -2.9776 1.77594 0
M  V30 5551 C 522.475 -3.05861 3.01243 0
M  V30 5552 C 521.708 -4.35668 3.08268 0
M  V30 5553 O 521.931 -5.25197 2.22541 0
M  V30 5554 O 520.865 -4.49005 4.00847 0
M  V30 5555 H 524.691 -1.47199 2.65643 0
M  V30 5556 H 522.276 -0.665939 1.33737 0
M  V30 5557 H 524.158 -3.7875 1.84732 0
M  V30 5558 H 522.833 -3.12248 0.8534 0
M  V30 5559 H 521.74 -2.24012 2.99616 0
M  V30 5560 H 523.073 -2.96304 3.9302 0
M  V30 5561 N 524.725 -1.39134 -0.740242 0
M  V30 5562 C 525.655 -1.40165 -1.86751 0
M  V30 5563 C 526.636 -0.265708 -1.68012 0
M  V30 5564 O 527.821 -0.47076 -1.88408 0
M  V30 5565 C 524.951 -1.2392 -3.2444 0
M  V30 5566 C 523.905 -2.34858 -3.57807 0
M  V30 5567 C 523.231 -2.03707 -4.94376 0
M  V30 5568 C 524.531 -3.77159 -3.61315 0
M  V30 5569 H 526.225 -2.345 -1.86145 0
M  V30 5570 H 523.771 -1.12875 -0.89416 0
M  V30 5571 H 525.724 -1.23263 -4.02969 0
M  V30 5572 H 524.448 -0.26051 -3.25559 0
M  V30 5573 H 523.107 -2.34723 -2.81604 0
M  V30 5574 H 522.755 -1.04289 -4.9207 0
M  V30 5575 H 522.455 -2.78016 -5.17669 0
M  V30 5576 H 523.979 -2.04691 -5.75268 0
M  V30 5577 H 525.393 -3.79252 -4.29931 0
M  V30 5578 H 523.79 -4.50784 -3.96124 0
M  V30 5579 H 524.86 -4.08513 -2.61238 0
M  V30 5580 N 526.204 0.969867 -1.24223 0
M  V30 5581 C 527.114 2.09806 -1.0497 0
M  V30 5582 C 528.13 1.73998 0.00886455 0
M  V30 5583 O 529.306 2.00513 -0.188848 0
M  V30 5584 C 526.371 3.40467 -0.654452 0
M  V30 5585 C 525.432 3.90236 -1.78926 0
M  V30 5586 C 524.665 5.14662 -1.41277 0
M  V30 5587 O 524.888 5.69602 -0.301632 0
M  V30 5588 O 523.822 5.58761 -2.23763 0
M  V30 5589 H 527.648 2.28942 -1.99548 0
M  V30 5590 H 525.233 1.08197 -1.03023 0
M  V30 5591 H 527.115 4.19039 -0.445452 0
M  V30 5592 H 525.79 3.22636 0.262216 0
M  V30 5593 H 524.697 3.12735 -2.05299 0
M  V30 5594 H 526.03 4.1254 -2.68462 0
M  V30 5595 N 527.682 1.05563 1.17022 0
M  V30 5596 C 528.93 0.76642 1.87004 0
M  V30 5597 C 529.251 -0.708854 1.8166 0
M  V30 5598 O 528.521 -1.51242 1.2451 0
M  V30 5599 H 527.101 0.280516 0.692329 0
M  V30 5600 H 529.763 1.33557 1.41945 0
M  V30 5601 H 528.859 1.08472 2.92644 0
M  V30 5602 N 529.16 -1.33526 0.837174 0
M  V30 5603 C 530.09 -2.31764 0.284206 0
M  V30 5604 C 531.071 -1.58896 -0.607142 0
M  V30 5605 O 532.256 -1.86798 -0.531047 0
M  V30 5606 C 529.386 -3.43029 -0.542962 0
M  V30 5607 C 528.34 -4.27255 0.252451 0
M  V30 5608 C 527.666 -5.3012 -0.69836 0
M  V30 5609 C 528.966 -5.01229 1.46858 0
M  V30 5610 H 530.66 -2.78262 1.10502 0
M  V30 5611 H 528.206 -1.3378 0.532812 0
M  V30 5612 H 530.159 -4.1078 -0.940096 0
M  V30 5613 H 528.883 -2.95216 -1.39697 0
M  V30 5614 H 527.542 -3.61127 0.631124 0
M  V30 5615 H 527.19 -4.78564 -1.54872 0
M  V30 5616 H 526.89 -5.87353 -0.170274 0
M  V30 5617 H 528.414 -6.00737 -1.09305 0
M  V30 5618 H 529.828 -5.61756 1.14469 0
M  V30 5619 H 528.225 -5.68104 1.93333 0
M  V30 5620 H 529.295 -4.301 2.23924 0
M  V30 5621 N 530.638 -0.59345 -1.46 0
M  V30 5622 C 531.866 -0.0890934 -2.06708 0
M  V30 5623 C 532.281 1.2205 -1.44046 0
M  V30 5624 O 531.638 1.74029 -0.549551 0
M  V30 5625 C 531.689 0.0720263 -3.61428 0
M  V30 5626 O 531.41 -1.18574 -4.21748 0
M  V30 5627 C 532.911 0.609487 -4.3909 0
M  V30 5628 H 530.131 -0.0623628 -0.668096 0
M  V30 5629 H 532.675 -0.817171 -1.87464 0
M  V30 5630 H 530.83 0.750369 -3.80063 0
M  V30 5631 H 531.244 -1.0064 -5.14754 0
M  V30 5632 H 532.718 0.671363 -5.47902 0
M  V30 5633 H 533.195 1.62878 -4.07882 0
M  V30 5634 H 533.801 -0.03434 -4.25286 0
M  V30 5635 N 532.116 1.54067 -0.331816 0
M  V30 5636 C 533.364 2.00319 0.267739 0
M  V30 5637 C 533.685 1.22148 1.52003 0
M  V30 5638 O 532.955 0.325494 1.93177 0
M  V30 5639 H 531.535 0.740014 0.101922 0
M  V30 5640 H 534.197 1.89628 -0.450267 0
M  V30 5641 H 533.293 3.07765 0.518385 0
M  V30 5642 N 533.594 0.0601682 1.57485 0
M  V30 5643 C 534.544 -0.920969 2.08572 0
M  V30 5644 C 535.528 -1.26617 0.992827 0
M  V30 5645 O 536.72 -1.24708 1.25606 0
M  V30 5646 C 533.849 -2.19267 2.64153 0
M  V30 5647 C 532.935 -1.87447 3.80427 0
M  V30 5648 N 533.326 -1.26025 4.89848 0
M  V30 5649 C 531.624 -2.17265 3.89502 0
M  V30 5650 C 532.325 -1.12036 5.70809 0
M  V30 5651 N 531.301 -1.62624 5.18705 0
M  V30 5652 H 535.103 -0.441561 2.90564 0
M  V30 5653 H 532.617 -0.144043 1.6176 0
M  V30 5654 H 534.614 -2.90462 2.99061 0
M  V30 5655 H 533.274 -2.67806 1.83603 0
M  V30 5656 H 534.285 -0.931336 5.09457 0
M  V30 5657 H 530.962 -2.68262 3.19909 0
M  V30 5658 H 532.352 -0.642783 6.68818 0
M  V30 5659 N 535.072 -1.5615 -0.213296 0
M  V30 5660 C 536.321 -1.78743 -0.93455 0
M  V30 5661 C 536.634 -0.630199 -1.8517 0
M  V30 5662 O 537.84 -0.739966 -2.61222 0
M  V30 5663 C 536.296 -3.16571 -1.71203 0
M  V30 5664 C 535.904 -4.40043 -0.840617 0
M  V30 5665 C 537.648 -3.48485 -2.42401 0
M  V30 5666 C 535.555 -5.68895 -1.61592 0
M  V30 5667 H 534.485 -0.666426 -0.352692 0
M  V30 5668 H 537.136 -1.82532 -0.188227 0
M  V30 5669 H 535.518 -3.06981 -2.50157 0
M  V30 5670 H 536.692 -4.6071 -0.0910326 0
M  V30 5671 H 535.007 -4.15706 -0.240365 0
M  V30 5672 H 537.604 -4.41983 -3.00924 0
M  V30 5673 H 537.947 -2.71371 -3.15695 0
M  V30 5674 H 538.48 -3.59442 -1.7043 0
M  V30 5675 H 535.219 -6.48925 -0.926106 0
M  V30 5676 H 534.739 -5.52275 -2.33991 0
M  V30 5677 H 536.418 -6.09365 -2.17447 0
M  V30 5678 N 536.55 0.480323 -1.50102 0
M  V30 5679 C 537.46 1.60547 -1.71061 0
M  V30 5680 C 538.476 1.63564 -0.593529 0
M  V30 5681 O 539.652 1.81604 -0.870751 0
M  V30 5682 C 536.717 2.96814 -1.79171 0
M  V30 5683 C 535.778 3.04259 -3.02861 0
M  V30 5684 C 535.011 4.34027 -3.10574 0
M  V30 5685 O 535.234 5.24009 -2.25323 0
M  V30 5686 O 534.168 4.46873 -4.03223 0
M  V30 5687 H 537.994 1.45788 -2.6642 0
M  V30 5688 H 535.579 0.658838 -1.34088 0
M  V30 5689 H 537.461 3.77765 -1.86738 0
M  V30 5690 H 536.136 3.11791 -0.869947 0
M  V30 5691 H 535.043 2.22419 -3.008 0
M  V30 5692 H 536.376 2.94216 -3.94586 0
M  V30 5693 N 538.028 1.39524 0.732853 0
M  V30 5694 C 539.275 1.36865 1.49246 0
M  V30 5695 C 539.603 -0.0347118 1.94469 0
M  V30 5696 O 538.858 -1.01596 1.67262 0
M  V30 5697 C 539.157 2.28916 2.74468 0
M  V30 5698 C 538.823 3.76506 2.481 0
M  V30 5699 C 537.485 4.16721 2.40619 0
M  V30 5700 C 539.837 4.69846 2.25598 0
M  V30 5701 C 537.165 5.48334 2.08679 0
M  V30 5702 C 539.517 6.01739 1.95174 0
M  V30 5703 C 538.181 6.41015 1.86163 0
M  V30 5704 H 537.451 0.500824 0.546129 0
M  V30 5705 H 540.098 1.72047 0.840958 0
M  V30 5706 H 538.403 1.86859 3.4437 0
M  V30 5707 H 540.1 2.2415 3.32502 0
M  V30 5708 H 536.69 3.44635 2.54803 0
M  V30 5709 H 540.874 4.39608 2.30344 0
M  V30 5710 H 536.13 5.77685 2.00226 0
M  V30 5711 H 540.304 6.73591 1.76771 0
M  V30 5712 H 537.931 7.42917 1.61179 0
M  V30 5713 N 539.506 -0.963266 1.24736 0
M  V30 5714 C 540.454 -2.07985 1.04139 0
M  V30 5715 C 541.448 -1.69381 -0.0250556 0
M  V30 5716 O 542.654 -1.79531 0.129863 0
M  V30 5717 H 539.029 -0.680627 0.319768 0
M  V30 5718 H 541 -2.22517 1.98818 0
M  V30 5719 C 539.749 -3.4123 0.667615 0
M  V30 5720 H 539.072 -3.71397 1.48 0
M  V30 5721 H 540.512 -4.20244 0.563136 0
M  V30 5722 C 538.971 -3.3104 -0.625647 0
M  V30 5723 O 539.501 -3.65334 -1.67016 0
M  V30 5724 N 537.707 -2.84168 -0.608033 0
M  V30 5725 H 537.254 -2.56458 0.242323 0
M  V30 5726 H 537.212 -2.77732 -1.47352 0
M  V30 5727 N 540.985 -1.06182 -1.16461 0
M  V30 5728 C 542.21 -0.798599 -1.91408 0
M  V30 5729 C 542.635 0.640987 -1.76842 0
M  V30 5730 O 541.993 1.44652 -1.09296 0
M  V30 5731 C 542.041 -1.19665 -3.40165 0
M  V30 5732 O 541.145 -0.334768 -4.11039 0
M  V30 5733 H 540.486 -0.291961 -0.596368 0
M  V30 5734 H 543.016 -1.41732 -1.47557 0
M  V30 5735 H 543.026 -1.16772 -3.90933 0
M  V30 5736 H 541.701 -2.24526 -3.50087 0
M  V30 5737 H 540.278 -0.425168 -3.70468 0
M  V30 5738 N 542.463 1.3308 -0.844243 0
M  V30 5739 C 543.41 2.29104 -0.279323 0
M  V30 5740 C 544.38 1.54577 0.607882 0
M  V30 5741 O 545.565 1.8285 0.545009 0
M  V30 5742 C 542.705 3.40927 0.53508 0
M  V30 5743 C 541.818 4.30354 -0.376749 0
M  V30 5744 C 540.953 5.29297 0.449276 0
M  V30 5745 C 539.992 6.10365 -0.460606 0
M  V30 5746 N 539.129 7.01335 0.327612 0
M  V30 5747 H 543.969 2.76817 -1.10346 0
M  V30 5748 H 541.506 1.36203 -0.555611 0
M  V30 5749 H 543.464 4.04469 1.02278 0
M  V30 5750 H 542.094 2.94391 1.32414 0
M  V30 5751 H 541.146 3.67485 -0.982791 0
M  V30 5752 H 542.458 4.87067 -1.07549 0
M  V30 5753 H 541.612 5.98392 1.00058 0
M  V30 5754 H 540.351 4.73174 1.18143 0
M  V30 5755 H 539.356 5.40182 -1.02388 0
M  V30 5756 H 540.581 6.68571 -1.1912 0
M  V30 5757 H 538.527 6.47655 1.04305 0
M  V30 5758 H 538.444 7.55355 -0.3123 0
M  V30 5759 H 539.712 7.74731 0.86098 0
M  V30 5760 N 543.941 0.601185 1.45683 0
M  V30 5761 C 545.189 0.0936957 2.01883 0
M  V30 5762 C 545.51 -1.2779 1.47291 0
M  V30 5763 O 544.78 -1.84279 0.664691 0
M  V30 5764 H 543.36 0.0316466 0.746329 0
M  V30 5765 H 546.022 0.781137 1.78562 0
M  V30 5766 H 545.118 0.0386297 3.12076 0
M  V30 5767 N 545.419 -1.53889 0.339982 0
M  V30 5768 C 546.351 -2.22435 -0.55275 0
M  V30 5769 C 547.364 -1.22975 -1.06681 0
M  V30 5770 O 548.553 -1.49351 -0.977575 0
M  V30 5771 C 545.653 -2.8882 -1.77302 0
M  V30 5772 C 544.826 -4.14563 -1.39486 0
M  V30 5773 C 543.885 -4.64391 -2.47442 0
M  V30 5774 O 542.911 -5.28687 -2.10899 0
M  V30 5775 N 544.113 -4.40015 -3.78639 0
M  V30 5776 H 546.878 -2.9968 0.0342669 0
M  V30 5777 H 544.439 -1.61068 0.16394 0
M  V30 5778 H 546.431 -3.19072 -2.48948 0
M  V30 5779 H 545.001 -2.15182 -2.26749 0
M  V30 5780 H 544.221 -3.90896 -0.509321 0
M  V30 5781 H 545.509 -4.96362 -1.11813 0
M  V30 5782 H 544.907 -3.88586 -4.11118 0
M  V30 5783 H 543.464 -4.74881 -4.46465 0
M  V30 5784 N 546.897 -0.0685191 -1.57451 0
M  V30 5785 C 548.313 0.288101 -1.56978 0
M  V30 5786 C 548.513 1.70262 -1.07765 0
M  V30 5787 O 547.569 2.4135 -0.742054 0
M  V30 5788 C 548.882 0.100745 -3.00531 0
M  V30 5789 C 550.43 0.170531 -3.12535 0
M  V30 5790 C 550.905 0.0114944 -4.57999 0
M  V30 5791 N 552.396 0.0672065 -4.63151 0
M  V30 5792 C 553.131 -0.0314813 -5.73391 0
M  V30 5793 N 552.627 -0.183503 -6.92557 0
M  V30 5794 N 554.42 0.0253489 -5.62094 0
M  V30 5795 H 546.571 -0.993026 -1.87757 0
M  V30 5796 H 548.834 -0.386981 -0.865419 0
M  V30 5797 H 548.54 -0.875197 -3.40636 0
M  V30 5798 H 548.414 0.854457 -3.67395 0
M  V30 5799 H 550.801 1.13696 -2.72318 0
M  V30 5800 H 550.882 -0.614229 -2.48316 0
M  V30 5801 H 550.526 -0.951684 -4.98904 0
M  V30 5802 H 550.456 0.815617 -5.20245 0
M  V30 5803 H 552.947 0.183246 -3.77455 0
M  V30 5804 H 553.26 -0.251041 -7.72392 0
M  V30 5805 H 551.605 -0.218822 -6.94655 0
M  V30 5806 H 554.796 0.142794 -4.67882 0
M  V30 5807 H 554.969 -0.0550166 -6.47977 0
M  V30 5808 N 548.375 1.56261 0.205012 0
M  V30 5809 C 549.6 1.84491 0.947512 0
M  V30 5810 C 550.025 0.650894 1.76479 0
M  V30 5811 O 549.383 -0.40035 1.76824 0
M  V30 5812 C 549.431 3.10863 1.82747 0
M  V30 5813 O 548.535 2.90719 2.925 0
M  V30 5814 H 547.876 0.607783 0.267386 0
M  V30 5815 H 550.406 2.03485 0.213323 0
M  V30 5816 H 550.416 3.41399 2.23407 0
M  V30 5817 H 549.091 3.97392 1.2269 0
M  V30 5818 H 547.668 2.71457 2.55667 0
M  V30 5819 N 549.853 -0.472356 1.50355 0
M  V30 5820 C 550.801 -1.59126 1.69651 0
M  V30 5821 C 551.795 -1.59793 0.56237 0
M  V30 5822 O 553.001 -1.63957 0.742832 0
M  V30 5823 H 549.376 -0.528008 0.535454 0
M  V30 5824 H 551.347 -1.40013 2.63513 0
M  V30 5825 C 550.096 -2.97075 1.8067 0
M  V30 5826 H 549.419 -2.9728 2.67329 0
M  V30 5827 H 550.859 -3.74825 1.98197 0
M  V30 5828 C 549.318 -3.32247 0.558016 0
M  V30 5829 O 549.848 -4.00553 -0.303399 0
M  V30 5830 N 548.054 -2.87659 0.412415 0
M  V30 5831 H 547.601 -2.32246 1.11443 0
M  V30 5832 H 547.559 -3.11556 -0.421908 0
M  V30 5833 N 551.331 -1.39911 -0.725443 0
M  V30 5834 C 552.561 -1.40744 -1.51244 0
M  V30 5835 C 552.969 -0.00275403 -1.892 0
M  V30 5836 O 552.312 0.981299 -1.55294 0
M  V30 5837 C 552.374 -2.22527 -2.82351 0
M  V30 5838 C 552.038 -3.71053 -2.66774 0
M  V30 5839 C 553.035 -4.63916 -2.34686 0
M  V30 5840 C 550.72 -4.14753 -2.83347 0
M  V30 5841 C 552.714 -5.98463 -2.19366 0
M  V30 5842 C 550.401 -5.49372 -2.67644 0
M  V30 5843 C 551.399 -6.41042 -2.357 0
M  V30 5844 O 551.087 -7.73181 -2.20107 0
M  V30 5845 H 550.819 -0.482314 -0.473655 0
M  V30 5846 H 553.373 -1.84472 -0.903284 0
M  V30 5847 H 551.603 -1.73563 -3.45562 0
M  V30 5848 H 553.292 -2.15421 -3.44018 0
M  V30 5849 H 554.058 -4.31453 -2.21525 0
M  V30 5850 H 549.937 -3.43728 -3.072 0
M  V30 5851 H 553.481 -6.69979 -1.94354 0
M  V30 5852 H 549.378 -5.81424 -2.80387 0
M  V30 5853 H 550.146 -7.84008 -2.35103 0
M  V30 5854 N 552.809 0.956637 -1.25245 0
M  V30 5855 C 553.772 2.03457 -1.05537 0
M  V30 5856 C 554.772 1.60798 -0.00886317 0
M  V30 5857 O 555.962 1.72384 -0.250865 0
M  V30 5858 C 553.094 3.35543 -0.601965 0
M  V30 5859 H 554.287 2.22372 -2.01223 0
M  V30 5860 H 551.84 1.13344 -1.07623 0
M  V30 5861 H 552.575 3.22323 0.357584 0
M  V30 5862 H 552.36 3.67854 -1.35743 0
M  V30 5863 H 553.85 4.14769 -0.485454 0
M  V30 5864 N 554.287 1.06798 1.15896 0
M  V30 5865 C 555.217 0.704677 2.22613 0
M  V30 5866 C 556.198 -0.305252 1.67339 0
M  V30 5867 O 557.383 -0.179247 1.93371 0
M  V30 5868 C 554.513 0.0957325 3.47168 0
M  V30 5869 C 553.467 1.0322 4.15367 0
M  V30 5870 C 552.793 0.286293 5.33933 0
M  V30 5871 C 554.093 2.36341 4.65768 0
M  V30 5872 H 555.787 1.59688 2.53259 0
M  V30 5873 H 553.333 0.769257 1.21731 0
M  V30 5874 H 555.286 -0.170333 4.21056 0
M  V30 5875 H 554.01 -0.831516 3.15838 0
M  V30 5876 H 552.669 1.28309 3.43413 0
M  V30 5877 H 552.317 -0.644237 4.98857 0
M  V30 5878 H 552.017 0.910436 5.80504 0
M  V30 5879 H 553.541 0.0278938 6.10594 0
M  V30 5880 H 554.955 2.1561 5.31211 0
M  V30 5881 H 553.352 2.94299 5.2298 0
M  V30 5882 H 554.422 2.99047 3.81705 0
M  V30 5883 N 555.766 -1.3263 0.851289 0
M  V30 5884 C 556.713 -2.28952 0.291469 0
M  V30 5885 C 557.683 -1.54897 -0.599676 0
M  V30 5886 O 558.868 -1.83137 -0.535305 0
M  V30 5887 C 556.008 -3.41206 -0.516992 0
M  V30 5888 C 555.121 -4.30148 0.399566 0
M  V30 5889 C 554.256 -5.29527 -0.4212 0
M  V30 5890 C 553.295 -6.10112 0.492969 0
M  V30 5891 N 552.432 -7.01499 -0.290414 0
M  V30 5892 H 557.272 -2.76228 1.11813 0
M  V30 5893 H 554.809 -1.35907 0.562826 0
M  V30 5894 H 556.767 -4.05005 -1.00132 0
M  V30 5895 H 555.397 -2.9509 -1.30851 0
M  V30 5896 H 554.449 -3.66959 1.00227 0
M  V30 5897 H 555.761 -4.8649 1.1013 0
M  V30 5898 H 554.915 -5.98914 -0.968832 0
M  V30 5899 H 553.654 -4.73794 -1.15632 0
M  V30 5900 H 552.659 -5.39632 1.05251 0
M  V30 5901 H 553.884 -6.6793 1.22664 0
M  V30 5902 H 551.83 -6.48199 -1.00868 0
M  V30 5903 H 551.747 -7.55178 0.352354 0
M  V30 5904 H 553.015 -7.75176 -0.819882 0
M  V30 5905 N 557.244 -0.608902 -1.45362 0
M  V30 5906 C 558.493 -0.10218 -2.01441 0
M  V30 5907 C 558.806 1.27546 -1.48295 0
M  V30 5908 O 560.012 1.87498 -1.96359 0
M  V30 5909 C 558.468 -0.131985 -3.59658 0
M  V30 5910 C 558.076 -1.50956 -4.21801 0
M  V30 5911 C 559.82 0.319427 -4.23296 0
M  V30 5912 C 557.727 -1.49568 -5.72174 0
M  V30 5913 H 556.657 -0.0344314 -0.753213 0
M  V30 5914 H 559.308 -0.764426 -1.6682 0
M  V30 5915 H 557.69 0.596939 -3.91475 0
M  V30 5916 H 558.864 -2.26029 -4.01556 0
M  V30 5917 H 557.179 -1.90318 -3.70362 0
M  V30 5918 H 559.776 0.349013 -5.3356 0
M  V30 5919 H 560.119 1.34237 -3.94064 0
M  V30 5920 H 560.652 -0.356273 -3.96201 0
M  V30 5921 H 557.391 -2.49626 -6.06108 0
M  V30 5922 H 556.911 -0.787542 -5.94607 0
M  V30 5923 H 558.59 -1.21989 -6.35396 0
M  V30 5924 N 558.722 1.53707 -0.348139 0
M  V30 5925 C 559.652 2.28111 0.498766 0
M  V30 5926 C 560.633 1.29851 1.09876 0
M  V30 5927 O 561.818 1.587 1.11928 0
M  V30 5928 C 558.948 3.05735 1.64753 0
M  V30 5929 C 557.902 4.11537 1.17565 0
M  V30 5930 C 557.228 4.77142 2.4133 0
M  V30 5931 C 558.528 5.21587 0.272844 0
M  V30 5932 H 560.222 2.99152 -0.121934 0
M  V30 5933 H 557.768 1.43875 -0.0600842 0
M  V30 5934 H 559.721 3.56526 2.24649 0
M  V30 5935 H 558.445 2.32354 2.2952 0
M  V30 5936 H 557.104 3.61665 0.599483 0
M  V30 5937 H 556.752 4.0035 3.04514 0
M  V30 5938 H 556.452 5.48626 2.10436 0
M  V30 5939 H 557.976 5.30719 3.01943 0
M  V30 5940 H 559.39 5.67986 0.778779 0
M  V30 5941 H 557.787 6.00074 0.0555849 0
M  V30 5942 H 558.857 4.79969 -0.689785 0
M  V30 5943 N 560.2 0.0768682 1.57412 0
M  V30 5944 C 561.132 -0.918248 2.10002 0
M  V30 5945 C 562.145 -1.25808 1.03325 0
M  V30 5946 O 563.334 -1.21438 1.30824 0
M  V30 5947 C 560.434 -2.23263 2.54964 0
M  V30 5948 C 559.607 -2.07088 3.8527 0
M  V30 5949 C 558.666 -3.21876 4.16272 0
M  V30 5950 O 557.692 -2.96643 4.8579 0
M  V30 5951 N 558.894 -4.4712 3.70221 0
M  V30 5952 H 561.659 -0.469209 2.96004 0
M  V30 5953 H 559.22 -0.108725 1.61535 0
M  V30 5954 H 561.212 -2.9897 2.72762 0
M  V30 5955 H 559.782 -2.59649 1.74072 0
M  V30 5956 H 559.002 -1.15818 3.76802 0
M  V30 5957 H 560.29 -1.93537 4.70554 0
M  V30 5958 H 559.688 -4.70506 3.1407 0
M  V30 5959 H 558.245 -5.19837 3.93209 0
M  V30 5960 N 561.678 -1.56367 -0.196722 0
M  V30 5961 C 562.925 -1.80529 -0.917366 0
M  V30 5962 C 563.253 -0.649817 -1.83324 0
M  V30 5963 O 562.508 0.36451 -1.92275 0
M  V30 5964 C 562.807 -3.10663 -1.767 0
M  V30 5965 C 562.473 -4.3962 -1.00225 0
M  V30 5966 C 561.135 -4.74653 -0.791095 0
M  V30 5967 C 563.487 -5.1913 -0.464035 0
M  V30 5968 C 560.815 -5.86692 -0.0302155 0
M  V30 5969 C 563.167 -6.31964 0.283625 0
M  V30 5970 C 561.831 -6.65581 0.505813 0
M  V30 5971 H 561.101 -0.660602 -0.335688 0
M  V30 5972 H 563.748 -1.90615 -0.183844 0
M  V30 5973 H 562.053 -2.95807 -2.56915 0
M  V30 5974 H 563.75 -3.26563 -2.32718 0
M  V30 5975 H 560.34 -4.12127 -1.17684 0
M  V30 5976 H 564.524 -4.9248 -0.614575 0
M  V30 5977 H 559.78 -6.11211 0.151917 0
M  V30 5978 H 563.954 -6.92791 0.708057 0
M  V30 5979 H 561.581 -7.52239 1.0973 0
M  V30 5980 N 563.156 0.464375 -1.50603 0
M  V30 5981 C 564.384 1.23907 -1.65695 0
M  V30 5982 C 564.799 1.85658 -0.343027 0
M  V30 5983 O 564.156 1.69529 0.675739 0
M  V30 5984 C 564.207 2.3429 -2.75301 0
M  V30 5985 O 563.928 1.7507 -4.01599 0
M  V30 5986 C 565.429 3.25051 -3.01424 0
M  V30 5987 H 562.649 0.374485 -0.556778 0
M  V30 5988 H 565.193 0.55353 -1.96866 0
M  V30 5989 H 563.348 2.98607 -2.46804 0
M  V30 5990 H 563.762 2.47812 -4.62266 0
M  V30 5991 H 565.236 3.98699 -3.81763 0
M  V30 5992 H 565.713 3.84227 -2.12758 0
M  V30 5993 H 566.319 2.66463 -3.31477 0
M  V30 5994 N 564.634 1.40294 0.718013 0
M  V30 5995 C 566.05 1.2227 1.02577 0
M  V30 5996 C 566.25 0.0961976 2.0127 0
M  V30 5997 O 565.306 -0.546695 2.46511 0
M  V30 5998 C 566.619 2.56348 1.57182 0
M  V30 5999 C 568.167 2.6334 1.69178 0
M  V30 6000 C 568.642 3.9768 2.27188 0
M  V30 6001 N 570.133 3.99409 2.34578 0
M  V30 6002 C 570.868 5.00141 2.8044 0
M  V30 6003 N 570.364 6.11268 3.26073 0
M  V30 6004 N 572.157 4.87511 2.79802 0
M  V30 6005 H 564.308 2.12304 0.0637899 0
M  V30 6006 H 566.571 0.943632 0.0909036 0
M  V30 6007 H 566.277 3.3942 0.921262 0
M  V30 6008 H 566.151 2.77266 2.55741 0
M  V30 6009 H 568.538 1.80641 2.33351 0
M  V30 6010 H 568.619 2.46255 0.692247 0
M  V30 6011 H 568.263 4.80817 1.63638 0
M  V30 6012 H 568.193 4.12093 3.27852 0
M  V30 6013 H 570.684 3.19162 2.02346 0
M  V30 6014 H 570.997 6.84023 3.59628 0
M  V30 6015 H 569.342 6.14837 3.24038 0
M  V30 6016 H 572.533 3.9979 2.43487 0
M  V30 6017 H 572.706 5.66158 3.15228 0
M  V30 6018 N 566.112 -0.949982 1.2575 0
M  V30 6019 C 567.06 -2.06869 1.06339 0
M  V30 6020 C 568.054 -1.69399 -0.00708901 0
M  V30 6021 O 569.26 -1.79383 0.148897 0
M  V30 6022 H 565.635 -0.677197 0.326969 0
M  V30 6023 H 567.606 -2.20396 2.01167 0
M  V30 6024 C 566.355 -3.40503 0.703769 0
M  V30 6025 H 565.678 -3.69807 1.51931 0
M  V30 6026 H 567.118 -4.19623 0.607677 0
M  V30 6027 C 565.577 -3.31685 -0.5905 0
M  V30 6028 O 566.107 -3.67085 -1.63131 0
M  V30 6029 N 564.313 -2.84797 -0.577859 0
M  V30 6030 H 563.86 -2.56186 0.26951 0
M  V30 6031 H 563.818 -2.79279 -1.44398 0
M  V30 6032 N 567.59 -1.07411 -1.15328 0
M  V30 6033 C 568.838 -0.796073 -1.85761 0
M  V30 6034 C 569.159 0.679864 -1.82764 0
M  V30 6035 O 568.429 1.49242 -1.269 0
M  V30 6036 H 567.009 -0.291495 -0.687779 0
M  V30 6037 H 569.671 -1.35799 -1.39802 0
M  V30 6038 H 568.767 -1.13114 -2.90881 0
M  V30 6039 N 569.068 1.32177 -0.85831 0
M  V30 6040 C 570.315 1.97125 -0.463484 0
M  V30 6041 C 570.643 1.67907 0.981705 0
M  V30 6042 O 569.898 0.961717 1.70439 0
M  V30 6043 C 570.197 3.51372 -0.653658 0
M  V30 6044 C 569.863 4.00584 -2.06987 0
M  V30 6045 C 568.525 4.13733 -2.4572 0
M  V30 6046 C 570.877 4.26624 -2.99402 0
M  V30 6047 C 568.205 4.50268 -3.76132 0
M  V30 6048 C 570.557 4.64618 -4.29316 0
M  V30 6049 C 569.221 4.75975 -4.67979 0
M  V30 6050 H 568.491 0.72133 -0.169601 0
M  V30 6051 H 571.138 1.57517 -1.08907 0
M  V30 6052 H 569.443 3.91761 0.0551328 0
M  V30 6053 H 571.14 3.99655 -0.328163 0
M  V30 6054 H 567.73 3.90837 -1.75911 0
M  V30 6055 H 571.914 4.1597 -2.70708 0
M  V30 6056 H 567.17 4.57256 -4.05865 0
M  V30 6057 H 571.344 4.83722 -5.00985 0
M  V30 6058 H 568.971 5.04041 -5.69076 0
M  V30 6059 N 570.547 0.616602 1.45037 0
M  V30 6060 C 571.963 0.280994 1.57107 0
M  V30 6061 C 572.163 -1.21627 1.60653 0
M  V30 6062 O 571.219 -1.9997 1.54169 0
M  V30 6063 C 572.532 0.960116 2.8496 0
M  V30 6064 C 574.08 0.936884 2.98649 0
M  V30 6065 C 574.555 1.59619 4.29285 0
M  V30 6066 N 576.046 1.5621 4.36065 0
M  V30 6067 C 576.781 2.04131 5.35834 0
M  V30 6068 N 576.277 2.60177 6.4209 0
M  V30 6069 N 578.07 1.94845 5.27249 0
M  V30 6070 H 570.221 1.58867 1.40979 0
M  V30 6071 H 572.484 0.666024 0.674623 0
M  V30 6072 H 572.19 2.01473 2.88273 0
M  V30 6073 H 572.064 0.488921 3.74018 0
M  V30 6074 H 574.451 -0.109209 2.94898 0
M  V30 6075 H 574.532 1.44643 2.10979 0
M  V30 6076 H 574.176 2.64166 4.33796 0
M  V30 6077 H 574.106 1.06159 5.15789 0
M  V30 6078 H 576.597 1.15276 3.59889 0
M  V30 6079 H 576.91 2.94513 7.1448 0
M  V30 6080 H 575.255 2.64221 6.42816 0
M  V30 6081 H 578.446 1.50792 4.43147 0
M  V30 6082 H 578.619 2.32504 6.04852 0
M  V30 6083 N 572.025 -1.5352 0.356285 0
M  V30 6084 C 572.957 -2.23009 -0.529127 0
M  V30 6085 C 573.97 -1.241 -1.05371 0
M  V30 6086 O 575.159 -1.50379 -0.961679 0
M  V30 6087 C 572.259 -2.90685 -1.74229 0
M  V30 6088 C 571.432 -4.16019 -1.35081 0
M  V30 6089 C 570.491 -4.66989 -2.42502 0
M  V30 6090 O 569.517 -5.30895 -2.05279 0
M  V30 6091 N 570.719 -4.44006 -3.7395 0
M  V30 6092 H 573.484 -2.99627 0.0660501 0
M  V30 6093 H 571.045 -1.60885 0.181014 0
M  V30 6094 H 573.037 -3.21695 -2.4555 0
M  V30 6095 H 571.607 -2.17575 -2.24454 0
M  V30 6096 H 570.827 -3.91414 -0.467833 0
M  V30 6097 H 572.115 -4.9752 -1.06542 0
M  V30 6098 H 571.513 -3.92924 -4.06973 0
M  V30 6099 H 570.07 -4.7959 -4.41403 0
M  V30 6100 N 573.503 -0.0852151 -1.57369 0
M  V30 6101 C 574.752 0.580443 -1.93168 0
M  V30 6102 C 575.065 1.6995 -0.968319 0
M  V30 6103 O 576.271 2.42564 -1.21963 0
M  V30 6104 C 574.727 1.08386 -3.43192 0
M  V30 6105 C 574.335 -0.00491388 -4.48 0
M  V30 6106 C 576.079 1.72281 -3.87968 0
M  V30 6107 C 573.986 0.513299 -5.89168 0
M  V30 6108 H 572.916 0.22059 -0.72101 0
M  V30 6109 H 575.567 -0.159621 -1.82804 0
M  V30 6110 H 573.949 1.8773 -3.48674 0
M  V30 6111 H 575.123 -0.780032 -4.5415 0
M  V30 6112 H 573.438 -0.548453 -4.12772 0
M  V30 6113 H 576.035 2.12108 -4.9083 0
M  V30 6114 H 576.378 2.58811 -3.26071 0
M  V30 6115 H 576.911 0.995359 -3.85146 0
M  V30 6116 H 573.65 -0.315153 -6.54742 0
M  V30 6117 H 573.17 1.25564 -5.8651 0
M  V30 6118 H 574.849 0.985433 -6.39451 0
M  V30 6119 N 574.981 1.5647 0.188427 0
M  V30 6120 C 576.229 1.80655 0.905986 0
M  V30 6121 C 576.55 0.659391 1.83513 0
M  V30 6122 O 575.82 -0.321868 1.93238 0
M  V30 6123 H 574.4 0.666391 0.337538 0
M  V30 6124 H 577.062 1.93949 0.192339 0
M  V30 6125 H 576.158 2.74066 1.49313 0
M  V30 6126 N 576.459 -0.456382 1.50847 0
M  V30 6127 C 577.391 -1.57033 1.66953 0
M  V30 6128 C 578.404 -1.53207 0.550593 0
M  V30 6129 O 579.593 -1.58328 0.824285 0
M  V30 6130 C 576.693 -2.95937 1.65149 0
M  V30 6131 C 575.866 -3.24475 2.93317 0
M  V30 6132 C 574.925 -4.43007 2.83957 0
M  V30 6133 O 573.951 -4.42592 3.57912 0
M  V30 6134 N 575.153 -5.45503 1.9851 0
M  V30 6135 H 577.918 -1.43629 2.63042 0
M  V30 6136 H 575.479 -0.645037 1.48495 0
M  V30 6137 H 577.471 -3.73224 1.56481 0
M  V30 6138 H 576.041 -3.03036 0.767343 0
M  V30 6139 H 575.261 -2.35664 3.16 0
M  V30 6140 H 576.549 -3.4036 3.78196 0
M  V30 6141 H 575.947 -5.48668 1.37766 0
M  V30 6142 H 574.504 -6.21716 1.95735 0
M  V30 6143 N 577.937 -1.40673 -0.710563 0
M  V30 6144 C 579.183 -1.4043 -1.47142 0
M  V30 6145 C 579.538 -0.00781557 -1.92398 0
M  V30 6146 O 578.831 0.963535 -1.6561 0
M  V30 6147 C 579.025 -2.33253 -2.70791 0
M  V30 6148 C 578.854 -3.81789 -2.37629 0
M  V30 6149 C 577.624 -4.5057 -2.28724 0
M  V30 6150 C 579.822 -4.73152 -2.01572 0
M  V30 6151 N 577.804 -5.84312 -1.88289 0
M  V30 6152 C 579.175 -5.95728 -1.71778 0
M  V30 6153 C 581.23 -4.6094 -1.88252 0
M  V30 6154 C 579.933 -7.07454 -1.30003 0
M  V30 6155 C 581.959 -5.72613 -1.47881 0
M  V30 6156 C 581.321 -6.94278 -1.18987 0
M  V30 6157 H 577.42 -0.569115 -0.536314 0
M  V30 6158 H 580.004 -1.76425 -0.823547 0
M  V30 6159 H 578.175 -1.99378 -3.33321 0
M  V30 6160 H 579.907 -2.23833 -3.37166 0
M  V30 6161 H 576.662 -4.04315 -2.46629 0
M  V30 6162 H 577.086 -6.55153 -1.70596 0
M  V30 6163 H 581.728 -3.67389 -2.09249 0
M  V30 6164 H 579.446 -8.00884 -1.07749 0
M  V30 6165 H 583.032 -5.65161 -1.38145 0
M  V30 6166 H 581.912 -7.79222 -0.88219 0
M  V30 6167 N 579.415 0.9433 -1.26252 0
M  V30 6168 C 580.365 2.02746 -1.04297 0
M  V30 6169 C 581.349 1.60882 0.0239435 0
M  V30 6170 O 582.541 1.75947 -0.192757 0
M  V30 6171 C 579.67 3.36585 -0.6757 0
M  V30 6172 C 578.756 3.84939 -1.77996 0
M  V30 6173 N 579.147 4.05966 -3.01704 0
M  V30 6174 C 577.445 4.13833 -1.66308 0
M  V30 6175 C 578.146 4.45987 -3.73458 0
M  V30 6176 N 577.122 4.52569 -3.01135 0
M  V30 6177 H 580.924 2.17012 -1.98199 0
M  V30 6178 H 578.438 1.12898 -1.16738 0
M  V30 6179 H 580.435 4.13896 -0.499571 0
M  V30 6180 H 579.095 3.2369 0.255863 0
M  V30 6181 H 580.106 3.92716 -3.37631 0
M  V30 6182 H 576.783 4.09739 -0.801267 0
M  V30 6183 H 578.173 4.70465 -4.79701 0
M  V30 6184 N 580.893 1.08022 1.14757 0
M  V30 6185 C 582.139 0.808705 1.85978 0
M  V30 6186 C 582.472 -0.663764 1.82504 0
M  V30 6187 O 581.747 -1.48765 1.25296 0
M  V30 6188 C 582.03 1.32623 3.34788 0
M  V30 6189 C 581.883 2.86375 3.46856 0
M  V30 6190 C 583.202 0.948291 4.29762 0
M  V30 6191 H 580.321 0.295244 0.675278 0
M  V30 6192 H 582.963 1.33917 1.34783 0
M  V30 6193 H 581.113 0.875002 3.78518 0
M  V30 6194 H 582.785 3.39839 3.11941 0
M  V30 6195 H 581.028 3.24232 2.88194 0
M  V30 6196 H 581.699 3.17658 4.51439 0
M  V30 6197 H 584.175 1.33722 3.94028 0
M  V30 6198 H 583.051 1.33765 5.32352 0
M  V30 6199 H 583.312 -0.145094 4.41862 0
M  V30 6200 N 582.371 -1.3172 0.865308 0
M  V30 6201 C 583.334 -2.26918 0.322627 0
M  V30 6202 C 584.334 -1.52031 -0.523751 0
M  V30 6203 O 585.524 -1.70973 -0.333727 0
M  V30 6204 C 582.656 -3.36558 -0.542338 0
M  V30 6205 H 583.849 -2.76432 1.16298 0
M  V30 6206 H 581.402 -1.42573 0.640512 0
M  V30 6207 H 582.137 -2.92329 -1.40407 0
M  V30 6208 H 581.922 -3.92048 0.0636395 0
M  V30 6209 H 583.412 -4.07465 -0.91446 0
M  V30 6210 N 583.85 -0.624285 -1.44708 0
M  V30 6211 C 584.76 0.0861083 -2.34442 0
M  V30 6212 C 585.776 0.84291 -1.5222 0
M  V30 6213 O 586.952 0.796723 -1.84971 0
M  V30 6214 C 584.017 1.05999 -3.30099 0
M  V30 6215 C 583.077 0.303316 -4.28227 0
M  V30 6216 C 582.311 1.23081 -5.19314 0
M  V30 6217 O 582.534 2.46929 -5.14181 0
M  V30 6218 O 581.468 0.71883 -5.97592 0
M  V30 6219 H 585.293 -0.651756 -2.96624 0
M  V30 6220 H 582.879 -0.384493 -1.44368 0
M  V30 6221 H 584.76 1.62046 -3.88997 0
M  V30 6222 H 583.436 1.77859 -2.70459 0
M  V30 6223 H 582.343 -0.300033 -3.72895 0
M  V30 6224 H 583.676 -0.375123 -4.90768 0
M  V30 6225 N 585.328 1.53329 -0.364422 0
M  V30 6226 C 586.576 2.00842 0.225189 0
M  V30 6227 C 586.897 1.25345 1.49378 0
M  V30 6228 O 586.167 0.366396 1.92443 0
M  V30 6229 H 584.747 0.742009 0.0862027 0
M  V30 6230 H 587.409 1.8863 -0.490389 0
M  V30 6231 H 586.505 3.08795 0.452987 0
M  V30 6232 N 586.806 0.0935595 1.57322 0
M  V30 6233 C 587.736 -0.863062 2.16964 0
M  V30 6234 C 588.717 -1.29528 1.10256 0
M  V30 6235 O 589.902 -1.36245 1.38387 0
M  V30 6236 C 587.032 -2.12276 2.74875 0
M  V30 6237 C 585.986 -1.82921 3.86942 0
M  V30 6238 C 585.312 -3.15707 4.31548 0
M  V30 6239 C 586.612 -1.11737 5.10208 0
M  V30 6240 H 588.306 -0.366145 2.97153 0
M  V30 6241 H 585.852 -0.174673 1.42937 0
M  V30 6242 H 587.805 -2.79634 3.1525 0
M  V30 6243 H 586.529 -2.64248 1.91938 0
M  V30 6244 H 585.188 -1.17961 3.47103 0
M  V30 6245 H 584.836 -3.65563 3.45504 0
M  V30 6246 H 584.536 -2.96849 5.07104 0
M  V30 6247 H 586.06 -3.84226 4.74555 0
M  V30 6248 H 587.474 -1.69203 5.47762 0
M  V30 6249 H 585.871 -1.03064 5.91183 0
M  V30 6250 H 586.941 -0.0998818 4.84797 0
M  V30 6251 N 588.284 -1.56567 -0.180126 0
M  V30 6252 C 589.509 -1.85975 -0.918041 0
M  V30 6253 C 589.934 -0.678888 -1.75422 0
M  V30 6254 O 589.292 0.372168 -1.77439 0
M  V30 6255 C 589.34 -3.13731 -1.77779 0
M  V30 6256 O 588.444 -2.95335 -2.87838 0
M  V30 6257 H 587.785 -0.61196 -0.257683 0
M  V30 6258 H 590.315 -2.03798 -0.180923 0
M  V30 6259 H 590.325 -3.4491 -2.17948 0
M  V30 6260 H 589 -3.99293 -1.16352 0
M  V30 6261 H 587.577 -2.7549 -2.51316 0
M  V30 6262 N 589.762 0.448376 -1.51087 0
M  V30 6263 C 590.695 1.56298 -1.66272 0
M  V30 6264 C 591.673 1.54381 -0.510419 0
M  V30 6265 O 592.857 1.73671 -0.732854 0
M  V30 6266 C 589.984 2.94883 -1.66618 0
M  V30 6267 C 589.03 3.14868 -2.87681 0
M  V30 6268 S 589.863 2.9234 -4.48662 0
M  V30 6269 C 591.019 4.33227 -4.51735 0
M  V30 6270 H 591.252 1.43182 -2.6055 0
M  V30 6271 H 588.785 0.637309 -1.40633 0
M  V30 6272 H 590.743 3.74771 -1.67502 0
M  V30 6273 H 589.404 3.05371 -0.735358 0
M  V30 6274 H 588.597 4.16166 -2.84292 0
M  V30 6275 H 588.199 2.42788 -2.84482 0
M  V30 6276 H 590.491 5.26247 -4.26697 0
M  V30 6277 H 591.434 4.41653 -5.53487 0
M  V30 6278 H 591.842 4.16367 -3.81181 0
M  V30 6279 N 591.24 1.41047 0.703093 0
M  V30 6280 C 592.517 1.30493 1.45708 0
M  V30 6281 C 592.897 -0.0709892 2.10981 0
M  V30 6282 O 592.245 -1.08471 2.01113 0
M  V30 6283 C 592.455 2.45287 2.48265 0
M  V30 6284 C 593.803 2.86104 3.13735 0
M  V30 6285 O 594.827 2.44971 2.58587 0
M  V30 6286 O 593.686 3.57206 4.13601 0
M  V30 6287 H 590.78 0.513144 0.648546 0
M  V30 6288 H 593.326 1.52995 0.734208 0
M  V30 6289 H 592.098 3.37135 1.98635 0
M  V30 6290 H 591.721 2.24622 3.28071 0
M  V30 6291 N 592.718 -0.936591 1.26751 0
M  V30 6292 C 593.943 -1.72288 1.15462 0
M  V30 6293 C 594.368 -1.85915 -0.285887 0
M  V30 6294 O 593.726 -1.35272 -1.20711 0
M  V30 6295 C 593.774 -3.10503 1.83359 0
M  V30 6296 O 592.878 -3.96745 1.1255 0
M  V30 6297 H 592.219 -0.52843 0.402067 0
M  V30 6298 H 594.749 -1.17271 1.67656 0
M  V30 6299 H 594.759 -3.60867 1.90365 0
M  V30 6300 H 593.434 -2.99901 2.88153 0
M  V30 6301 H 592.011 -3.55191 1.13551 0
M  V30 6302 N 594.196 -1.08629 -1.14182 0
M  V30 6303 C 595.146 -0.687882 -2.17376 0
M  V30 6304 C 596.13 0.293632 -1.58198 0
M  V30 6305 O 597.322 0.105292 -1.76687 0
M  V30 6306 C 594.451 -0.101184 -3.43151 0
M  V30 6307 C 593.537 -1.10862 -4.09354 0
M  V30 6308 N 593.928 -2.29285 -4.50846 0
M  V30 6309 C 592.226 -0.944897 -4.35876 0
M  V30 6310 C 592.927 -2.93305 -5.02342 0
M  V30 6311 N 591.903 -2.20903 -4.96692 0
M  V30 6312 H 595.705 -1.58963 -2.472 0
M  V30 6313 H 593.219 -0.961329 -1.3089 0
M  V30 6314 H 595.216 0.202209 -4.16409 0
M  V30 6315 H 593.876 0.795522 -3.14804 0
M  V30 6316 H 594.887 -2.66927 -4.43813 0
M  V30 6317 H 591.564 -0.102186 -4.17375 0
M  V30 6318 H 592.954 -3.93932 -5.44304 0
M  V30 6319 N 595.674 1.31259 -0.872281 0
M  V30 6320 C 596.604 2.30929 -0.345554 0
M  V30 6321 C 597.585 1.60449 0.5648 0
M  V30 6322 O 598.77 1.8814 0.481335 0
M  V30 6323 C 595.9 3.44348 0.451823 0
M  V30 6324 C 594.854 4.26435 -0.365641 0
M  V30 6325 C 594.18 5.31785 0.557562 0
M  V30 6326 C 595.48 4.97159 -1.60095 0
M  V30 6327 H 597.174 2.75234 -1.17841 0
M  V30 6328 H 594.72 1.3232 -0.568094 0
M  V30 6329 H 596.673 4.13128 0.830854 0
M  V30 6330 H 595.397 2.98816 1.31821 0
M  V30 6331 H 594.056 3.59326 -0.726649 0
M  V30 6332 H 593.704 4.82502 1.4213 0
M  V30 6333 H 593.404 5.87598 0.0144878 0
M  V30 6334 H 594.928 6.03424 0.933387 0
M  V30 6335 H 596.342 5.58523 -1.29323 0
M  V30 6336 H 594.739 5.62779 -2.08327 0
M  V30 6337 H 595.809 4.24012 -2.35249 0
M  V30 6338 N 597.152 0.631951 1.44375 0
M  V30 6339 C 598.382 0.143658 2.061 0
M  V30 6340 C 598.79 -1.18733 1.47306 0
M  V30 6341 O 598.133 -1.73943 0.590724 0
M  V30 6342 C 598.195 -0.0446102 3.59472 0
M  V30 6343 C 597.859 1.20835 4.40736 0
M  V30 6344 C 598.856 2.13224 4.74164 0
M  V30 6345 C 596.541 1.44399 4.81097 0
M  V30 6346 C 598.535 3.27487 5.46838 0
M  V30 6347 C 596.222 2.58959 5.53519 0
M  V30 6348 C 597.22 3.50329 5.86309 0
M  V30 6349 O 596.908 4.62891 6.57257 0
M  V30 6350 H 596.64 0.0772939 0.671567 0
M  V30 6351 H 599.194 0.866677 1.8622 0
M  V30 6352 H 597.424 -0.822783 3.77845 0
M  V30 6353 H 599.113 -0.487561 4.02961 0
M  V30 6354 H 599.879 1.96253 4.4352 0
M  V30 6355 H 595.758 0.741696 4.54994 0
M  V30 6356 H 599.302 3.98826 5.72349 0
M  V30 6357 H 595.199 2.75873 5.83579 0
M  V30 6358 H 595.967 4.61883 6.75726 0
M  V30 6359 N 598.631 -1.53133 0.372548 0
M  V30 6360 C 599.594 -2.24569 -0.458389 0
M  V30 6361 C 600.594 -1.25603 -1.00402 0
M  V30 6362 O 601.784 -1.49827 -0.888672 0
M  V30 6363 C 598.916 -2.98783 -1.6414 0
M  V30 6364 H 600.109 -2.99436 0.166799 0
M  V30 6365 H 597.662 -1.55805 0.124357 0
M  V30 6366 H 598.397 -2.28176 -2.30448 0
M  V30 6367 H 598.182 -3.71404 -1.25704 0
M  V30 6368 H 599.672 -3.53068 -2.23008 0
M  V30 6369 N 600.109 -0.101901 -1.5727 0
M  V30 6370 C 601.334 0.571759 -1.99363 0
M  V30 6371 C 601.759 1.60507 -0.980768 0
M  V30 6372 O 601.117 1.81231 0.0498517 0
M  V30 6373 C 601.165 1.18996 -3.404 0
M  V30 6374 O 600.269 2.30572 -3.41922 0
M  V30 6375 H 599.61 0.144449 -0.648098 0
M  V30 6376 H 602.14 -0.185325 -2.03759 0
M  V30 6377 H 602.15 1.52962 -3.78241 0
M  V30 6378 H 600.825 0.432984 -4.1364 0
M  V30 6379 H 599.402 1.98173 -3.15883 0
M  V30 6380 N 601.587 1.56661 0.17182 0
M  V30 6381 C 602.535 1.97289 1.23207 0
M  V30 6382 C 603.529 0.861566 1.45854 0
M  V30 6383 O 604.735 1.04668 1.4644 0
M  V30 6384 H 601.11 0.627681 0.41415 0
M  V30 6385 H 603.081 2.85662 0.862542 0
M  V30 6386 C 601.83 2.34849 2.564 0
M  V30 6387 H 601.153 3.19903 2.39797 0
M  V30 6388 H 602.593 2.67121 3.29276 0
M  V30 6389 C 601.052 1.19172 3.15119 0
M  V30 6390 O 601.582 0.479113 3.98833 0
M  V30 6391 N 599.788 0.962415 2.74201 0
M  V30 6392 H 599.335 1.54365 2.06226 0
M  V30 6393 H 599.293 0.190272 3.13824 0
M  V30 6394 N 603.065 -0.440357 1.51323 0
M  V30 6395 C 604.314 -1.18697 1.63076 0
M  V30 6396 C 604.627 -1.92418 0.35136 0
M  V30 6397 O 605.833 -2.69258 0.348221 0
M  V30 6398 C 604.289 -2.15849 2.87988 0
M  V30 6399 C 603.897 -1.47789 4.22921 0
M  V30 6400 C 605.641 -2.90962 3.09098 0
M  V30 6401 C 603.548 -2.43407 5.38987 0
M  V30 6402 H 602.478 -0.44676 0.607389 0
M  V30 6403 H 605.129 -0.454313 1.77787 0
M  V30 6404 H 603.511 -2.92537 2.66905 0
M  V30 6405 H 604.685 -0.7668 4.54375 0
M  V30 6406 H 603 -0.848404 4.07665 0
M  V30 6407 H 605.597 -3.62584 3.92985 0
M  V30 6408 H 605.94 -3.52133 2.22053 0
M  V30 6409 H 606.473 -2.21381 3.30507 0
M  V30 6410 H 603.212 -1.86929 6.28282 0
M  V30 6411 H 602.732 -3.12579 5.11913 0
M  V30 6412 H 604.411 -3.046 5.70813 0
M  V30 6413 N 604.543 -1.41418 -0.695603 0
M  V30 6414 C 605.768 -1.44329 -1.48942 0
M  V30 6415 C 606.193 -0.0501579 -1.88033 0
M  V30 6416 O 605.551 0.946598 -1.54626 0
M  V30 6417 C 605.599 -2.3578 -2.72837 0
M  V30 6418 O 604.703 -1.81482 -3.70322 0
M  V30 6419 H 604.044 -0.489838 -0.44828 0
M  V30 6420 H 606.574 -1.85878 -0.855014 0
M  V30 6421 H 606.584 -2.51654 -3.21145 0
M  V30 6422 H 605.259 -3.37005 -2.43722 0
M  V30 6423 H 603.836 -1.75058 -3.29255 0
M  V30 6424 N 606.021 0.929856 -1.27246 0
M  V30 6425 C 607.298 1.65544 -1.04186 0
M  V30 6426 C 607.678 2.06796 0.424097 0
M  V30 6427 O 607.026 1.80053 1.40688 0
M  V30 6428 C 607.236 2.85912 -2.00138 0
M  V30 6429 C 608.584 3.57305 -2.29387 0
M  V30 6430 O 609.608 2.96036 -1.98094 0
M  V30 6431 O 608.467 4.67688 -2.82719 0
M  V30 6432 H 605.561 0.725473 -0.397011 0
M  V30 6433 H 608.107 0.980583 -1.38501 0
M  V30 6434 H 606.879 2.52403 -2.99013 0
M  V30 6435 H 606.502 3.61118 -1.66371 0
M  V30 6436 N 607.499 1.09233 1.13605 0
M  V30 6437 C 608.727 0.848908 1.88683 0
M  V30 6438 C 609.142 -0.599667 1.79024 0
M  V30 6439 O 608.499 -1.41265 1.15544 0
M  V30 6440 C 608.55 1.27273 3.38355 0
M  V30 6441 O 608.271 2.66449 3.47759 0
M  V30 6442 C 609.772 1.0614 4.30406 0
M  V30 6443 H 606.992 0.305549 0.597395 0
M  V30 6444 H 609.536 1.4538 1.43823 0
M  V30 6445 H 607.691 0.711776 3.80805 0
M  V30 6446 H 608.105 2.84264 4.40788 0
M  V30 6447 H 609.579 1.40725 5.33761 0
M  V30 6448 H 610.056 -0.000960332 4.392 0
M  V30 6449 H 610.662 1.60821 3.93722 0
M  V30 6450 N 608.977 -1.30795 0.87923 0
M  V30 6451 C 609.907 -2.30742 0.357796 0
M  V30 6452 C 610.888 -1.60747 -0.556283 0
M  V30 6453 O 612.073 -1.88393 -0.47135 0
M  V30 6454 C 609.203 -3.44583 -0.433555 0
M  V30 6455 C 608.157 -4.26235 0.388251 0
M  V30 6456 C 607.483 -5.32073 -0.529352 0
M  V30 6457 C 608.783 -4.96303 1.62729 0
M  V30 6458 H 610.477 -2.74605 1.19299 0
M  V30 6459 H 608.023 -1.32017 0.575104 0
M  V30 6460 H 609.976 -4.13563 -0.808934 0
M  V30 6461 H 608.7 -2.99511 -1.30234 0
M  V30 6462 H 607.359 -3.58936 0.745695 0
M  V30 6463 H 607.007 -4.83249 -1.39569 0
M  V30 6464 H 606.707 -5.87598 0.0166741 0
M  V30 6465 H 608.231 -6.0391 -0.901373 0
M  V30 6466 H 609.645 -5.5783 1.32283 0
M  V30 6467 H 608.042 -5.61666 2.11309 0
M  V30 6468 H 609.112 -4.22758 2.37494 0
M  V30 6469 N 610.455 -0.639598 -1.44038 0
M  V30 6470 C 611.702 -0.14748 -2.01962 0
M  V30 6471 C 612.03 1.23372 -1.50365 0
M  V30 6472 O 611.285 1.8345 -0.681501 0
M  V30 6473 C 611.584 -0.0925348 -3.5728 0
M  V30 6474 C 611.25 -1.41365 -4.28167 0
M  V30 6475 C 609.912 -1.77545 -4.47248 0
M  V30 6476 C 612.264 -2.2853 -4.68427 0
M  V30 6477 C 609.592 -3.00583 -5.03852 0
M  V30 6478 C 611.944 -3.50846 -5.26393 0
M  V30 6479 C 610.608 -3.8724 -5.43692 0
M  V30 6480 H 609.878 -0.0539666 -0.739032 0
M  V30 6481 H 612.525 -0.827599 -1.72694 0
M  V30 6482 H 610.83 0.670987 -3.86012 0
M  V30 6483 H 612.527 0.304891 -3.99839 0
M  V30 6484 H 609.117 -1.1221 -4.13651 0
M  V30 6485 H 613.301 -2.0187 -4.5339 0
M  V30 6486 H 608.557 -3.28846 -5.15432 0
M  V30 6487 H 612.731 -4.18616 -5.56537 0
M  V30 6488 H 610.358 -4.8266 -5.87319 0
M  V30 6489 N 611.933 1.52934 -0.380664 0
M  V30 6490 C 612.881 2.27727 0.47361 0
M  V30 6491 C 613.875 1.31288 1.0705 0
M  V30 6492 O 615.081 1.4886 1.01197 0
M  V30 6493 H 611.456 0.732189 0.171475 0
M  V30 6494 H 613.427 2.97864 -0.178785 0
M  V30 6495 C 612.176 3.0904 1.59341 0
M  V30 6496 H 611.499 3.831 1.14343 0
M  V30 6497 H 612.939 3.64527 2.16555 0
M  V30 6498 C 611.398 2.20813 2.54447 0
M  V30 6499 O 611.928 1.82907 3.57642 0
M  V30 6500 N 610.134 1.85145 2.23986 0
M  V30 6501 H 609.681 2.16169 1.40103 0
M  V30 6502 H 609.639 1.26402 2.87871 0
M  V30 6503 N 613.412 0.11024 1.57214 0
M  V30 6504 C 614.64 -0.557834 1.99238 0
M  V30 6505 C 615.055 -1.60778 0.989734 0
M  V30 6506 O 614.412 -1.82491 -0.0186092 0
M  V30 6507 C 614.463 -1.19189 3.41286 0
M  V30 6508 O 614.184 -0.183919 4.37714 0
M  V30 6509 C 615.685 -1.94413 3.98395 0
M  V30 6510 H 612.905 -0.148392 0.654386 0
M  V30 6511 H 615.449 0.193996 2.03578 0
M  V30 6512 H 613.604 -1.89456 3.37913 0
M  V30 6513 H 614.018 -0.643475 5.20538 0
M  V30 6514 H 615.492 -2.34116 4.99894 0
M  V30 6515 H 615.969 -2.81592 3.3705 0
M  V30 6516 H 616.575 -1.28928 4.05287 0
M  V30 6517 N 614.89 -1.56749 -0.16351 0
M  V30 6518 C 616.118 -1.86577 -0.894233 0
M  V30 6519 C 616.533 -0.696543 -1.75481 0
M  V30 6520 O 615.89 0.334161 -1.79415 0
M  V30 6521 C 615.941 -3.15508 -1.76456 0
M  V30 6522 O 615.662 -4.27926 -0.938685 0
M  V30 6523 C 617.163 -3.58737 -2.60428 0
M  V30 6524 H 614.383 -0.618829 -0.259405 0
M  V30 6525 H 616.927 -2.03863 -0.161259 0
M  V30 6526 H 615.082 -3.00025 -2.45079 0
M  V30 6527 H 615.496 -5.01546 -1.53465 0
M  V30 6528 H 616.97 -4.51832 -3.17099 0
M  V30 6529 H 617.447 -2.83229 -3.35675 0
M  V30 6530 H 618.053 -3.76858 -1.97125 0
M  V30 6531 N 616.368 0.432326 -1.51554 0
M  V30 6532 C 617.298 1.53242 -1.76179 0
M  V30 6533 C 618.279 1.58717 -0.611801 0
M  V30 6534 O 619.464 1.74364 -0.855033 0
M  V30 6535 C 616.594 2.91278 -1.89141 0
M  V30 6536 C 615.548 3.00663 -3.04608 0
M  V30 6537 C 614.874 4.40728 -3.02759 0
M  V30 6538 C 616.174 2.74281 -4.44485 0
M  V30 6539 H 617.868 1.32886 -2.68294 0
M  V30 6540 H 615.414 0.637841 -1.29103 0
M  V30 6541 H 617.367 3.68203 -2.04951 0
M  V30 6542 H 616.091 3.12877 -0.936785 0
M  V30 6543 H 614.75 2.26179 -2.88511 0
M  V30 6544 H 614.398 4.59301 -2.05065 0
M  V30 6545 H 614.098 4.47936 -3.80299 0
M  V30 6546 H 615.622 5.19619 -3.20669 0
M  V30 6547 H 617.036 3.40936 -4.60907 0
M  V30 6548 H 615.433 2.92893 -5.23769 0
M  V30 6549 H 616.503 1.69856 -4.54177 0
M  V30 6550 N 617.846 1.41785 0.688094 0
M  V30 6551 C 619.092 1.41753 1.4503 0
M  V30 6552 C 619.425 0.0290745 1.94178 0
M  V30 6553 O 618.7 -0.944456 1.7003 0
M  V30 6554 C 618.983 2.43069 2.65686 0
M  V30 6555 C 618.836 3.91053 2.22256 0
M  V30 6556 C 620.155 2.41543 3.67893 0
M  V30 6557 H 617.274 0.516202 0.526027 0
M  V30 6558 H 619.916 1.73111 0.783105 0
M  V30 6559 H 618.066 2.1646 3.2261 0
M  V30 6560 H 619.738 4.28594 1.70602 0
M  V30 6561 H 617.981 4.05559 1.53963 0
M  V30 6562 H 618.652 4.57501 3.08863 0
M  V30 6563 H 621.128 2.65175 3.20658 0
M  V30 6564 H 620.004 3.14434 4.49914 0
M  V30 6565 H 620.265 1.43666 4.18106 0
M  V30 6566 N 619.324 -0.923095 1.27737 0
M  V30 6567 C 620.57 -1.67375 1.14514 0
M  V30 6568 C 620.903 -1.91751 -0.307424 0
M  V30 6569 O 620.178 -1.51119 -1.22447 0
M  V30 6570 C 620.461 -3.03745 1.9342 0
M  V30 6571 C 620.314 -2.86581 3.46686 0
M  V30 6572 C 621.633 -4.04144 1.74228 0
M  V30 6573 H 618.752 -0.607427 0.417374 0
M  V30 6574 H 621.394 -1.07089 1.56946 0
M  V30 6575 H 619.544 -3.55204 1.5736 0
M  V30 6576 H 621.216 -2.42203 3.92601 0
M  V30 6577 H 619.459 -2.21829 3.72793 0
M  V30 6578 H 620.13 -3.83381 3.97143 0
M  V30 6579 H 622.606 -3.61712 2.05678 0
M  V30 6580 H 621.482 -4.97543 2.31824 0
M  V30 6581 H 621.743 -4.36661 0.691373 0
M  V30 6582 N 620.802 -1.09834 -1.13024 0
M  V30 6583 C 622.03 -0.858902 -1.8823 0
M  V30 6584 C 622.445 0.590164 -1.79339 0
M  V30 6585 O 621.802 1.4065 -1.16292 0
M  V30 6586 C 621.853 -1.29066 -3.37675 0
M  V30 6587 O 621.574 -2.6829 -3.46341 0
M  V30 6588 C 623.075 -1.08421 -4.29837 0
M  V30 6589 H 620.295 -0.308713 -0.595766 0
M  V30 6590 H 622.839 -1.4614 -1.4305 0
M  V30 6591 H 620.994 -0.731961 -3.80422 0
M  V30 6592 H 621.408 -2.86598 -4.39274 0
M  V30 6593 H 622.882 -1.43553 -5.33007 0
M  V30 6594 H 623.359 -0.0223315 -4.39194 0
M  V30 6595 H 623.965 -1.62907 -3.92863 0
M  V30 6596 N 622.28 1.30327 -0.886154 0
M  V30 6597 C 623.508 2.00254 -0.520176 0
M  V30 6598 C 623.923 1.66419 0.891637 0
M  V30 6599 O 623.28 0.901951 1.58654 0
M  V30 6600 C 623.331 3.54916 -0.686775 0
M  V30 6601 O 623.052 3.87547 -2.04301 0
M  V30 6602 C 624.553 4.42115 -0.323945 0
M  V30 6603 H 621.773 0.640204 -0.200947 0
M  V30 6604 H 624.317 1.66183 -1.19178 0
M  V30 6605 H 622.472 3.8735 -0.0625273 0
M  V30 6606 H 622.886 4.82247 -2.06249 0
M  V30 6607 H 624.36 5.49808 -0.491407 0
M  V30 6608 H 624.837 4.32953 0.73811 0
M  V30 6609 H 625.443 4.15129 -0.924565 0
M  V30 6610 N 623.758 0.647228 1.43697 0
M  V30 6611 C 625.007 0.155552 2.01099 0
M  V30 6612 C 625.32 -1.23569 1.51624 0
M  V30 6613 O 626.526 -1.82226 2.01261 0
M  V30 6614 C 624.982 0.227296 3.59182 0
M  V30 6615 C 624.59 1.62086 4.17651 0
M  V30 6616 C 626.334 -0.207085 4.23995 0
M  V30 6617 C 624.241 1.64685 5.68008 0
M  V30 6618 H 623.171 0.0543895 0.752036 0
M  V30 6619 H 625.822 0.808386 1.64734 0
M  V30 6620 H 624.204 -0.492937 3.9292 0
M  V30 6621 H 625.378 2.36597 3.95422 0
M  V30 6622 H 623.693 2.0007 3.65186 0
M  V30 6623 H 626.29 -0.207426 5.34298 0
M  V30 6624 H 626.633 -1.23742 3.97484 0
M  V30 6625 H 627.166 0.461193 3.95118 0
M  V30 6626 H 623.905 2.65608 5.99277 0
M  V30 6627 H 623.425 0.944914 5.9231 0
M  V30 6628 H 625.104 1.38792 6.31938 0
M  V30 6629 N 625.236 -1.5273 0.388769 0
M  V30 6630 C 626.166 -2.29353 -0.438111 0
M  V30 6631 C 627.147 -1.32719 -1.06394 0
M  V30 6632 O 628.332 -1.61612 -1.07681 0
M  V30 6633 C 625.462 -3.09995 -1.56589 0
M  V30 6634 C 624.416 -4.14509 -1.06613 0
M  V30 6635 C 623.742 -4.83372 -2.28594 0
M  V30 6636 C 625.042 -5.22127 -0.134459 0
M  V30 6637 H 626.736 -2.98723 0.201206 0
M  V30 6638 H 624.282 -1.43665 0.0982089 0
M  V30 6639 H 626.235 -3.62357 -2.15118 0
M  V30 6640 H 624.959 -2.38357 -2.23279 0
M  V30 6641 H 623.618 -3.63128 -0.503383 0
M  V30 6642 H 623.266 -4.08283 -2.93792 0
M  V30 6643 H 622.966 -5.54012 -1.95817 0
M  V30 6644 H 624.49 -5.38538 -2.87766 0
M  V30 6645 H 625.904 -5.69851 -0.627914 0
M  V30 6646 H 624.301 -6.00011 0.103534 0
M  V30 6647 H 625.371 -4.77971 0.816798 0
M  V30 6648 N 626.714 -0.118576 -1.57153 0
M  V30 6649 C 627.624 0.845484 -2.18835 0
M  V30 6650 C 628.64 1.29299 -1.16438 0
M  V30 6651 O 629.816 1.35607 -1.48905 0
M  V30 6652 C 626.881 2.07795 -2.77529 0
M  V30 6653 C 625.942 1.6824 -3.9496 0
M  V30 6654 C 625.175 2.85612 -4.50845 0
M  V30 6655 O 625.398 4.01025 -4.05629 0
M  V30 6656 O 624.332 2.62721 -5.41536 0
M  V30 6657 H 628.158 0.350568 -3.0167 0
M  V30 6658 H 625.743 0.107013 -1.49016 0
M  V30 6659 H 627.625 2.79978 -3.14945 0
M  V30 6660 H 626.3 2.56294 -1.97725 0
M  V30 6661 H 625.207 0.931663 -3.62313 0
M  V30 6662 H 626.54 1.24484 -4.76198 0
M  V30 6663 N 628.193 1.56834 0.155195 0
M  V30 6664 C 629.141 1.98584 1.21107 0
M  V30 6665 C 630.135 0.876987 1.44932 0
M  V30 6666 O 631.341 1.06215 1.45322 0
M  V30 6667 H 627.716 0.632039 0.407469 0
M  V30 6668 H 629.687 2.86561 0.832195 0
M  V30 6669 C 628.436 2.37555 2.53895 0
M  V30 6670 H 627.759 3.22428 2.3639 0
M  V30 6671 H 629.199 2.70598 3.26424 0
M  V30 6672 C 627.658 1.22507 3.13837 0
M  V30 6673 O 628.188 0.521388 3.98302 0
M  V30 6674 N 626.394 0.991444 2.73164 0
M  V30 6675 H 625.941 1.56544 2.04577 0
M  V30 6676 H 625.899 0.223546 3.13604 0
M  V30 6677 N 629.671 -0.424282 1.51781 0
M  V30 6678 C 631.082 -1.00368 1.57427 0
M  V30 6679 C 631.433 -1.91962 0.40558 0
M  V30 6680 O 630.558 -2.111 -0.47601 0
M  V30 6681 C 631.153 -1.82707 2.85313 0
M  V30 6682 C 629.712 -2.35675 2.93487 0
M  V30 6683 C 628.859 -1.1524 2.5222 0
M  V30 6684 H 631.81 -0.205064 1.5737 0
M  V30 6685 H 631.831 -2.68294 2.69812 0
M  V30 6686 H 631.343 -1.16017 3.70353 0
M  V30 6687 H 629.444 -3.05781 2.12906 0
M  V30 6688 H 629.557 -2.67578 3.97415 0
M  V30 6689 H 627.921 -1.50174 2.05718 0
M  V30 6690 H 628.704 -0.5014 3.39619 0
M  V30 6691 N 631.149 -1.42148 -0.680565 0
M  V30 6692 C 632.379 -1.45485 -1.46689 0
M  V30 6693 C 632.787 -0.0629451 -1.89095 0
M  V30 6694 O 632.13 0.931397 -1.58337 0
M  V30 6695 C 632.192 -2.31397 -2.75129 0
M  V30 6696 C 631.856 -3.79353 -2.54834 0
M  V30 6697 C 632.853 -4.71148 -2.19808 0
M  V30 6698 C 630.538 -4.23557 -2.70008 0
M  V30 6699 C 632.532 -6.05139 -2.00215 0
M  V30 6700 C 630.219 -5.57609 -2.50031 0
M  V30 6701 C 631.217 -6.48216 -2.15187 0
M  V30 6702 O 630.905 -7.79792 -1.95397 0
M  V30 6703 H 630.637 -0.497139 -0.458071 0
M  V30 6704 H 633.191 -1.87252 -0.844139 0
M  V30 6705 H 631.421 -1.84468 -3.39865 0
M  V30 6706 H 633.11 -2.26257 -3.36991 0
M  V30 6707 H 633.876 -4.38282 -2.07686 0
M  V30 6708 H 629.755 -3.53327 -2.96109 0
M  V30 6709 H 633.299 -6.75823 -1.72941 0
M  V30 6710 H 629.196 -5.9005 -2.61748 0
M  V30 6711 H 629.964 -7.91091 -2.10042 0
M  V30 6712 N 632.627 0.916307 -1.28225 0
M  V30 6713 C 633.557 2.0352 -1.14464 0
M  V30 6714 C 634.538 1.70045 -0.0430844 0
M  V30 6715 O 635.723 1.92954 -0.219619 0
M  V30 6716 C 632.853 3.37889 -0.803027 0
M  V30 6717 C 631.807 3.85516 -1.85908 0
M  V30 6718 C 631.133 5.1682 -1.37116 0
M  V30 6719 C 632.433 4.07655 -3.26519 0
M  V30 6720 H 634.127 2.1529 -2.08064 0
M  V30 6721 H 631.673 1.03446 -1.00174 0
M  V30 6722 H 633.626 4.15654 -0.693537 0
M  V30 6723 H 632.35 3.26164 0.168674 0
M  V30 6724 H 631.009 3.09953 -1.95767 0
M  V30 6725 H 630.657 5.01497 -0.38859 0
M  V30 6726 H 630.357 5.49657 -2.07728 0
M  V30 6727 H 631.881 5.97143 -1.27484 0
M  V30 6728 H 633.295 4.75953 -3.19596 0
M  V30 6729 H 631.692 4.51818 -3.94943 0
M  V30 6730 H 632.762 3.12553 -3.70727 0
M  V30 6731 N 634.105 1.10431 1.1244 0
M  V30 6732 C 635.038 0.696987 2.17296 0
M  V30 6733 C 636.016 -0.301673 1.59777 0
M  V30 6734 O 637.2 -0.200583 1.8743 0
M  V30 6735 C 634.327 0.0284094 3.38688 0
M  V30 6736 C 633.373 0.990536 4.14838 0
M  V30 6737 S 634.206 2.50785 4.73146 0
M  V30 6738 C 635.362 1.85198 5.97873 0
M  V30 6739 H 635.595 1.58523 2.51511 0
M  V30 6740 H 633.128 0.921312 1.239 0
M  V30 6741 H 635.086 -0.351009 4.08997 0
M  V30 6742 H 633.747 -0.836629 3.02753 0
M  V30 6743 H 632.94 0.469991 5.01804 0
M  V30 6744 H 632.542 1.31186 3.50237 0
M  V30 6745 H 634.834 1.18217 6.67106 0
M  V30 6746 H 635.777 2.7012 6.54554 0
M  V30 6747 H 636.185 1.31653 5.48933 0
M  V30 6748 N 635.583 -1.29855 0.893053 0
M  V30 6749 C 636.513 -2.3035 0.382249 0
M  V30 6750 C 637.494 -1.61328 -0.539203 0
M  V30 6751 O 638.679 -1.88882 -0.451342 0
M  V30 6752 C 635.809 -3.45024 -0.396983 0
M  V30 6753 C 634.763 -4.258 0.433437 0
M  V30 6754 C 634.089 -5.32605 -0.472889 0
M  V30 6755 C 635.389 -4.94549 1.67984 0
M  V30 6756 H 637.083 -2.73325 1.22205 0
M  V30 6757 H 634.629 -1.314 0.589073 0
M  V30 6758 H 636.582 -4.14398 -0.765024 0
M  V30 6759 H 635.306 -3.00875 -1.2705 0
M  V30 6760 H 633.965 -3.58125 0.783723 0
M  V30 6761 H 633.613 -4.84702 -1.34435 0
M  V30 6762 H 633.313 -5.87547 0.0789958 0
M  V30 6763 H 634.837 -6.04832 -0.837269 0
M  V30 6764 H 636.251 -5.56395 1.38192 0
M  V30 6765 H 634.648 -5.59393 2.17254 0
M  V30 6766 H 635.718 -4.20215 2.41965 0
M  V30 6767 N 637.061 -0.65484 -1.43351 0
M  V30 6768 C 638.008 0.0357713 -2.30772 0
M  V30 6769 C 638.978 0.813035 -1.44841 0
M  V30 6770 O 640.163 0.789314 -1.73708 0
M  V30 6771 C 637.303 0.995084 -3.30442 0
M  V30 6772 C 636.416 0.21375 -4.31471 0
M  V30 6773 C 635.551 1.16701 -5.18222 0
M  V30 6774 C 634.59 0.376201 -6.10943 0
M  V30 6775 N 633.727 1.28113 -6.90313 0
M  V30 6776 H 638.567 -0.71559 -2.89281 0
M  V30 6777 H 636.104 -0.364645 -1.42509 0
M  V30 6778 H 638.062 1.5649 -3.86739 0
M  V30 6779 H 636.692 1.7133 -2.7358 0
M  V30 6780 H 635.744 -0.472377 -3.77456 0
M  V30 6781 H 637.056 -0.401103 -4.97185 0
M  V30 6782 H 636.21 1.8074 -5.79153 0
M  V30 6783 H 634.949 1.81577 -4.52638 0
M  V30 6784 H 633.954 -0.277534 -5.49099 0
M  V30 6785 H 635.179 -0.268178 -6.7857 0
M  V30 6786 H 633.125 1.91666 -6.27376 0
M  V30 6787 H 633.042 0.720879 -7.52555 0
M  V30 6788 H 634.31 1.90962 -7.55747 0
M  V30 6789 N 638.539 1.52521 -0.396863 0
M  V30 6790 C 639.787 2.01274 0.182536 0
M  V30 6791 C 640.108 1.28485 1.46685 0
M  V30 6792 O 639.378 0.407134 1.91623 0
M  V30 6793 H 637.958 0.743671 0.0704442 0
M  V30 6794 H 640.62 1.87547 -0.530289 0
M  V30 6795 H 639.716 3.09687 0.387385 0
M  V30 6796 N 640.017 0.126909 1.57088 0
M  V30 6797 C 640.965 -0.837618 2.16995 0
M  V30 6798 C 641.959 -1.26974 1.12133 0
M  V30 6799 O 643.165 -1.24056 1.30423 0
M  V30 6800 H 639.54 -0.288256 0.694559 0
M  V30 6801 H 641.511 -0.307957 2.96807 0
M  V30 6802 C 640.26 -2.07474 2.79016 0
M  V30 6803 H 639.583 -1.75117 3.59408 0
M  V30 6804 H 641.023 -2.72949 3.24461 0
M  V30 6805 C 639.482 -2.86967 1.76498 0
M  V30 6806 O 640.012 -3.82625 1.22316 0
M  V30 6807 N 638.218 -2.51111 1.46258 0
M  V30 6808 H 637.765 -1.73389 1.90509 0
M  V30 6809 H 637.723 -3.04594 0.779085 0
M  V30 6810 N 641.495 -1.56914 -0.146875 0
M  V30 6811 C 642.445 -1.94693 -1.18653 0
M  V30 6812 C 643.429 -0.81821 -1.38543 0
M  V30 6813 O 644.621 -1.08167 -1.40103 0
M  V30 6814 C 641.75 -2.33117 -2.52014 0
M  V30 6815 C 640.836 -3.5256 -2.35717 0
M  V30 6816 N 641.227 -4.69091 -1.89175 0
M  V30 6817 C 639.525 -3.57647 -2.66467 0
M  V30 6818 C 640.226 -5.51187 -1.85924 0
M  V30 6819 N 639.202 -4.92899 -2.29242 0
M  V30 6820 H 643.004 -2.82264 -0.81879 0
M  V30 6821 H 640.518 -1.58474 -0.354929 0
M  V30 6822 H 642.515 -2.58387 -3.27172 0
M  V30 6823 H 641.175 -1.46898 -2.89571 0
M  V30 6824 H 642.186 -4.92844 -1.59139 0
M  V30 6825 H 638.863 -2.81967 -3.07898 0
M  V30 6826 H 640.253 -6.54613 -1.51431 0
M  V30 6827 N 642.974 0.416227 -1.52004 0
M  V30 6828 C 643.906 1.52552 -1.71058 0
M  V30 6829 C 644.919 1.51693 -0.59102 0
M  V30 6830 O 646.108 1.56087 -0.865973 0
M  V30 6831 C 643.208 2.91455 -1.72937 0
M  V30 6832 C 642.381 3.16584 -3.01816 0
M  V30 6833 C 641.44 4.35322 -2.95603 0
M  V30 6834 O 640.466 4.32947 -3.6952 0
M  V30 6835 N 641.668 5.40049 -2.12903 0
M  V30 6836 H 644.433 1.36604 -2.66757 0
M  V30 6837 H 641.994 0.60544 -1.50153 0
M  V30 6838 H 643.986 3.68944 -1.66321 0
M  V30 6839 H 642.556 3.00895 -0.847418 0
M  V30 6840 H 641.776 2.27203 -3.22137 0
M  V30 6841 H 643.064 3.30213 -3.87088 0
M  V30 6842 H 642.462 5.44823 -1.52265 0
M  V30 6843 H 641.019 6.16308 -2.1215 0
M  V30 6844 N 644.452 1.42507 0.673017 0
M  V30 6845 C 645.362 1.4853 1.81593 0
M  V30 6846 C 646.378 0.373907 1.69935 0
M  V30 6847 O 647.554 0.625078 1.91454 0
M  V30 6848 C 644.619 1.387 3.17747 0
M  V30 6849 C 643.68 2.60346 3.41348 0
M  V30 6850 C 642.913 2.50975 4.71007 0
M  V30 6851 O 643.136 1.54659 5.49033 0
M  V30 6852 O 642.07 3.41138 4.95892 0
M  V30 6853 H 645.896 2.45001 1.79467 0
M  V30 6854 H 643.481 1.2429 0.82899 0
M  V30 6855 H 645.363 1.35586 3.98992 0
M  V30 6856 H 644.038 0.453555 3.20507 0
M  V30 6857 H 642.945 2.69034 2.59945 0
M  V30 6858 H 644.278 3.52595 3.43421 0
M  V30 6859 N 645.93 -0.909495 1.28709 0
M  V30 6860 C 646.863 -2.01388 1.07323 0
M  V30 6861 C 647.841 -1.62596 -0.0119757 0
M  V30 6862 O 649.025 -1.88003 0.136796 0
M  V30 6863 C 646.152 -3.32755 0.631797 0
M  V30 6864 C 645.198 -3.90532 1.71428 0
M  V30 6865 S 646.031 -4.20853 3.31124 0
M  V30 6866 C 647.187 -5.55276 2.88825 0
M  V30 6867 H 647.42 -2.19219 2.00824 0
M  V30 6868 H 644.953 -1.05489 1.12745 0
M  V30 6869 H 646.911 -4.08702 0.38381 0
M  V30 6870 H 645.572 -3.12818 -0.283451 0
M  V30 6871 H 644.765 -4.85385 1.35712 0
M  V30 6872 H 644.367 -3.21237 1.91528 0
M  V30 6873 H 646.659 -6.35341 2.3526 0
M  V30 6874 H 647.602 -5.95907 3.82492 0
M  V30 6875 H 648.01 -5.16666 2.27412 0
M  V30 6876 N 647.408 -1.11026 -1.11852 0
M  V30 6877 C 648.318 -0.777252 -2.2135 0
M  V30 6878 C 649.334 0.227821 -1.72502 0
M  V30 6879 O 650.51 0.0650587 -2.01295 0
M  V30 6880 C 647.575 -0.220668 -3.45997 0
M  V30 6881 C 646.636 -1.2838 -4.09655 0
M  V30 6882 C 645.869 -0.753678 -5.28352 0
M  V30 6883 O 646.092 0.417779 -5.68868 0
M  V30 6884 O 645.026 -1.51647 -5.82483 0
M  V30 6885 H 648.852 -1.69141 -2.5224 0
M  V30 6886 H 646.437 -0.885836 -1.20305 0
M  V30 6887 H 648.319 0.0855756 -4.21313 0
M  V30 6888 H 646.994 0.666262 -3.16769 0
M  V30 6889 H 645.901 -1.64299 -3.3609 0
M  V30 6890 H 647.234 -2.14396 -4.43052 0
M  V30 6891 N 648.886 1.2938 -0.899927 0
M  V30 6892 C 650.134 1.95164 -0.524924 0
M  V30 6893 C 650.455 1.71292 0.931888 0
M  V30 6894 O 649.725 1.04481 1.65712 0
M  V30 6895 H 648.305 0.722133 -0.191135 0
M  V30 6896 H 650.967 1.57628 -1.14627 0
M  V30 6897 H 650.063 3.0397 -0.707711 0
M  V30 6898 N 650.364 0.662433 1.43002 0
M  V30 6899 C 651.312 -0.035345 2.32573 0
M  V30 6900 C 652.306 -0.803505 1.49131 0
M  V30 6901 O 653.512 -0.712865 1.65282 0
M  V30 6902 H 649.887 -0.0302194 0.751393 0
M  V30 6903 H 651.858 0.737686 2.89138 0
M  V30 6904 C 650.607 -0.981575 3.33557 0
M  V30 6905 H 649.93 -0.399914 3.97795 0
M  V30 6906 H 651.37 -1.43873 3.98844 0
M  V30 6907 C 649.829 -2.08204 2.64863 0
M  V30 6908 O 650.359 -3.16698 2.47113 0
M  V30 6909 N 648.565 -1.85022 2.24088 0
M  V30 6910 H 648.112 -0.967909 2.38724 0
M  V30 6911 H 648.07 -2.58845 1.78457 0
M  V30 6912 N 651.842 -1.52309 0.404946 0
M  V30 6913 C 653.119 -1.94237 -0.230544 0
M  V30 6914 C 653.499 -1.34154 -1.6299 0
M  V30 6915 O 652.847 -0.515713 -2.22604 0
M  V30 6916 C 653.057 -3.48166 -0.241106 0
M  V30 6917 C 654.405 -4.22074 -0.462488 0
M  V30 6918 O 655.429 -3.54754 -0.320644 0
M  V30 6919 O 654.288 -5.41443 -0.741708 0
M  V30 6920 H 651.382 -0.813766 -0.147358 0
M  V30 6921 H 653.928 -1.6333 0.460587 0
M  V30 6922 H 652.7 -3.84269 0.738467 0
M  V30 6923 H 652.323 -3.85422 -0.97651 0
M  V30 6924 N 653.32 -0.135238 -1.57019 0
M  V30 6925 C 654.736 0.221262 -1.58059 0
M  V30 6926 C 654.936 1.65538 -1.14889 0
M  V30 6927 O 653.992 2.37985 -0.843751 0
M  V30 6928 C 655.305 -0.0268114 -3.00688 0
M  V30 6929 C 656.853 0.0378206 -3.12977 0
M  V30 6930 C 657.328 -0.182769 -4.57635 0
M  V30 6931 N 658.819 -0.129292 -4.6302 0
M  V30 6932 C 659.554 -0.274648 -5.72742 0
M  V30 6933 N 659.05 -0.477075 -6.91155 0
M  V30 6934 N 660.843 -0.213077 -5.61696 0
M  V30 6935 H 652.994 -1.07177 -1.83376 0
M  V30 6936 H 655.257 -0.423338 -0.848227 0
M  V30 6937 H 654.963 -1.01889 -3.36618 0
M  V30 6938 H 654.837 0.697863 -3.70688 0
M  V30 6939 H 657.224 1.02043 -2.76896 0
M  V30 6940 H 657.305 -0.718996 -2.45487 0
M  V30 6941 H 656.949 -1.16243 -4.94419 0
M  V30 6942 H 656.879 0.59423 -5.23237 0
M  V30 6943 H 659.37 0.0229896 -3.77893 0
M  V30 6944 H 659.683 -0.578413 -7.70632 0
M  V30 6945 H 658.028 -0.513252 -6.93102 0
M  V30 6946 H 661.219 -0.0557796 -4.68067 0
M  V30 6947 H 661.392 -0.329796 -6.4716 0
M  V30 6948 N 654.798 1.5699 0.138552 0
M  V30 6949 C 656.028 1.87704 0.863184 0
M  V30 6950 C 656.436 0.722411 1.74865 0
M  V30 6951 O 655.779 -0.316636 1.80951 0
M  V30 6952 C 655.841 3.13219 1.76449 0
M  V30 6953 C 655.505 4.44648 1.05532 0
M  V30 6954 C 656.502 5.18318 0.405252 0
M  V30 6955 C 654.187 4.91367 1.04231 0
M  V30 6956 C 656.181 6.36916 -0.24835 0
M  V30 6957 C 653.868 6.09887 0.384904 0
M  V30 6958 C 654.866 6.82508 -0.259292 0
M  V30 6959 O 654.554 7.98775 -0.906258 0
M  V30 6960 H 654.286 0.626255 0.254521 0
M  V30 6961 H 656.84 2.04966 0.133472 0
M  V30 6962 H 655.07 2.91988 2.53535 0
M  V30 6963 H 656.759 3.30111 2.36181 0
M  V30 6964 H 657.525 4.83289 0.407053 0
M  V30 6965 H 653.404 4.34759 1.53315 0
M  V30 6966 H 656.948 6.93538 -0.751755 0
M  V30 6967 H 652.845 6.44376 0.380799 0
M  V30 6968 H 653.613 8.14494 -0.80877 0
M  V30 6969 N 656.276 -0.40816 1.52223 0
M  V30 6970 C 657.186 -1.52202 1.78526 0
M  V30 6971 C 658.202 -1.60546 0.670892 0
M  V30 6972 O 659.378 -1.77242 0.956404 0
M  V30 6973 C 656.443 -2.87928 1.93128 0
M  V30 6974 C 655.504 -2.89463 3.17033 0
M  V30 6975 C 654.737 -4.18715 3.30929 0
M  V30 6976 O 654.96 -5.12662 2.50067 0
M  V30 6977 O 653.894 -4.27125 4.24084 0
M  V30 6978 H 657.72 -1.32911 2.73072 0
M  V30 6979 H 655.305 -0.594112 1.37079 0
M  V30 6980 H 657.187 -3.68426 2.04549 0
M  V30 6981 H 655.862 -3.07285 1.01772 0
M  V30 6982 H 654.769 -2.07815 3.11069 0
M  V30 6983 H 656.102 -2.75055 4.08174 0
M  V30 6984 N 657.755 -1.42862 -0.66545 0
M  V30 6985 C 659.003 -1.43546 -1.42264 0
M  V30 6986 C 659.324 -0.0563116 -1.94919 0
M  V30 6987 O 658.594 0.906568 -1.73661 0
M  V30 6988 H 657.174 -0.528464 -0.527953 0
M  V30 6989 H 659.836 -1.78363 -0.785665 0
M  V30 6990 H 658.932 -2.14079 -2.27105 0
M  V30 6991 N 659.233 0.902656 -1.29189 0
M  V30 6992 C 660.48 1.65287 -1.16989 0
M  V30 6993 C 660.808 1.92485 0.279232 0
M  V30 6994 O 660.063 1.53143 1.21843 0
M  V30 6995 C 660.362 3.011 -1.92545 0
M  V30 6996 C 660.028 2.93521 -3.42281 0
M  V30 6997 C 658.69 2.91161 -3.83117 0
M  V30 6998 C 661.042 2.82947 -4.3771 0
M  V30 6999 C 658.37 2.76043 -5.17704 0
M  V30 7000 C 660.722 2.69368 -5.72384 0
M  V30 7001 C 659.386 2.65373 -6.12482 0
M  V30 7002 H 658.656 0.604828 -0.428094 0
M  V30 7003 H 661.303 1.05084 -1.60092 0
M  V30 7004 H 659.608 3.65153 -1.42024 0
M  V30 7005 H 661.305 3.58073 -1.80512 0
M  V30 7006 H 657.895 2.96158 -3.09819 0
M  V30 7007 H 662.079 2.83849 -4.07116 0
M  V30 7008 H 657.335 2.71352 -5.47885 0
M  V30 7009 H 661.509 2.60156 -6.45981 0
M  V30 7010 H 659.136 2.53415 -7.16718 0
M  V30 7011 N 660.711 1.11618 1.11262 0
M  V30 7012 C 661.951 0.876154 1.8467 0
M  V30 7013 C 662.315 -0.587551 1.82789 0
M  V30 7014 O 663.516 -0.944411 2.51663 0
M  V30 7015 C 661.787 1.42461 3.2778 0
M  V30 7016 S 663.346 1.32185 4.18417 0
M  V30 7017 H 660.164 0.31628 0.636779 0
M  V30 7018 H 662.766 1.42404 1.33946 0
M  V30 7019 H 661.47 2.48367 3.26714 0
M  V30 7020 H 661.001 0.873844 3.83572 0
M  V30 7021 H 663.016 0.287607 4.95366 0
M  V30 7022 N 662.189 -1.289 0.906776 0
M  V30 7023 C 663.435 -1.95558 0.53712 0
M  V30 7024 C 663.768 -1.71262 -0.915582 0
M  V30 7025 O 663.043 -1.02961 -1.65013 0
M  V30 7026 C 663.326 -3.50198 0.838645 0
M  V30 7027 C 663.179 -3.83923 2.34357 0
M  V30 7028 C 664.498 -4.38861 0.329988 0
M  V30 7029 H 661.617 -0.710289 0.196617 0
M  V30 7030 H 664.259 -1.52392 1.13475 0
M  V30 7031 H 662.409 -3.87096 0.330024 0
M  V30 7032 H 664.081 -3.56933 2.92227 0
M  V30 7033 H 662.324 -3.31215 2.80141 0
M  V30 7034 H 662.995 -4.91883 2.5051 0
M  V30 7035 H 665.471 -4.08996 0.765609 0
M  V30 7036 H 664.347 -5.45931 0.570105 0
M  V30 7037 H 664.608 -4.35352 -0.769511 0
M  V30 7038 N 663.667 -0.670007 -1.42649 0
M  V30 7039 C 664.944 -0.119451 -1.95235 0
M  V30 7040 C 665.324 1.36461 -1.61064 0
M  V30 7041 O 664.672 2.09843 -0.904329 0
M  V30 7042 C 664.882 -0.383498 -3.46887 0
M  V30 7043 C 666.23 -0.297431 -4.23557 0
M  V30 7044 O 667.254 -0.31698 -3.54787 0
M  V30 7045 O 666.113 -0.235507 -5.45992 0
M  V30 7046 H 663.207 -8.85474e-05 -0.827 0
M  V30 7047 H 665.753 -0.744406 -1.52501 0
M  V30 7048 H 664.525 -1.41174 -3.64946 0
M  V30 7049 H 664.148 0.273702 -3.96657 0
M  V30 7050 N 665.145 1.52092 -0.413018 0
M  V30 7051 C 666.078 2.23613 0.455234 0
M  V30 7052 C 667.056 1.2459 1.04481 0
M  V30 7053 O 668.24 1.53653 1.09193 0
M  V30 7054 C 665.367 2.96775 1.63224 0
M  V30 7055 C 664.413 4.10261 1.16568 0
M  V30 7056 S 665.246 5.35348 0.127633 0
M  V30 7057 C 666.402 6.1204 1.30987 0
M  V30 7058 H 666.635 2.96911 -0.152042 0
M  V30 7059 H 664.168 1.53134 -0.197343 0
M  V30 7060 H 666.126 3.39532 2.30713 0
M  V30 7061 H 664.787 2.23113 2.21087 0
M  V30 7062 H 663.98 4.6064 2.04515 0
M  V30 7063 H 663.582 3.6964 0.569386 0
M  V30 7064 H 665.874 6.39651 2.23276 0
M  V30 7065 H 666.817 7.03022 0.846533 0
M  V30 7066 H 667.225 5.43161 1.53743 0
M  V30 7067 N 666.623 0.143563 1.56945 0
M  V30 7068 C 667.553 -0.7936 2.196 0
M  V30 7069 C 668.534 -1.25955 1.14321 0
M  V30 7070 O 669.719 -1.31773 1.42651 0
M  V30 7071 C 666.849 -2.03424 2.81489 0
M  V30 7072 C 665.803 -1.70519 3.92565 0
M  V30 7073 C 665.129 -3.01817 4.41373 0
M  V30 7074 C 666.429 -0.95449 5.13504 0
M  V30 7075 H 668.123 -0.271423 2.98167 0
M  V30 7076 H 665.669 -0.12911 1.4342 0
M  V30 7077 H 667.622 -2.69463 3.23987 0
M  V30 7078 H 666.346 -2.58008 2.00248 0
M  V30 7079 H 665.005 -1.06859 3.5068 0
M  V30 7080 H 664.653 -3.54386 3.56959 0
M  V30 7081 H 664.353 -2.80565 5.16292 0
M  V30 7082 H 665.877 -3.68934 4.86539 0
M  V30 7083 H 667.291 -1.5169 5.52868 0
M  V30 7084 H 665.688 -0.842035 5.94163 0
M  V30 7085 H 666.758 0.0544033 4.84869 0
M  V30 7086 N 668.101 -1.57061 -0.130224 0
M  V30 7087 C 669.048 -1.99517 -1.16024 0
M  V30 7088 C 670.018 -0.865452 -1.41771 0
M  V30 7089 O 671.203 -1.12882 -1.53826 0
M  V30 7090 C 668.343 -2.3951 -2.48453 0
M  V30 7091 C 667.456 -3.65848 -2.29737 0
M  V30 7092 C 666.591 -3.9487 -3.55318 0
M  V30 7093 C 665.63 -5.14426 -3.31711 0
M  V30 7094 N 664.767 -5.39375 -4.49466 0
M  V30 7095 H 669.607 -2.87305 -0.791194 0
M  V30 7096 H 667.144 -1.42129 -0.379195 0
M  V30 7097 H 669.102 -2.60731 -3.25692 0
M  V30 7098 H 667.732 -1.54779 -2.83272 0
M  V30 7099 H 666.784 -3.52307 -1.4347 0
M  V30 7100 H 668.096 -4.53241 -2.08263 0
M  V30 7101 H 667.25 -4.16679 -4.4098 0
M  V30 7102 H 665.989 -3.05931 -3.79813 0
M  V30 7103 H 664.994 -4.92473 -2.44439 0
M  V30 7104 H 666.219 -6.04933 -3.08598 0
M  V30 7105 H 664.165 -4.53391 -4.74102 0
M  V30 7106 H 664.082 -6.21069 -4.31055 0
M  V30 7107 H 665.35 -5.65694 -5.36293 0
M  V30 7108 N 669.579 0.400081 -1.52437 0
M  V30 7109 C 670.489 1.51253 -1.79331 0
M  V30 7110 C 671.505 1.60188 -0.679396 0
M  V30 7111 O 672.681 1.76733 -0.965791 0
M  V30 7112 C 669.746 2.869 -1.94652 0
M  V30 7113 C 668.807 2.87777 -3.18564 0
M  V30 7114 C 668.04 4.16954 -3.33145 0
M  V30 7115 O 668.263 5.11329 -2.52783 0
M  V30 7116 O 667.197 4.2487 -4.26343 0
M  V30 7117 H 671.023 1.31461 -2.73773 0
M  V30 7118 H 668.608 0.586834 -1.37392 0
M  V30 7119 H 670.49 3.67336 -2.065 0
M  V30 7120 H 669.165 3.06741 -1.034 0
M  V30 7121 H 668.072 2.06162 -3.12167 0
M  V30 7122 H 669.405 2.72886 -4.09627 0
M  V30 7123 N 671.057 1.43213 0.657864 0
M  V30 7124 C 671.987 1.50815 1.78262 0
M  V30 7125 C 672.968 0.363211 1.66177 0
M  V30 7126 O 674.153 0.579806 1.85343 0
M  V30 7127 C 671.283 1.42625 3.16663 0
M  V30 7128 C 670.237 2.5532 3.43505 0
M  V30 7129 C 669.563 2.32184 4.81658 0
M  V30 7130 C 670.863 3.97583 3.38711 0
M  V30 7131 H 672.557 2.44954 1.72157 0
M  V30 7132 H 670.103 1.17896 0.82683 0
M  V30 7133 H 672.056 1.46548 3.95097 0
M  V30 7134 H 670.78 0.449877 3.23487 0
M  V30 7135 H 669.439 2.50742 2.6744 0
M  V30 7136 H 669.087 1.32801 4.85153 0
M  V30 7137 H 668.787 3.07724 5.00579 0
M  V30 7138 H 670.311 2.37883 5.62356 0
M  V30 7139 H 671.725 4.03673 4.07089 0
M  V30 7140 H 670.122 4.73112 3.69168 0
M  V30 7141 H 671.192 4.23049 2.36976 0
M  V30 7142 N 672.536 -0.895792 1.29666 0
M  V30 7143 C 673.499 -1.98189 1.15124 0
M  V30 7144 C 674.499 -1.60572 0.0855717 0
M  V30 7145 O 675.689 -1.70991 0.332826 0
M  V30 7146 C 672.821 -3.32289 0.761372 0
M  V30 7147 H 674.014 -2.12518 2.11603 0
M  V30 7148 H 671.567 -1.0808 1.12908 0
M  V30 7149 H 672.302 -3.23662 -0.203393 0
M  V30 7150 H 672.087 -3.60958 1.53139 0
M  V30 7151 H 673.577 -4.1198 0.682792 0
M  V30 7152 N 674.014 -1.12206 -1.10668 0
M  V30 7153 C 674.924 -0.800686 -2.20513 0
M  V30 7154 C 675.94 0.209512 -1.72734 0
M  V30 7155 O 677.116 0.043705 -2.01353 0
M  V30 7156 C 674.181 -0.257353 -3.45744 0
M  V30 7157 C 673.242 -1.32718 -4.0827 0
M  V30 7158 C 672.475 -0.809674 -5.27522 0
M  V30 7159 O 672.698 0.35742 -5.69279 0
M  V30 7160 O 671.632 -1.57816 -5.80842 0
M  V30 7161 H 675.458 -1.71807 -2.50432 0
M  V30 7162 H 673.043 -0.898546 -1.19359 0
M  V30 7163 H 674.925 0.0408849 -4.2138 0
M  V30 7164 H 673.6 0.632627 -3.17458 0
M  V30 7165 H 672.507 -1.67855 -3.34329 0
M  V30 7166 H 673.84 -2.19083 -4.40753 0
M  V30 7167 N 675.492 1.28418 -0.913599 0
M  V30 7168 C 676.741 1.94265 -0.542572 0
M  V30 7169 C 677.054 1.72709 0.918207 0
M  V30 7170 O 678.26 2.32778 1.39738 0
M  V30 7171 C 676.716 3.47956 -0.919507 0
M  V30 7172 C 676.324 3.78291 -2.4 0
M  V30 7173 C 678.068 4.19962 -0.619057 0
M  V30 7174 C 675.975 5.2529 -2.71707 0
M  V30 7175 H 674.905 0.727213 -0.199192 0
M  V30 7176 H 677.556 1.45931 -1.11249 0
M  V30 7177 H 675.938 3.9502 -0.278372 0
M  V30 7178 H 677.112 3.42035 -3.08786 0
M  V30 7179 H 675.427 3.19456 -2.67089 0
M  V30 7180 H 678.024 5.28178 -0.832623 0
M  V30 7181 H 678.367 4.13935 0.443126 0
M  V30 7182 H 678.9 3.78674 -1.21865 0
M  V30 7183 H 675.639 5.36394 -3.76778 0
M  V30 7184 H 675.159 5.62743 -2.07559 0
M  V30 7185 H 676.838 5.93027 -2.58703 0
M  V30 7186 N 676.97 0.677563 1.42291 0
M  V30 7187 C 677.9 0.014968 2.33495 0
M  V30 7188 C 678.881 -0.786376 1.50831 0
M  V30 7189 O 680.066 -0.742975 1.79426 0
M  V30 7190 C 677.196 -0.935023 3.34477 0
M  V30 7191 C 676.15 -0.242074 4.27315 0
M  V30 7192 C 675.476 -1.30519 5.18526 0
M  V30 7193 C 676.776 0.880604 5.14823 0
M  V30 7194 H 678.47 0.776671 2.89151 0
M  V30 7195 H 676.016 0.37494 1.39033 0
M  V30 7196 H 677.969 -1.40766 3.97194 0
M  V30 7197 H 676.693 -1.72818 2.77131 0
M  V30 7198 H 675.352 0.210351 3.65996 0
M  V30 7199 H 675 -2.09041 4.57505 0
M  V30 7200 H 674.7 -0.846652 5.81468 0
M  V30 7201 H 676.224 -1.7787 5.84119 0
M  V30 7202 H 677.638 0.489062 5.7121 0
M  V30 7203 H 676.035 1.26511 5.86613 0
M  V30 7204 H 677.105 1.72818 4.53059 0
M  V30 7205 N 678.448 -1.51871 0.421078 0
M  V30 7206 C 679.864 -1.59435 0.0725398 0
M  V30 7207 C 680.064 -1.43315 -1.41644 0
M  V30 7208 O 679.12 -1.26614 -2.18461 0
M  V30 7209 C 680.433 -2.9509 0.578132 0
M  V30 7210 C 681.981 -3.08356 0.537149 0
M  V30 7211 C 682.456 -4.4651 1.01945 0
M  V30 7212 N 683.947 -4.52784 0.976758 0
M  V30 7213 C 684.682 -5.57976 1.32099 0
M  V30 7214 N 684.178 -6.70664 1.73727 0
M  V30 7215 N 685.971 -5.48248 1.2402 0
M  V30 7216 H 678.122 -1.60595 1.39007 0
M  V30 7217 H 680.385 -0.756138 0.571803 0
M  V30 7218 H 680.091 -3.12205 1.61929 0
M  V30 7219 H 679.965 -3.772 -0.00578374 0
M  V30 7220 H 682.352 -2.90919 -0.494991 0
M  V30 7221 H 682.433 -2.28125 1.15727 0
M  V30 7222 H 682.077 -4.64692 2.04997 0
M  V30 7223 H 682.007 -5.25256 0.376023 0
M  V30 7224 H 684.498 -3.71898 0.670851 0
M  V30 7225 H 684.811 -7.46932 1.98274 0
M  V30 7226 H 683.156 -6.71914 1.77641 0
M  V30 7227 H 686.347 -4.59095 0.913756 0
M  V30 7228 H 686.52 -6.30119 1.51176 0
M  V30 7229 N 679.926 -0.151884 -1.56866 0
M  V30 7230 C 681.173 0.498004 -1.96281 0
M  V30 7231 C 681.501 1.64551 -1.03698 0
M  V30 7232 O 680.756 1.95585 -0.0671497 0
M  V30 7233 C 681.055 1.04074 -3.41911 0
M  V30 7234 C 680.721 0.0111688 -4.50899 0
M  V30 7235 C 679.383 -0.271844 -4.80432 0
M  V30 7236 C 681.735 -0.68869 -5.1663 0
M  V30 7237 C 679.063 -1.26044 -5.73001 0
M  V30 7238 C 681.415 -1.66613 -6.10264 0
M  V30 7239 C 680.079 -1.9568 -6.38174 0
M  V30 7240 H 679.349 0.182233 -0.718242 0
M  V30 7241 H 681.996 -0.239746 -1.89993 0
M  V30 7242 H 680.301 1.85592 -3.45055 0
M  V30 7243 H 681.998 1.55224 -3.69738 0
M  V30 7244 H 678.588 0.241932 -4.27917 0
M  V30 7245 H 682.772 -0.48324 -4.93942 0
M  V30 7246 H 678.028 -1.49202 -5.92915 0
M  V30 7247 H 682.202 -2.21392 -6.60272 0
M  V30 7248 H 679.829 -2.72434 -7.09707 0
M  V30 7249 N 681.404 1.57128 0.121893 0
M  V30 7250 C 682.352 2.01109 1.16868 0
M  V30 7251 C 683.346 0.907532 1.43039 0
M  V30 7252 O 684.552 1.09274 1.43036 0
M  V30 7253 H 680.927 0.640539 0.393971 0
M  V30 7254 H 682.898 2.88261 0.771224 0
M  V30 7255 C 681.647 2.42887 2.48799 0
M  V30 7256 H 680.97 3.2737 2.29498 0
M  V30 7257 H 682.41 2.77461 3.20611 0
M  V30 7258 C 680.869 1.29137 3.11168 0
M  V30 7259 O 681.399 0.605756 3.97106 0
M  V30 7260 N 679.605 1.04916 2.71 0
M  V30 7261 H 679.152 1.60848 2.01211 0
M  V30 7262 H 679.11 0.290016 3.1306 0
M  V30 7263 N 682.882 -0.391992 1.52647 0
M  V30 7264 C 684.112 -1.15692 1.71169 0
M  V30 7265 C 684.52 -1.84285 0.428444 0
M  V30 7266 O 683.863 -1.73393 -0.606669 0
M  V30 7267 C 683.925 -2.25033 2.80357 0
M  V30 7268 C 683.589 -1.76433 4.21569 0
M  V30 7269 C 684.586 -1.2427 5.0483 0
M  V30 7270 C 682.271 -1.82746 4.67877 0
M  V30 7271 C 684.265 -0.790657 6.32477 0
M  V30 7272 C 681.952 -1.37153 5.9551 0
M  V30 7273 C 682.95 -0.853997 6.7764 0
M  V30 7274 O 682.638 -0.404708 8.02881 0
M  V30 7275 H 682.37 -0.35297 0.576531 0
M  V30 7276 H 684.924 -0.464994 2.00067 0
M  V30 7277 H 683.154 -2.97641 2.46874 0
M  V30 7278 H 684.843 -2.86718 2.87311 0
M  V30 7279 H 685.609 -1.18752 4.70237 0
M  V30 7280 H 681.488 -2.21971 4.04042 0
M  V30 7281 H 685.032 -0.386024 6.96531 0
M  V30 7282 H 680.929 -1.42356 6.29607 0
M  V30 7283 H 681.697 -0.526459 8.16805 0
M  V30 7284 N 684.36 -1.4356 -0.65026 0
M  V30 7285 C 685.307 -1.48948 -1.76304 0
M  V30 7286 C 686.277 -0.338919 -1.62605 0
M  V30 7287 O 687.462 -0.54649 -1.82806 0
M  V30 7288 C 684.602 -1.42131 -3.14472 0
M  V30 7289 C 683.715 -2.67415 -3.39284 0
M  V30 7290 C 682.85 -2.52565 -4.67316 0
M  V30 7291 C 681.889 -3.73103 -4.85243 0
M  V30 7292 N 681.026 -3.57046 -6.04535 0
M  V30 7293 H 685.866 -2.44032 -1.71034 0
M  V30 7294 H 683.403 -1.21131 -0.834601 0
M  V30 7295 H 685.361 -1.36172 -3.94351 0
M  V30 7296 H 683.991 -0.506273 -3.18805 0
M  V30 7297 H 683.043 -2.8364 -2.53481 0
M  V30 7298 H 684.355 -3.56943 -3.48415 0
M  V30 7299 H 683.509 -2.44331 -5.55326 0
M  V30 7300 H 682.248 -1.60566 -4.60511 0
M  V30 7301 H 681.253 -3.81743 -3.95667 0
M  V30 7302 H 682.478 -4.66115 -4.93876 0
M  V30 7303 H 680.424 -2.67783 -5.98856 0
M  V30 7304 H 680.341 -4.40178 -6.14638 0
M  V30 7305 H 681.609 -3.52669 -6.95158 0
M  V30 7306 N 685.838 0.888903 -1.30139 0
M  V30 7307 C 687.087 1.63507 -1.18103 0
M  V30 7308 C 687.4 1.93808 0.264141 0
M  V30 7309 O 688.606 2.66744 0.505966 0
M  V30 7310 C 687.062 2.94673 -2.0663 0
M  V30 7311 C 686.67 2.71926 -3.56034 0
M  V30 7312 C 688.414 3.72626 -2.03346 0
M  V30 7313 C 686.321 3.98884 -4.3663 0
M  V30 7314 H 685.251 0.613426 -0.438435 0
M  V30 7315 H 687.902 0.984427 -1.54859 0
M  V30 7316 H 686.284 3.61009 -1.62754 0
M  V30 7317 H 687.458 2.14116 -4.08033 0
M  V30 7318 H 685.773 2.07353 -3.61101 0
M  V30 7319 H 688.37 4.66775 -2.60816 0
M  V30 7320 H 688.713 4.03712 -1.016 0
M  V30 7321 H 689.246 3.13147 -2.45324 0
M  V30 7322 H 685.985 3.72959 -5.39056 0
M  V30 7323 H 685.505 4.56214 -3.89396 0
M  V30 7324 H 687.184 4.66938 -4.47859 0
M  V30 7325 N 687.317 1.12792 1.10072 0
M  V30 7326 C 688.733 0.864745 1.34143 0
M  V30 7327 C 688.933 -0.503201 1.95116 0
M  V30 7328 O 687.989 -1.25111 2.19325 0
M  V30 7329 C 689.302 1.98413 2.25949 0
M  V30 7330 C 690.85 2.01545 2.39476 0
M  V30 7331 C 691.325 3.12727 3.34613 0
M  V30 7332 N 692.816 3.12194 3.42183 0
M  V30 7333 C 693.551 3.94862 4.15779 0
M  V30 7334 N 693.047 4.87528 4.92228 0
M  V30 7335 N 694.84 3.82985 4.11435 0
M  V30 7336 H 686.991 2.00926 0.68866 0
M  V30 7337 H 689.254 0.874564 0.365844 0
M  V30 7338 H 688.96 2.97005 1.88364 0
M  V30 7339 H 688.834 1.89254 3.26287 0
M  V30 7340 H 691.221 1.0357 2.76328 0
M  V30 7341 H 691.302 2.14777 1.3894 0
M  V30 7342 H 690.946 4.10936 2.98486 0
M  V30 7343 H 690.876 2.96732 4.35037 0
M  V30 7344 H 693.367 2.45065 2.87666 0
M  V30 7345 H 693.68 5.47109 5.45794 0
M  V30 7346 H 692.025 4.91539 4.9134 0
M  V30 7347 H 695.216 3.09923 3.50807 0
M  V30 7348 H 695.389 4.47641 4.68531 0
M  V30 7349 N 688.795 -1.27931 0.920396 0
M  V30 7350 C 689.725 -2.29487 0.431024 0
M  V30 7351 C 690.706 -1.62435 -0.504861 0
M  V30 7352 O 691.891 -1.89797 -0.411176 0
M  V30 7353 C 689.021 -3.45788 -0.323709 0
M  V30 7354 C 687.975 -4.24784 0.523658 0
M  V30 7355 C 687.301 -5.33488 -0.359809 0
M  V30 7356 C 688.601 -4.90874 1.78437 0
M  V30 7357 H 690.295 -2.70671 1.27975 0
M  V30 7358 H 687.841 -1.30121 0.616813 0
M  V30 7359 H 689.794 -4.15927 -0.676952 0
M  V30 7360 H 688.518 -3.03502 -1.2064 0
M  V30 7361 H 687.177 -3.56382 0.85951 0
M  V30 7362 H 686.825 -4.87445 -1.24124 0
M  V30 7363 H 686.525 -5.87247 0.203605 0
M  V30 7364 H 688.049 -6.06472 -0.708787 0
M  V30 7365 H 689.463 -5.53339 1.49963 0
M  V30 7366 H 687.86 -5.54659 2.29071 0
M  V30 7367 H 688.93 -4.14988 2.50824 0
M  V30 7368 N 690.273 -0.685099 -1.4193 0
M  V30 7369 C 691.519 -0.211971 -2.01689 0
M  V30 7370 C 691.852 1.18189 -1.54094 0
M  V30 7371 O 691.127 1.79559 -0.747572 0
M  V30 7372 C 691.41 -0.258019 -3.59174 0
M  V30 7373 C 691.263 -1.68807 -4.16922 0
M  V30 7374 C 692.582 0.388044 -4.38386 0
M  V30 7375 H 689.701 -0.0784987 -0.732808 0
M  V30 7376 H 692.343 -0.871837 -1.68816 0
M  V30 7377 H 690.493 0.303832 -3.8731 0
M  V30 7378 H 692.165 -2.30296 -3.99702 0
M  V30 7379 H 690.408 -2.22553 -3.72361 0
M  V30 7380 H 691.079 -1.6719 -5.26072 0
M  V30 7381 H 693.555 -0.0903432 -4.16002 0
M  V30 7382 H 692.431 0.325232 -5.47936 0
M  V30 7383 H 692.692 1.4672 -4.17044 0
M  V30 7384 N 691.751 1.51645 -0.429126 0
M  V30 7385 C 692.999 2.01616 0.139802 0
M  V30 7386 C 693.32 1.31568 1.43927 0
M  V30 7387 O 692.59 0.447688 1.90716 0
M  V30 7388 H 691.17 0.744998 0.054654 0
M  V30 7389 H 693.832 1.8638 -0.569952 0
M  V30 7390 H 692.928 3.10439 0.321609 0
M  V30 7391 N 693.229 0.160201 1.56784 0
M  V30 7392 C 694.506 -0.533355 1.88188 0
M  V30 7393 C 694.886 -1.82072 1.06831 0
M  V30 7394 O 694.234 -2.27946 0.158959 0
M  V30 7395 C 694.444 -0.786034 3.40033 0
M  V30 7396 C 695.792 -1.12097 4.09536 0
M  V30 7397 O 696.816 -0.874949 3.45287 0
M  V30 7398 O 695.675 -1.58457 5.23023 0
M  V30 7399 H 692.769 -0.273589 0.780434 0
M  V30 7400 H 695.315 0.197803 1.68543 0
M  V30 7401 H 694.087 0.124515 3.91102 0
M  V30 7402 H 693.71 -1.57091 3.65251 0
M  V30 7403 N 694.707 -1.5719 -0.113559 0
M  V30 7404 C 695.955 -1.84772 -0.818761 0
M  V30 7405 C 696.276 -0.746196 -1.80158 0
M  V30 7406 O 695.546 0.229305 -1.94553 0
M  V30 7407 H 694.126 -0.681737 -0.305359 0
M  V30 7408 H 696.788 -1.94645 -0.0995845 0
M  V30 7409 H 695.884 -2.80878 -1.36067 0
M  V30 7410 N 696.185 0.383891 -1.52853 0
M  V30 7411 C 697.431 1.13009 -1.68395 0
M  V30 7412 C 697.764 1.89488 -0.425195 0
M  V30 7413 O 697.039 1.8574 0.577136 0
M  V30 7414 C 697.322 2.10419 -2.92226 0
M  V30 7415 C 697.175 1.3767 -4.28214 0
M  V30 7416 C 698.494 3.10781 -3.11614 0
M  V30 7417 H 695.613 0.409463 -0.612788 0
M  V30 7418 H 698.255 0.412895 -1.85459 0
M  V30 7419 H 696.405 2.71579 -2.77808 0
M  V30 7420 H 698.077 0.794352 -4.54409 0
M  V30 7421 H 696.32 0.678533 -4.2846 0
M  V30 7422 H 696.991 2.08874 -5.10956 0
M  V30 7423 H 699.467 2.59715 -3.25096 0
M  V30 7424 H 698.343 3.76179 -3.99725 0
M  V30 7425 H 698.604 3.79933 -2.2606 0
M  V30 7426 N 697.663 1.43903 0.642637 0
M  V30 7427 C 698.893 1.49323 1.4278 0
M  V30 7428 C 699.301 0.113058 1.88862 0
M  V30 7429 O 698.644 -0.889089 1.60751 0
M  V30 7430 C 698.706 2.3861 2.68897 0
M  V30 7431 C 698.37 3.85976 2.44687 0
M  V30 7432 C 699.367 4.7681 2.07239 0
M  V30 7433 C 697.052 4.30567 2.58683 0
M  V30 7434 C 699.046 6.10234 1.841 0
M  V30 7435 C 696.733 5.64042 2.35159 0
M  V30 7436 C 697.731 6.53693 1.97925 0
M  V30 7437 O 697.419 7.84698 1.74654 0
M  V30 7438 H 697.151 0.509109 0.444729 0
M  V30 7439 H 699.705 1.89425 0.794195 0
M  V30 7440 H 697.935 1.93415 3.34855 0
M  V30 7441 H 699.624 2.35112 3.30873 0
M  V30 7442 H 700.39 4.43635 1.95993 0
M  V30 7443 H 696.269 3.61054 2.86637 0
M  V30 7444 H 699.813 6.80171 1.54962 0
M  V30 7445 H 695.71 5.96782 2.46011 0
M  V30 7446 H 696.478 7.96382 1.88993 0
M  V30 7447 N 699.141 -0.881989 1.30609 0
M  V30 7448 C 700.389 -1.63082 1.19368 0
M  V30 7449 C 700.71 -1.93376 -0.251147 0
M  V30 7450 O 699.98 -1.5723 -1.16857 0
M  V30 7451 H 698.56 -0.604542 0.438791 0
M  V30 7452 H 701.222 -1.05658 1.63776 0
M  V30 7453 H 700.318 -2.57966 1.7567 0
M  V30 7454 N 700.619 -1.13374 -1.09472 0
M  V30 7455 C 701.865 -0.896516 -1.81908 0
M  V30 7456 C 702.198 0.575933 -1.85463 0
M  V30 7457 O 701.473 1.42618 -1.32251 0
M  V30 7458 C 701.756 -1.48445 -3.28079 0
M  V30 7459 C 701.609 -3.02598 -3.32798 0
M  V30 7460 C 702.928 -1.15226 -4.24748 0
M  V30 7461 H 700.047 -0.327127 -0.660422 0
M  V30 7462 H 702.689 -1.40195 -1.2824 0
M  V30 7463 H 700.839 -1.0546 -3.73912 0
M  V30 7464 H 702.511 -3.54335 -2.95372 0
M  V30 7465 H 700.754 -3.37613 -2.72397 0
M  V30 7466 H 701.425 -3.38835 -4.3577 0
M  V30 7467 H 703.901 -1.52369 -3.87199 0
M  V30 7468 H 702.777 -1.59012 -5.25363 0
M  V30 7469 H 703.038 -0.0658891 -4.42051 0
M  V30 7470 N 702.098 1.27442 -0.927168 0
M  V30 7471 C 703.509 1.76385 -0.611979 0
M  V30 7472 C 703.86 1.75715 0.872853 0
M  V30 7473 O 702.985 1.3603 1.683 0
M  V30 7474 C 703.58 3.20303 -1.10414 0
M  V30 7475 C 702.139 3.66916 -0.839628 0
M  V30 7476 C 701.286 2.46859 -1.26317 0
M  V30 7477 H 704.237 1.13716 -1.107 0
M  V30 7478 H 704.258 3.77811 -0.451578 0
M  V30 7479 H 703.77 3.20759 -2.18484 0
M  V30 7480 H 701.871 3.71906 0.227292 0
M  V30 7481 H 701.984 4.56415 -1.45679 0
M  V30 7482 H 700.348 2.45407 -0.681723 0
M  V30 7483 H 701.131 2.50025 -2.3525 0
M  V30 7484 N 703.576 0.692616 1.41565 0
M  V30 7485 C 704.486 0.0258451 2.34586 0
M  V30 7486 C 705.502 -0.769324 1.56069 0
M  V30 7487 O 706.678 -0.707563 1.88562 0
M  V30 7488 C 703.743 -0.901289 3.3478 0
M  V30 7489 C 702.804 -0.0986579 4.29187 0
M  V30 7490 C 702.037 -0.981634 5.24595 0
M  V30 7491 O 702.26 -2.22115 5.25377 0
M  V30 7492 O 701.194 -0.432892 6.00341 0
M  V30 7493 H 705.02 0.792537 2.93177 0
M  V30 7494 H 702.605 0.452935 1.42369 0
M  V30 7495 H 704.487 -1.43302 3.96286 0
M  V30 7496 H 703.162 -1.64752 2.78637 0
M  V30 7497 H 702.069 0.477604 3.71039 0
M  V30 7498 H 703.402 0.608848 4.8842 0
M  V30 7499 N 705.054 -1.51416 0.437162 0
M  V30 7500 C 706.017 -2.26312 -0.362729 0
M  V30 7501 C 707.017 -1.29748 -0.949847 0
M  V30 7502 O 708.207 -1.53462 -0.824325 0
M  V30 7503 C 705.339 -3.05475 -1.5132 0
M  V30 7504 H 706.532 -2.98459 0.29365 0
M  V30 7505 H 704.085 -1.55137 0.190327 0
M  V30 7506 H 704.82 -2.37744 -2.20563 0
M  V30 7507 H 704.605 -3.76401 -1.09838 0
M  V30 7508 H 706.095 -3.62209 -2.07833 0
M  V30 7509 N 706.532 -0.168513 -1.56696 0
M  V30 7510 C 707.48 0.779791 -2.19139 0
M  V30 7511 C 708.474 1.23957 -1.1546 0
M  V30 7512 O 709.68 1.20555 -1.33666 0
M  V30 7513 H 706.055 0.269739 -0.701958 0
M  V30 7514 H 708.026 0.229156 -2.97519 0
M  V30 7515 C 706.775 2.00003 -2.84419 0
M  V30 7516 H 706.098 1.65527 -3.63924 0
M  V30 7517 H 707.538 2.64251 -3.31583 0
M  V30 7518 C 705.997 2.82187 -1.84044 0
M  V30 7519 O 706.527 3.79247 -1.32418 0
M  V30 7520 N 704.733 2.47145 -1.52864 0
M  V30 7521 H 704.28 1.68277 -1.9504 0
M  V30 7522 H 704.238 3.02422 -0.859569 0
M  V30 7523 N 708.01 1.57248 0.105221 0
M  V30 7524 C 709.258 1.85204 0.808951 0
M  V30 7525 C 709.579 0.75574 1.7976 0
M  V30 7526 O 708.849 -0.218984 1.94672 0
M  V30 7527 H 707.429 0.683346 0.301739 0
M  V30 7528 H 710.091 1.94695 0.0892605 0
M  V30 7529 H 709.187 2.81595 1.34575 0
M  V30 7530 N 709.488 -0.375779 1.53054 0
M  V30 7531 C 710.716 -1.14036 1.72637 0
M  V30 7532 C 711.131 -1.83342 0.450687 0
M  V30 7533 O 710.488 -1.7318 -0.575749 0
M  V30 7534 C 710.539 -2.17841 2.88492 0
M  V30 7535 O 710.26 -1.51358 4.11123 0
M  V30 7536 C 711.761 -3.06924 3.19863 0
M  V30 7537 H 708.981 -0.341386 0.577665 0
M  V30 7538 H 711.525 -0.437809 1.99759 0
M  V30 7539 H 709.68 -2.8371 2.63794 0
M  V30 7540 H 710.094 -2.20439 4.75928 0
M  V30 7541 H 711.568 -3.75763 4.04359 0
M  V30 7542 H 712.045 -3.71169 2.34798 0
M  V30 7543 H 712.651 -2.46684 3.46449 0
M  V30 7544 N 710.966 -1.44241 -0.634997 0
M  V30 7545 C 712.212 -1.48033 -1.39492 0
M  V30 7546 C 712.567 -0.109791 -1.92086 0
M  V30 7547 O 711.86 0.874394 -1.70484 0
M  V30 7548 C 712.054 -2.47279 -2.58046 0
M  V30 7549 C 711.883 -3.93848 -2.17057 0
M  V30 7550 C 710.653 -4.62061 -2.04518 0
M  V30 7551 C 712.851 -4.83172 -1.76208 0
M  V30 7552 N 710.833 -5.93471 -1.57051 0
M  V30 7553 C 712.204 -6.03996 -1.39958 0
M  V30 7554 C 714.259 -4.70271 -1.63554 0
M  V30 7555 C 712.962 -7.13351 -0.923196 0
M  V30 7556 C 714.988 -5.79646 -1.1732 0
M  V30 7557 C 714.35 -6.99609 -0.820181 0
M  V30 7558 H 710.449 -0.596743 -0.505392 0
M  V30 7559 H 713.033 -1.80542 -0.72887 0
M  V30 7560 H 711.204 -2.16766 -3.22284 0
M  V30 7561 H 712.936 -2.41391 -3.24827 0
M  V30 7562 H 709.691 -4.1682 -2.24851 0
M  V30 7563 H 710.115 -6.63275 -1.35628 0
M  V30 7564 H 714.757 -3.77964 -1.8948 0
M  V30 7565 H 712.475 -8.0547 -0.651441 0
M  V30 7566 H 716.061 -5.71689 -1.07993 0
M  V30 7567 H 714.941 -7.82803 -0.467901 0
M  V30 7568 N 712.444 0.87505 -1.31075 0
M  V30 7569 C 713.672 1.66058 -1.23419 0
M  V30 7570 C 714.087 1.87723 0.201347 0
M  V30 7571 O 713.444 1.43178 1.13165 0
M  V30 7572 C 713.495 3.03142 -1.96945 0
M  V30 7573 O 713.216 2.82448 -3.34895 0
M  V30 7574 C 714.717 3.97583 -1.96067 0
M  V30 7575 H 711.937 0.517868 -0.426677 0
M  V30 7576 H 714.481 1.09258 -1.72867 0
M  V30 7577 H 712.636 3.56645 -1.51271 0
M  V30 7578 H 713.05 3.69483 -3.72267 0
M  V30 7579 H 714.524 4.91104 -2.52034 0
M  V30 7580 H 715.001 4.2898 -0.941961 0
M  V30 7581 H 715.607 3.50015 -2.41597 0
M  V30 7582 N 713.922 1.13953 1.08869 0
M  V30 7583 C 715.17 0.903023 1.80803 0
M  V30 7584 C 715.491 -0.572151 1.86417 0
M  V30 7585 O 714.761 -1.41589 1.35386 0
M  V30 7586 H 713.341 0.331099 0.669614 0
M  V30 7587 H 716.003 1.43719 1.31647 0
M  V30 7588 H 715.099 1.29881 2.83791 0
M  V30 7589 N 715.4 -1.26948 0.933913 0
M  V30 7590 C 716.333 -2.24977 0.382169 0
M  V30 7591 C 717.311 -1.53893 -0.524949 0
M  V30 7592 O 718.495 -1.82699 -0.464048 0
M  V30 7593 C 715.622 -3.35676 -0.451615 0
M  V30 7594 C 714.668 -4.24686 0.392947 0
M  V30 7595 S 715.501 -5.03898 1.81237 0
M  V30 7596 C 716.657 -6.18078 0.986443 0
M  V30 7597 H 716.89 -2.71429 1.21299 0
M  V30 7598 H 714.423 -1.35701 0.736523 0
M  V30 7599 H 716.381 -3.99901 -0.926797 0
M  V30 7600 H 715.042 -2.8785 -1.25703 0
M  V30 7601 H 714.235 -5.03402 -0.245533 0
M  V30 7602 H 713.837 -3.65288 0.802537 0
M  V30 7603 H 716.129 -6.77125 0.225321 0
M  V30 7604 H 717.072 -6.86216 1.74682 0
M  V30 7605 H 717.48 -5.62047 0.525711 0
M  V30 7606 N 716.879 -0.700114 -1.41195 0
M  V30 7607 C 718.125 -0.233351 -2.01453 0
M  V30 7608 C 718.458 1.16548 -1.55339 0
M  V30 7609 O 717.733 1.78756 -0.766575 0
M  V30 7610 C 718.016 -0.2961 -3.58881 0
M  V30 7611 C 717.869 -1.7322 -4.15108 0
M  V30 7612 C 719.188 0.341525 -4.38773 0
M  V30 7613 H 716.307 -0.0862667 -0.731934 0
M  V30 7614 H 718.949 -0.889693 -1.67882 0
M  V30 7615 H 717.099 0.262736 -3.87611 0
M  V30 7616 H 718.771 -2.34523 -3.97236 0
M  V30 7617 H 717.014 -2.2649 -3.69979 0
M  V30 7618 H 717.685 -1.7276 -5.24269 0
M  V30 7619 H 720.161 -0.134461 -4.15883 0
M  V30 7620 H 719.037 0.267098 -5.4825 0
M  V30 7621 H 719.298 1.42289 -4.18577 0
M  V30 7622 N 718.357 1.51182 -0.445186 0
M  V30 7623 C 719.605 2.01753 0.11841 0
M  V30 7624 C 719.926 1.33087 1.42523 0
M  V30 7625 O 719.196 0.467891 1.9023 0
M  V30 7626 H 717.776 0.745536 0.0467492 0
M  V30 7627 H 720.438 1.85765 -0.589688 0
M  V30 7628 H 719.534 3.10762 0.288665 0
M  V30 7629 N 719.835 0.176821 1.56605 0
M  V30 7630 C 720.745 -0.763682 2.21822 0
M  V30 7631 C 721.761 -1.24889 1.21156 0
M  V30 7632 O 722.937 -1.29987 1.53836 0
M  V30 7633 C 720.002 -1.97352 2.8505 0
M  V30 7634 C 719.063 -1.53466 4.00932 0
M  V30 7635 C 718.296 -2.68682 4.61135 0
M  V30 7636 O 718.519 -3.85694 4.20234 0
M  V30 7637 O 717.453 -2.42442 5.50913 0
M  V30 7638 H 721.279 -0.238363 3.02763 0
M  V30 7639 H 718.864 -0.0516331 1.49311 0
M  V30 7640 H 720.746 -2.68096 3.25119 0
M  V30 7641 H 719.421 -2.48779 2.07101 0
M  V30 7642 H 718.328 -0.796551 3.65521 0
M  V30 7643 H 719.661 -1.06724 4.8049 0
M  V30 7644 N 721.313 -1.57302 -0.09688 0
M  V30 7645 C 722.243 -2.0497 -1.11846 0
M  V30 7646 C 723.224 -0.938278 -1.41882 0
M  V30 7647 O 724.409 -1.20943 -1.51942 0
M  V30 7648 C 721.539 -2.47264 -2.43881 0
M  V30 7649 C 720.493 -3.62053 -2.28257 0
M  V30 7650 C 719.819 -3.90318 -3.65453 0
M  V30 7651 C 721.119 -4.93005 -1.72461 0
M  V30 7652 H 722.813 -2.90567 -0.721888 0
M  V30 7653 H 720.359 -1.39786 -0.345803 0
M  V30 7654 H 722.312 -2.7922 -3.15617 0
M  V30 7655 H 721.036 -1.58664 -2.8547 0
M  V30 7656 H 719.695 -3.30341 -1.58967 0
M  V30 7657 H 719.343 -2.98889 -4.04567 0
M  V30 7658 H 719.043 -4.67597 -3.55846 0
M  V30 7659 H 720.567 -4.24747 -4.3866 0
M  V30 7660 H 721.981 -5.23354 -2.34036 0
M  V30 7661 H 720.378 -5.74436 -1.73618 0
M  V30 7662 H 721.448 -4.80053 -0.683898 0
M  V30 7663 N 722.791 0.367657 -1.53252 0
M  V30 7664 C 724.04 1.10782 -1.68554 0
M  V30 7665 C 724.353 1.90523 -0.442765 0
M  V30 7666 O 725.559 2.6729 -0.47629 0
M  V30 7667 C 724.015 2.01863 -2.97959 0
M  V30 7668 C 723.623 1.27443 -4.29491 0
M  V30 7669 C 725.367 2.75883 -3.22628 0
M  V30 7670 C 723.274 2.17414 -5.49987 0
M  V30 7671 H 722.204 0.417272 -0.628013 0
M  V30 7672 H 724.855 0.368971 -1.79752 0
M  V30 7673 H 723.237 2.7947 -2.80558 0
M  V30 7674 H 724.411 0.549138 -4.57516 0
M  V30 7675 H 722.726 0.652935 -4.11249 0
M  V30 7676 H 725.323 3.43421 -4.09837 0
M  V30 7677 H 725.666 3.41138 -2.38601 0
M  V30 7678 H 726.199 2.0536 -3.40693 0
M  V30 7679 H 722.938 1.5674 -6.36485 0
M  V30 7680 H 722.458 2.87799 -5.26243 0
M  V30 7681 H 724.137 2.77019 -5.84696 0
M  V30 7682 N 724.269 1.44576 0.627338 0
M  V30 7683 C 725.232 1.51372 1.72102 0
M  V30 7684 C 726.232 0.395329 1.55865 0
M  V30 7685 O 727.422 0.658094 1.61291 0
M  V30 7686 C 724.554 1.39129 3.11217 0
M  V30 7687 H 725.747 2.48798 1.6745 0
M  V30 7688 H 723.3 1.31724 0.841336 0
M  V30 7689 H 724.035 0.428114 3.21462 0
M  V30 7690 H 723.82 2.20229 3.24409 0
M  V30 7691 H 725.31 1.46874 3.90919 0
M  V30 7692 N 725.747 -0.868086 1.31537 0
M  V30 7693 C 727.163 -1.15414 1.10235 0
M  V30 7694 C 727.363 -2.01106 -0.125947 0
M  V30 7695 O 726.419 -2.38994 -0.814734 0
M  V30 7696 C 727.732 -1.84445 2.37488 0
M  V30 7697 C 729.28 -1.97139 2.43116 0
M  V30 7698 C 729.755 -2.69585 3.70254 0
M  V30 7699 N 731.246 -2.77119 3.71159 0
M  V30 7700 C 731.981 -3.33791 4.6623 0
M  V30 7701 N 731.477 -3.9138 5.71659 0
M  V30 7702 N 733.27 -3.31767 4.53747 0
M  V30 7703 H 725.421 -0.297109 2.10312 0
M  V30 7704 H 727.684 -0.194227 0.92789 0
M  V30 7705 H 727.39 -1.2893 3.27215 0
M  V30 7706 H 727.264 -2.84709 2.47428 0
M  V30 7707 H 729.651 -2.51818 1.53856 0
M  V30 7708 H 729.732 -0.95912 2.37138 0
M  V30 7709 H 729.376 -2.15572 4.59881 0
M  V30 7710 H 729.306 -3.71223 3.73499 0
M  V30 7711 H 731.797 -2.3625 2.94948 0
M  V30 7712 H 732.11 -4.3274 6.40278 0
M  V30 7713 H 730.455 -3.8975 5.7543 0
M  V30 7714 H 733.646 -2.86016 3.70557 0
M  V30 7715 H 733.819 -3.75636 5.28017 0
M  V30 7716 N 727.225 -1.14528 -1.08264 0
M  V30 7717 C 728.172 -0.833556 -2.15222 0
M  V30 7718 C 729.142 0.209539 -1.64773 0
M  V30 7719 O 730.327 0.0791388 -1.90636 0
M  V30 7720 C 727.467 -0.318799 -3.43624 0
M  V30 7721 C 726.58 -1.42237 -4.07913 0
M  V30 7722 C 725.715 -0.864704 -5.24115 0
M  V30 7723 C 724.754 -1.94585 -5.80347 0
M  V30 7724 N 723.891 -1.40525 -6.87893 0
M  V30 7725 H 728.731 -1.74965 -2.41228 0
M  V30 7726 H 726.268 -0.873169 -1.18381 0
M  V30 7727 H 728.226 -0.00213088 -4.172 0
M  V30 7728 H 726.856 0.560397 -3.17898 0
M  V30 7729 H 725.908 -1.8554 -3.32083 0
M  V30 7730 H 727.22 -2.23901 -4.45724 0
M  V30 7731 H 726.374 -0.500025 -6.04636 0
M  V30 7732 H 725.113 -0.0171219 -4.87697 0
M  V30 7733 H 724.118 -2.31946 -4.98479 0
M  V30 7734 H 725.343 -2.79704 -6.18823 0
M  V30 7735 H 723.289 -0.579873 -6.53432 0
M  V30 7736 H 723.206 -2.15825 -7.24538 0
M  V30 7737 H 724.474 -1.06852 -7.72142 0
M  V30 7738 N 728.703 1.26451 -0.940633 0
M  V30 7739 C 729.666 2.24651 -0.454378 0
M  V30 7740 C 730.666 1.54826 0.434222 0
M  V30 7741 O 731.856 1.72628 0.233477 0
M  V30 7742 C 728.988 3.39148 0.345192 0
M  V30 7743 H 730.181 2.69182 -1.32217 0
M  V30 7744 H 727.734 1.38596 -0.722547 0
M  V30 7745 H 728.469 3.00018 1.23125 0
M  V30 7746 H 728.254 3.9101 -0.292107 0
M  V30 7747 H 729.744 4.12103 0.675341 0
M  V30 7748 N 730.181 0.707592 1.40822 0
M  V30 7749 C 731.458 0.171172 1.9485 0
M  V30 7750 C 731.838 -1.32143 1.64625 0
M  V30 7751 O 731.186 -2.07372 0.959647 0
M  V30 7752 C 731.396 0.475334 3.45748 0
M  V30 7753 C 732.744 0.409625 4.22619 0
M  V30 7754 O 733.768 0.410934 3.53822 0
M  V30 7755 O 732.627 0.380185 5.45176 0
M  V30 7756 H 729.721 0.022015 0.826707 0
M  V30 7757 H 732.267 0.784577 1.50474 0
M  V30 7758 H 731.039 1.50801 3.61075 0
M  V30 7759 H 730.662 -0.168439 3.97243 0
M  V30 7760 N 731.66 -1.50943 0.453197 0
M  V30 7761 C 732.59 -2.31005 -0.34044 0
M  V30 7762 C 733.571 -1.37112 -1.00669 0
M  V30 7763 O 734.756 -1.66033 -1.0073 0
M  V30 7764 C 731.886 -3.16358 -1.433 0
M  V30 7765 C 730.84 -4.18658 -0.889363 0
M  V30 7766 C 730.166 -4.92633 -2.07887 0
M  V30 7767 C 731.466 -5.22227 0.0871142 0
M  V30 7768 H 733.16 -2.97601 0.327723 0
M  V30 7769 H 730.706 -1.43119 0.159054 0
M  V30 7770 H 732.659 -3.71155 -1.99555 0
M  V30 7771 H 731.383 -2.47613 -2.12968 0
M  V30 7772 H 730.042 -3.64936 -0.348915 0
M  V30 7773 H 729.69 -4.20376 -2.76211 0
M  V30 7774 H 729.39 -5.61819 -1.72143 0
M  V30 7775 H 730.914 -5.50258 -2.64666 0
M  V30 7776 H 732.328 -5.72001 -0.385656 0
M  V30 7777 H 730.725 -5.99032 0.357926 0
M  V30 7778 H 731.795 -4.74077 1.01879 0
M  V30 7779 N 733.138 -0.185124 -1.56509 0
M  V30 7780 C 734.101 0.72591 -2.17401 0
M  V30 7781 C 735.101 1.14819 -1.12575 0
M  V30 7782 O 736.291 1.0629 -1.38015 0
M  V30 7783 C 733.423 1.98979 -2.76803 0
M  V30 7784 H 734.616 0.195588 -2.99262 0
M  V30 7785 H 732.169 0.0644772 -1.56167 0
M  V30 7786 H 732.904 2.56287 -1.98714 0
M  V30 7787 H 732.689 1.69583 -3.53531 0
M  V30 7788 H 734.179 2.63966 -3.23592 0
M  V30 7789 N 734.616 1.57351 0.0885366 0
M  V30 7790 C 735.862 1.86696 0.791996 0
M  V30 7791 C 736.195 0.775148 1.78059 0
M  V30 7792 O 735.47 -0.216247 1.93294 0
M  V30 7793 C 735.753 3.26684 1.51491 0
M  V30 7794 C 735.606 4.465 0.543858 0
M  V30 7795 C 736.925 3.64664 2.46391 0
M  V30 7796 H 734.044 0.679049 0.286463 0
M  V30 7797 H 736.686 1.89919 0.0554866 0
M  V30 7798 H 734.836 3.24067 2.14273 0
M  V30 7799 H 736.508 4.61235 -0.0774597 0
M  V30 7800 H 734.751 4.33567 -0.142228 0
M  V30 7801 H 735.422 5.41192 1.08696 0
M  V30 7802 H 737.898 3.68267 1.93698 0
M  V30 7803 H 736.774 4.63534 2.93986 0
M  V30 7804 H 737.035 2.93698 3.30445 0
M  V30 7805 N 736.094 -0.359525 1.53444 0
M  V30 7806 C 737.057 -1.42357 1.7963 0
M  V30 7807 C 738.057 -1.46319 0.666884 0
M  V30 7808 O 739.247 -1.46974 0.935113 0
M  V30 7809 C 736.379 -2.81425 1.92387 0
M  V30 7810 H 737.572 -1.20409 2.74666 0
M  V30 7811 H 735.125 -0.593007 1.44614 0
M  V30 7812 H 735.86 -3.08679 0.994384 0
M  V30 7813 H 735.645 -2.79947 2.74539 0
M  V30 7814 H 737.135 -3.5847 2.14218 0
M  V30 7815 N 737.572 -1.44907 -0.619662 0
M  V30 7816 C 738.82 -1.47999 -1.37625 0
M  V30 7817 C 739.141 -0.118295 -1.94641 0
M  V30 7818 O 738.411 0.85086 -1.76457 0
M  V30 7819 H 736.991 -0.544993 -0.510873 0
M  V30 7820 H 739.653 -1.80772 -0.728522 0
M  V30 7821 H 738.749 -2.21196 -2.20179 0
M  V30 7822 N 739.05 0.861098 -1.31996 0
M  V30 7823 C 739.98 1.98482 -1.22993 0
M  V30 7824 C 740.961 1.6971 -0.115168 0
M  V30 7825 O 742.146 1.91849 -0.30126 0
M  V30 7826 C 739.276 3.34179 -0.945615 0
M  V30 7827 C 738.23 3.77284 -2.02091 0
M  V30 7828 C 737.556 5.1054 -1.58912 0
M  V30 7829 C 738.856 3.93439 -3.43515 0
M  V30 7830 H 740.55 2.06271 -2.17008 0
M  V30 7831 H 738.096 0.991043 -1.04472 0
M  V30 7832 H 740.049 4.12338 -0.869206 0
M  V30 7833 H 738.773 3.26586 0.0301849 0
M  V30 7834 H 737.432 3.01371 -2.08737 0
M  V30 7835 H 737.08 4.99397 -0.600942 0
M  V30 7836 H 736.78 5.40352 -2.30854 0
M  V30 7837 H 738.304 5.91199 -1.52696 0
M  V30 7838 H 739.718 4.6197 -3.39495 0
M  V30 7839 H 738.115 4.34661 -4.13751 0
M  V30 7840 H 739.185 2.96548 -3.8365 0
M  V30 7841 N 740.528 1.15101 1.07655 0
M  V30 7842 C 741.756 0.947731 1.83918 0
M  V30 7843 C 742.171 -0.503927 1.81951 0
M  V30 7844 O 741.528 -1.34941 1.2287 0
M  V30 7845 C 741.579 1.4503 3.31132 0
M  V30 7846 O 741.3 2.84508 3.33146 0
M  V30 7847 C 742.801 1.28806 4.24174 0
M  V30 7848 H 740.021 0.336786 0.580358 0
M  V30 7849 H 742.565 1.52799 1.35914 0
M  V30 7850 H 740.72 0.912632 3.76497 0
M  V30 7851 H 741.134 3.0723 4.251 0
M  V30 7852 H 742.608 1.6882 5.25551 0
M  V30 7853 H 743.085 0.231851 4.38588 0
M  V30 7854 H 743.691 1.81465 3.84643 0
M  V30 7855 N 742.006 -1.2595 0.947325 0
M  V30 7856 C 743.255 -1.92759 0.593887 0
M  V30 7857 C 743.568 -1.75083 -0.872093 0
M  V30 7858 O 744.774 -2.36401 -1.33518 0
M  V30 7859 C 743.23 -3.45395 1.01144 0
M  V30 7860 C 742.838 -3.71795 2.49946 0
M  V30 7861 C 744.582 -4.18173 0.730185 0
M  V30 7862 C 742.489 -5.17901 2.85539 0
M  V30 7863 H 741.419 -0.721676 0.218403 0
M  V30 7864 H 744.07 -1.4293 1.15079 0
M  V30 7865 H 742.452 -3.94143 0.383007 0
M  V30 7866 H 743.626 -3.33728 3.17746 0
M  V30 7867 H 741.941 -3.12263 2.75465 0
M  V30 7868 H 744.538 -5.25784 0.972367 0
M  V30 7869 H 744.881 -4.14964 -0.333223 0
M  V30 7870 H 745.414 -3.75309 1.31862 0
M  V30 7871 H 742.153 -5.26216 3.90867 0
M  V30 7872 H 741.673 -5.57042 2.22406 0
M  V30 7873 H 743.352 -5.8596 2.74336 0
M  V30 7874 N 743.484 -0.715051 -1.40445 0
M  V30 7875 C 744.712 -0.263959 -2.05209 0
M  V30 7876 C 745.127 1.09403 -1.53871 0
M  V30 7877 O 744.484 1.68746 -0.695064 0
M  V30 7878 C 744.535 -0.234545 -3.60738 0
M  V30 7879 O 744.256 -1.53891 -4.10182 0
M  V30 7880 C 745.757 0.235164 -4.42676 0
M  V30 7881 H 742.977 -0.11876 -0.660407 0
M  V30 7882 H 745.521 -0.973107 -1.79864 0
M  V30 7883 H 743.676 0.425563 -3.85055 0
M  V30 7884 H 744.09 -1.43903 -5.04373 0
M  V30 7885 H 745.564 0.204598 -5.51621 0
M  V30 7886 H 746.041 1.27724 -4.20218 0
M  V30 7887 H 746.647 -0.394649 -4.23465 0
M  V30 7888 N 744.962 1.50701 -0.461195 0
M  V30 7889 C 745.925 2.2686 0.326679 0
M  V30 7890 C 746.925 1.31243 0.929085 0
M  V30 7891 O 748.115 1.54754 0.799807 0
M  V30 7892 C 745.247 3.07844 1.46441 0
M  V30 7893 H 746.44 2.97954 -0.341095 0
M  V30 7894 H 743.993 1.54814 -0.214984 0
M  V30 7895 H 744.728 2.41223 2.16753 0
M  V30 7896 H 744.513 3.78101 1.03836 0
M  V30 7897 H 746.003 3.65469 2.02044 0
M  V30 7898 N 746.441 0.193421 1.56409 0
M  V30 7899 C 747.351 -0.740112 2.2262 0
M  V30 7900 C 748.367 -1.23597 1.22474 0
M  V30 7901 O 749.543 -1.28348 1.55206 0
M  V30 7902 C 746.608 -1.94317 2.87127 0
M  V30 7903 C 745.669 -1.49205 4.02538 0
M  V30 7904 C 744.902 -2.63776 4.63959 0
M  V30 7905 O 745.125 -3.81215 4.24301 0
M  V30 7906 O 744.059 -2.36585 5.53454 0
M  V30 7907 H 747.885 -0.206238 3.02999 0
M  V30 7908 H 745.47 -0.0357938 1.49357 0
M  V30 7909 H 747.352 -2.64633 3.27944 0
M  V30 7910 H 746.027 -2.46568 2.09728 0
M  V30 7911 H 744.934 -0.757738 3.66346 0
M  V30 7912 H 746.267 -1.01622 4.81595 0
M  V30 7913 N 747.919 -1.57396 -0.0801906 0
M  V30 7914 C 749.335 -1.53564 -0.434778 0
M  V30 7915 C 749.535 -0.912372 -1.79661 0
M  V30 7916 O 748.591 -0.511268 -2.4727 0
M  V30 7917 C 749.904 -2.98244 -0.383561 0
M  V30 7918 C 751.452 -3.09536 -0.46435 0
M  V30 7919 C 751.927 -4.55851 -0.443128 0
M  V30 7920 N 753.418 -4.60456 -0.503448 0
M  V30 7921 C 754.153 -5.71135 -0.509106 0
M  V30 7922 N 753.649 -6.91203 -0.47008 0
M  V30 7923 N 755.442 -5.59353 -0.555035 0
M  V30 7924 H 747.593 -1.96281 0.811635 0
M  V30 7925 H 749.856 -0.898041 0.303689 0
M  V30 7926 H 749.562 -3.47369 0.550236 0
M  V30 7927 H 749.436 -3.57705 -1.19694 0
M  V30 7928 H 751.823 -2.6039 -1.38857 0
M  V30 7929 H 751.904 -2.53 0.377445 0
M  V30 7930 H 751.548 -5.05653 0.477207 0
M  V30 7931 H 751.478 -5.10242 -1.30234 0
M  V30 7932 H 753.969 -3.74048 -0.538199 0
M  V30 7933 H 754.282 -7.7132 -0.478091 0
M  V30 7934 H 752.627 -6.93625 -0.436897 0
M  V30 7935 H 755.818 -4.64453 -0.583158 0
M  V30 7936 H 755.991 -6.4561 -0.555976 0
M  V30 7937 N 749.397 0.351382 -1.53633 0
M  V30 7938 C 750.307 1.45471 -1.84052 0
M  V30 7939 C 751.323 1.57945 -0.730015 0
M  V30 7940 O 752.499 1.73571 -1.02153 0
M  V30 7941 C 749.564 2.80562 -2.03681 0
M  V30 7942 C 748.625 2.77497 -3.27558 0
M  V30 7943 C 747.858 4.06144 -3.46241 0
M  V30 7944 O 748.081 5.03028 -2.68922 0
M  V30 7945 O 747.015 4.11092 -4.39645 0
M  V30 7946 H 750.841 1.22684 -2.77817 0
M  V30 7947 H 748.426 0.542827 -1.3919 0
M  V30 7948 H 750.308 3.6058 -2.18082 0
M  V30 7949 H 748.983 3.03296 -1.13106 0
M  V30 7950 H 747.89 1.96126 -3.18568 0
M  V30 7951 H 749.223 2.59716 -4.18101 0
M  V30 7952 N 750.875 1.45233 0.611969 0
M  V30 7953 C 751.822 1.5357 1.72293 0
M  V30 7954 C 752.792 0.381912 1.6165 0
M  V30 7955 O 753.977 0.594765 1.81293 0
M  V30 7956 C 751.117 1.50419 3.10593 0
M  V30 7957 C 750.23 2.76316 3.32074 0
M  V30 7958 C 749.365 2.64866 4.60456 0
M  V30 7959 C 748.404 3.85838 4.7518 0
M  V30 7960 N 747.541 3.72949 5.94856 0
M  V30 7961 H 752.381 2.4848 1.64504 0
M  V30 7962 H 749.918 1.23302 0.802191 0
M  V30 7963 H 751.876 1.4658 3.90602 0
M  V30 7964 H 750.506 0.590621 3.17351 0
M  V30 7965 H 749.558 2.90261 2.45872 0
M  V30 7966 H 750.87 3.66055 3.38829 0
M  V30 7967 H 750.024 2.58969 5.48653 0
M  V30 7968 H 748.763 1.72719 4.56092 0
M  V30 7969 H 747.768 3.92099 3.85407 0
M  V30 7970 H 748.993 4.79045 4.81344 0
M  V30 7971 H 746.939 2.83567 5.91545 0
M  V30 7972 H 746.856 4.56319 6.02751 0
M  V30 7973 H 748.124 3.70976 6.85563 0
M  V30 7974 N 752.353 -0.854086 1.3245 0
M  V30 7975 C 753.599 -1.61069 1.23225 0
M  V30 7976 C 753.932 -1.93111 -0.205349 0
M  V30 7977 O 753.207 -1.57397 -1.14265 0
M  V30 7978 C 753.49 -2.93065 2.09249 0
M  V30 7979 C 753.343 -2.67801 3.6139 0
M  V30 7980 C 754.662 -3.94341 1.95406 0
M  V30 7981 H 751.781 -0.584449 0.448986 0
M  V30 7982 H 754.423 -0.986189 1.62402 0
M  V30 7983 H 752.573 -3.46364 1.75967 0
M  V30 7984 H 754.245 -2.21052 4.04887 0
M  V30 7985 H 752.488 -2.01756 3.84027 0
M  V30 7986 H 753.159 -3.6179 4.16907 0
M  V30 7987 H 755.635 -3.50301 2.24562 0
M  V30 7988 H 754.511 -4.84555 2.57872 0
M  V30 7989 H 754.772 -4.32382 0.921865 0
M  V30 7990 N 753.831 -1.1567 -1.07043 0
M  V30 7991 C 755.08 -0.928039 -1.79082 0
M  V30 7992 C 755.393 0.545968 -1.87826 0
M  V30 7993 O 756.599 0.892308 -2.56418 0
M  V30 7994 C 755.055 -1.61103 -3.21829 0
M  V30 7995 C 754.663 -3.12228 -3.21275 0
M  V30 7996 C 756.407 -1.46404 -3.98455 0
M  V30 7997 C 754.314 -3.733 -4.58695 0
M  V30 7998 H 753.244 -0.34357 -0.671175 0
M  V30 7999 H 755.895 -1.38718 -1.20123 0
M  V30 8000 H 754.277 -1.07958 -3.81 0
M  V30 8001 H 755.451 -3.72155 -2.71731 0
M  V30 8002 H 753.766 -3.26725 -2.58147 0
M  V30 8003 H 756.363 -1.8942 -5.00024 0
M  V30 8004 H 756.706 -0.41195 -4.14257 0
M  V30 8005 H 757.239 -1.96663 -3.45787 0
M  V30 8006 H 753.978 -4.78423 -4.48098 0
M  V30 8007 H 753.498 -3.18157 -5.08465 0
M  V30 8008 H 755.177 -3.7441 -5.27661 0
M  V30 8009 N 755.309 1.25446 -0.953992 0
M  V30 8010 C 756.586 1.884 -0.525823 0
M  V30 8011 C 756.966 1.86079 0.996891 0
M  V30 8012 O 756.314 1.32389 1.8624 0
M  V30 8013 C 756.524 3.31154 -1.10172 0
M  V30 8014 C 757.872 4.07926 -1.17819 0
M  V30 8015 O 758.896 3.40273 -1.05323 0
M  V30 8016 O 757.755 5.28942 -1.37415 0
M  V30 8017 H 754.849 0.808629 -0.173345 0
M  V30 8018 H 757.395 1.33522 -1.04738 0
M  V30 8019 H 756.167 3.27271 -2.14499 0
M  V30 8020 H 755.79 3.93588 -0.56338 0
M  V30 8021 N 756.787 0.722489 1.40064 0
M  V30 8022 C 758.034 0.264979 2.00759 0
M  V30 8023 C 758.362 -1.14395 1.57302 0
M  V30 8024 O 757.617 -1.79165 0.787298 0
M  V30 8025 C 757.916 0.300682 3.56133 0
M  V30 8026 C 757.582 1.66087 4.19197 0
M  V30 8027 C 756.244 2.03319 4.36136 0
M  V30 8028 C 758.596 2.55452 4.54306 0
M  V30 8029 C 755.924 3.29448 4.8547 0
M  V30 8030 C 758.276 3.8094 5.05042 0
M  V30 8031 C 756.94 4.1828 5.2019 0
M  V30 8032 H 756.21 0.0969625 0.734629 0
M  V30 8033 H 758.857 0.926877 1.67575 0
M  V30 8034 H 757.162 -0.44479 3.89267 0
M  V30 8035 H 758.859 -0.0712542 4.00937 0
M  V30 8036 H 755.449 1.36137 4.06405 0
M  V30 8037 H 759.633 2.27961 4.40849 0
M  V30 8038 H 754.889 3.58338 4.95382 0
M  V30 8039 H 759.063 4.50351 5.31184 0
M  V30 8040 H 756.69 5.16081 5.58179 0
M  V30 8041 N 758.265 -1.50454 0.469181 0
M  V30 8042 C 759.49 -2.0722 -0.0864892 0
M  V30 8043 C 759.915 -1.33098 -1.32916 0
M  V30 8044 O 759.273 -0.378084 -1.77314 0
M  V30 8045 C 759.321 -3.58845 -0.355384 0
M  V30 8046 O 758.425 -3.86583 -1.43622 0
M  V30 8047 H 757.766 -0.663889 0.0121414 0
M  V30 8048 H 760.296 -1.93674 0.659674 0
M  V30 8049 H 760.306 -4.03617 -0.596447 0
M  V30 8050 H 758.981 -4.12211 0.552698 0
M  V30 8051 H 757.558 -3.5365 -1.18262 0
M  V30 8052 N 759.743 -0.201713 -1.56304 0
M  V30 8053 C 760.69 0.716499 -2.19397 0
M  V30 8054 C 761.66 1.20494 -1.14326 0
M  V30 8055 O 762.845 1.26763 -1.42604 0
M  V30 8056 C 759.985 1.92762 -2.86246 0
M  V30 8057 C 759.098 1.47993 -4.0586 0
M  V30 8058 C 758.233 2.64706 -4.60547 0
M  V30 8059 C 757.272 2.16576 -5.72504 0
M  V30 8060 N 756.409 3.26491 -6.21569 0
M  V30 8061 H 761.249 0.171724 -2.97505 0
M  V30 8062 H 758.786 0.073016 -1.46919 0
M  V30 8063 H 760.744 2.6384 -3.23178 0
M  V30 8064 H 759.374 2.44559 -2.10691 0
M  V30 8065 H 758.426 0.66477 -3.74546 0
M  V30 8066 H 759.738 1.08686 -4.86815 0
M  V30 8067 H 758.892 3.43898 -4.99819 0
M  V30 8068 H 757.631 3.0729 -3.78713 0
M  V30 8069 H 756.636 1.3584 -5.32755 0
M  V30 8070 H 757.861 1.75015 -6.56161 0
M  V30 8071 H 755.807 3.68594 -5.42655 0
M  V30 8072 H 755.724 2.91374 -6.97594 0
M  V30 8073 H 756.992 4.05877 -6.65495 0
M  V30 8074 N 761.222 1.57436 0.0718424 0
M  V30 8075 C 762.633 1.75975 0.623678 0
M  V30 8076 C 762.984 0.827155 1.77912 0
M  V30 8077 O 762.109 0.0112425 2.16397 0
M  V30 8078 C 762.704 3.1911 1.13816 0
M  V30 8079 C 761.263 3.38994 1.63586 0
M  V30 8080 C 760.41 2.71684 0.555261 0
M  V30 8081 H 763.361 1.57948 -0.154328 0
M  V30 8082 H 763.382 3.23267 2.00696 0
M  V30 8083 H 762.894 3.86962 0.296998 0
M  V30 8084 H 760.995 2.76256 2.50027 0
M  V30 8085 H 761.108 4.47436 1.71283 0
M  V30 8086 H 759.472 2.34236 1.00029 0
M  V30 8087 H 760.255 3.42191 -0.275712 0
M  V30 8088 N 762.7 -0.34323 1.53817 0
M  V30 8089 C 763.947 -1.08344 1.71079 0
M  V30 8090 C 764.275 -1.88633 0.474133 0
M  V30 8091 O 763.53 -1.87984 -0.544116 0
M  V30 8092 C 763.829 -2.05195 2.92626 0
M  V30 8093 C 763.495 -1.41215 4.28216 0
M  V30 8094 C 762.157 -1.23495 4.65083 0
M  V30 8095 C 764.509 -0.951273 5.12445 0
M  V30 8096 C 761.837 -0.583065 5.83796 0
M  V30 8097 C 764.189 -0.313292 6.31824 0
M  V30 8098 C 762.853 -0.123779 6.67385 0
M  V30 8099 H 762.123 -0.396458 0.626021 0
M  V30 8100 H 764.77 -0.362689 1.88034 0
M  V30 8101 H 763.075 -2.83653 2.70275 0
M  V30 8102 H 764.772 -2.62462 3.03175 0
M  V30 8103 H 761.362 -1.56005 3.992 0
M  V30 8104 H 765.546 -1.07602 4.84495 0
M  V30 8105 H 760.802 -0.424854 6.09922 0
M  V30 8106 H 764.976 0.0519179 6.96381 0
M  V30 8107 H 762.603 0.383398 7.59233 0
M  V30 8108 N 764.178 -1.45556 -0.604258 0
M  V30 8109 C 765.111 -1.48975 -1.72863 0
M  V30 8110 C 766.089 -0.345803 -1.5888 0
M  V30 8111 O 767.273 -0.546796 -1.80395 0
M  V30 8112 C 764.4 -1.34794 -3.10722 0
M  V30 8113 C 763.446 -2.53096 -3.43285 0
M  V30 8114 S 764.279 -4.15551 -3.37754 0
M  V30 8115 C 765.435 -4.03842 -4.78187 0
M  V30 8116 H 765.668 -2.44108 -1.69701 0
M  V30 8117 H 763.201 -1.33179 -0.781194 0
M  V30 8118 H 765.159 -1.273 -3.90263 0
M  V30 8119 H 763.82 -0.411254 -3.11396 0
M  V30 8120 H 763.013 -2.39109 -4.4367 0
M  V30 8121 H 762.615 -2.57469 -2.71267 0
M  V30 8122 H 764.907 -3.69191 -5.6807 0
M  V30 8123 H 765.85 -5.0415 -4.97231 0
M  V30 8124 H 766.258 -3.35443 -4.54025 0
M  V30 8125 N 765.656 0.84705 -1.32902 0
M  V30 8126 C 766.884 1.63403 -1.26913 0
M  V30 8127 C 767.299 1.88108 0.161483 0
M  V30 8128 O 766.656 1.45546 1.10103 0
M  V30 8129 C 766.707 2.98896 -2.03331 0
M  V30 8130 O 766.428 2.75281 -3.40811 0
M  V30 8131 C 767.929 3.93335 -2.04457 0
M  V30 8132 H 765.149 0.508701 -0.437566 0
M  V30 8133 H 767.693 1.05567 -1.75145 0
M  V30 8134 H 765.848 3.53356 -1.58802 0
M  V30 8135 H 766.262 3.61504 -3.8002 0
M  V30 8136 H 767.736 4.85647 -2.62394 0
M  V30 8137 H 768.213 4.26885 -1.03274 0
M  V30 8138 H 768.819 3.44812 -2.48967 0
M  V30 8139 N 767.134 1.16236 1.06428 0
M  V30 8140 C 768.064 0.890807 2.1584 0
M  V30 8141 C 769.045 -0.162333 1.69324 0
M  V30 8142 O 770.23 -0.0147191 1.94194 0
M  V30 8143 C 767.36 0.389615 3.45108 0
M  V30 8144 C 766.314 1.38051 4.05125 0
M  V30 8145 C 765.64 0.737773 5.29586 0
M  V30 8146 C 766.94 2.74965 4.44062 0
M  V30 8147 H 768.634 1.80577 2.38814 0
M  V30 8148 H 766.18 0.869657 1.14774 0
M  V30 8149 H 768.133 0.187127 4.20984 0
M  V30 8150 H 766.857 -0.560851 3.21748 0
M  V30 8151 H 765.516 1.56952 3.31303 0
M  V30 8152 H 765.164 -0.219135 5.02522 0
M  V30 8153 H 764.864 1.39914 5.70699 0
M  V30 8154 H 766.388 0.545275 6.0816 0
M  V30 8155 H 767.802 2.59855 5.11027 0
M  V30 8156 H 766.199 3.37563 4.96156 0
M  V30 8157 H 767.269 3.30321 3.54987 0
M  V30 8158 N 768.612 -1.24939 0.960631 0
M  V30 8159 C 769.86 -1.92437 0.617441 0
M  V30 8160 C 770.181 -1.75543 -0.849101 0
M  V30 8161 O 769.451 -1.12269 -1.60538 0
M  V30 8162 H 768.031 -0.712192 0.225371 0
M  V30 8163 H 770.693 -1.5198 1.22017 0
M  V30 8164 H 769.789 -3.00247 0.851933 0
M  V30 8165 N 770.09 -0.729906 -1.39679 0
M  V30 8166 C 771.339 -0.272534 -1.9985 0
M  V30 8167 C 771.652 1.14519 -1.58571 0
M  V30 8168 O 772.858 1.70182 -2.11543 0
M  V30 8169 C 771.314 -0.436322 -3.57245 0
M  V30 8170 C 770.922 -1.86161 -4.0749 0
M  V30 8171 C 772.666 -0.0404679 -4.24481 0
M  V30 8172 C 770.573 -1.97522 -5.5744 0
M  V30 8173 H 769.503 -0.0981428 -0.747585 0
M  V30 8174 H 772.154 -0.903056 -1.59741 0
M  V30 8175 H 770.536 0.263015 -3.95126 0
M  V30 8176 H 771.71 -2.59248 -3.80955 0
M  V30 8177 H 770.025 -2.21021 -3.529 0
M  V30 8178 H 772.622 -0.104437 -5.34598 0
M  V30 8179 H 772.965 1.00357 -4.04023 0
M  V30 8180 H 773.498 -0.690774 -3.91757 0
M  V30 8181 H 770.237 -3.00096 -5.82771 0
M  V30 8182 H 769.757 -1.28864 -5.85794 0
M  V30 8183 H 771.436 -1.754 -6.22771 0
M  V30 8184 N 771.568 1.50203 -0.477153 0
M  V30 8185 C 772.793 2.07263 0.0754986 0
M  V30 8186 C 773.218 1.33801 1.32208 0
M  V30 8187 O 772.576 0.387482 1.77111 0
M  V30 8188 C 772.624 3.59028 0.336348 0
M  V30 8189 O 771.728 3.87339 1.4157 0
M  V30 8190 H 771.069 0.663815 -0.015662 0
M  V30 8191 H 773.599 1.93321 -0.669936 0
M  V30 8192 H 773.609 4.03927 0.575034 0
M  V30 8193 H 772.284 4.11912 -0.574551 0
M  V30 8194 H 770.861 3.54272 1.16385 0
M  V30 8195 N 773.046 0.209999 1.56195 0
M  V30 8196 C 774.295 -0.425106 1.97169 0
M  V30 8197 C 774.608 -1.61718 1.10031 0
M  V30 8198 O 775.814 -2.32105 1.40853 0
M  V30 8199 C 774.27 -0.80771 3.50719 0
M  V30 8200 C 773.878 0.360902 4.46544 0
M  V30 8201 C 775.622 -1.40906 4.00432 0
M  V30 8202 C 773.529 -0.0434919 5.91384 0
M  V30 8203 H 772.459 -0.162598 0.736259 0
M  V30 8204 H 775.11 0.304382 1.80958 0
M  V30 8205 H 773.492 -1.59429 3.62489 0
M  V30 8206 H 774.666 1.13846 4.46515 0
M  V30 8207 H 772.981 0.874729 4.07109 0
M  V30 8208 H 775.578 -1.72433 5.06133 0
M  V30 8209 H 775.921 -2.32081 3.45607 0
M  V30 8210 H 776.454 -0.686154 3.91838 0
M  V30 8211 H 773.193 0.834448 6.50167 0
M  V30 8212 H 772.713 -0.785598 5.94633 0
M  V30 8213 H 774.392 -0.474176 6.4526 0
M  V30 8214 N 774.524 -1.57472 -0.0634922 0
M  V30 8215 C 775.454 -2.07297 -1.07473 0
M  V30 8216 C 776.435 -0.968162 -1.39859 0
M  V30 8217 O 777.62 -1.24139 -1.49343 0
M  V30 8218 C 774.75 -2.52381 -2.38581 0
M  V30 8219 C 773.704 -3.66813 -2.20526 0
M  V30 8220 C 773.03 -3.97982 -3.57092 0
M  V30 8221 C 774.33 -4.96553 -1.61965 0
M  V30 8222 H 776.024 -2.92033 -0.660092 0
M  V30 8223 H 773.57 -1.40488 -0.316074 0
M  V30 8224 H 775.523 -2.85852 -3.09624 0
M  V30 8225 H 774.247 -1.64684 -2.8204 0
M  V30 8226 H 772.906 -3.33639 -1.51924 0
M  V30 8227 H 772.554 -3.07403 -3.98136 0
M  V30 8228 H 772.254 -4.7504 -3.45848 0
M  V30 8229 H 773.778 -4.33956 -4.29552 0
M  V30 8230 H 775.192 -5.28201 -2.22883 0
M  V30 8231 H 773.589 -5.7799 -1.61394 0
M  V30 8232 H 774.659 -4.81396 -0.581918 0
M  V30 8233 N 776.003 0.335068 -1.53997 0
M  V30 8234 C 777.233 1.0926 -1.75345 0
M  V30 8235 C 777.641 1.82568 -0.496545 0
M  V30 8236 O 776.984 1.75525 0.541897 0
M  V30 8237 C 777.046 2.14473 -2.88516 0
M  V30 8238 C 776.71 1.60665 -4.27827 0
M  V30 8239 C 777.707 1.05448 -5.09094 0
M  V30 8240 C 775.392 1.65255 -4.74337 0
M  V30 8241 C 777.386 0.555372 -6.34976 0
M  V30 8242 C 775.073 1.14956 -6.0019 0
M  V30 8243 C 776.071 0.601907 -6.80343 0
M  V30 8244 O 775.759 0.106445 -8.0383 0
M  V30 8245 H 775.491 0.331329 -0.589234 0
M  V30 8246 H 778.045 0.39042 -2.01655 0
M  V30 8247 H 776.275 2.88274 -2.5775 0
M  V30 8248 H 777.964 2.75857 -2.97755 0
M  V30 8249 H 778.73 1.01218 -4.74321 0
M  V30 8250 H 774.609 2.06822 -4.12002 0
M  V30 8251 H 778.153 0.127245 -6.97484 0
M  V30 8252 H 774.05 1.18891 -6.34457 0
M  V30 8253 H 774.818 0.222944 -8.18196 0
M  V30 8254 N 777.481 1.45874 0.596531 0
M  V30 8255 C 778.897 1.30524 0.918459 0
M  V30 8256 C 779.097 0.266429 1.99731 0
M  V30 8257 O 778.153 -0.335809 2.50257 0
M  V30 8258 C 779.466 2.68747 1.3489 0
M  V30 8259 C 781.014 2.7673 1.46251 0
M  V30 8260 C 781.489 4.15504 1.92667 0
M  V30 8261 N 782.98 4.17853 1.99883 0
M  V30 8262 C 783.715 5.22109 2.37044 0
M  V30 8263 N 783.211 6.36704 2.73094 0
M  V30 8264 N 785.004 5.09471 2.37479 0
M  V30 8265 H 777.155 2.12081 -0.116368 0
M  V30 8266 H 779.418 0.947941 0.0106033 0
M  V30 8267 H 779.124 3.46006 0.630288 0
M  V30 8268 H 778.998 2.97942 2.31323 0
M  V30 8269 H 781.385 1.99768 2.17202 0
M  V30 8270 H 781.466 2.51236 0.481054 0
M  V30 8271 H 781.11 4.92956 1.223 0
M  V30 8272 H 781.04 4.38396 2.91747 0
M  V30 8273 H 783.531 3.35163 1.74568 0
M  V30 8274 H 783.844 7.12041 3.00362 0
M  V30 8275 H 782.189 6.40087 2.70764 0
M  V30 8276 H 785.38 4.18987 2.08728 0
M  V30 8277 H 785.553 5.90837 2.66112 0
M  V30 8278 N 778.959 -0.83999 1.33349 0
M  V30 8279 C 780.205 -1.59753 1.24927 0
M  V30 8280 C 780.538 -1.93318 -0.184855 0
M  V30 8281 O 779.813 -1.586 -1.12589 0
M  V30 8282 C 780.096 -2.90829 2.12345 0
M  V30 8283 C 779.949 -2.63953 3.6421 0
M  V30 8284 C 781.268 -3.92246 1.99577 0
M  V30 8285 H 778.387 -0.579654 0.45516 0
M  V30 8286 H 781.029 -0.968909 1.63439 0
M  V30 8287 H 779.179 -3.44478 1.79631 0
M  V30 8288 H 780.851 -2.16745 4.07209 0
M  V30 8289 H 779.094 -1.97671 3.86146 0
M  V30 8290 H 779.765 -3.57348 4.20721 0
M  V30 8291 H 782.241 -3.479 2.28265 0
M  V30 8292 H 781.117 -4.81793 2.62996 0
M  V30 8293 H 781.378 -4.3138 0.967673 0
M  V30 8294 N 780.437 -1.16799 -1.0581 0
M  V30 8295 C 781.387 -0.847231 -2.11674 0
M  V30 8296 C 782.371 0.175476 -1.5994 0
M  V30 8297 O 783.563 -0.0260602 -1.76981 0
M  V30 8298 C 780.692 -0.355446 -3.41455 0
M  V30 8299 C 779.778 -1.40922 -4.00002 0
M  V30 8300 N 780.169 -2.62096 -4.32596 0
M  V30 8301 C 778.467 -1.26562 -4.27666 0
M  V30 8302 C 779.168 -3.29759 -4.79201 0
M  V30 8303 N 778.144 -2.57138 -4.78938 0
M  V30 8304 H 781.946 -1.76862 -2.34727 0
M  V30 8305 H 779.46 -1.05577 -1.23399 0
M  V30 8306 H 781.457 -0.107231 -4.16762 0
M  V30 8307 H 780.117 0.559817 -3.19838 0
M  V30 8308 H 781.128 -2.99113 -4.22791 0
M  V30 8309 H 777.805 -0.411503 -4.15467 0
M  V30 8310 H 779.195 -4.33222 -5.13584 0
M  V30 8311 N 781.915 1.24427 -0.967243 0
M  V30 8312 C 782.848 2.23885 -0.441683 0
M  V30 8313 C 783.826 1.55231 0.483963 0
M  V30 8314 O 785.01 1.83865 0.415445 0
M  V30 8315 C 782.137 3.36755 0.362458 0
M  V30 8316 C 781.183 4.23495 -0.505407 0
M  V30 8317 S 782.016 4.98916 -1.94534 0
M  V30 8318 C 783.172 6.15245 -1.14997 0
M  V30 8319 H 783.405 2.68118 -1.28453 0
M  V30 8320 H 780.938 1.337 -0.772243 0
M  V30 8321 H 782.896 4.02218 0.820445 0
M  V30 8322 H 781.557 2.91081 1.18027 0
M  V30 8323 H 780.75 5.03876 0.111979 0
M  V30 8324 H 780.352 3.63032 -0.899104 0
M  V30 8325 H 782.644 6.7629 -0.404769 0
M  V30 8326 H 783.587 6.81343 -1.92814 0
M  V30 8327 H 783.995 5.60455 -0.674543 0
M  V30 8328 N 783.393 0.737304 1.3929 0
M  V30 8329 C 784.641 0.285691 2.00071 0
M  V30 8330 C 784.962 -1.13169 1.58801 0
M  V30 8331 O 784.232 -1.77104 0.837308 0
M  V30 8332 H 782.812 0.102638 0.739915 0
M  V30 8333 H 785.474 0.947775 1.70303 0
M  V30 8334 H 784.57 0.335906 3.10287 0
M  V30 8335 N 784.871 -1.49948 0.485112 0
M  V30 8336 C 786.287 -1.58984 0.140096 0
M  V30 8337 C 786.487 -1.49194 -1.35438 0
M  V30 8338 O 785.543 -1.35765 -2.12894 0
M  V30 8339 C 786.856 -2.92372 0.702769 0
M  V30 8340 C 788.404 -3.05801 0.66745 0
M  V30 8341 C 788.879 -4.41785 1.20791 0
M  V30 8342 N 790.37 -4.48234 1.16792 0
M  V30 8343 C 791.105 -5.51871 1.55646 0
M  V30 8344 N 790.601 -6.62692 2.02016 0
M  V30 8345 N 792.394 -5.42494 1.47161 0
M  V30 8346 H 784.545 -1.54555 1.45693 0
M  V30 8347 H 786.808 -0.731206 0.603359 0
M  V30 8348 H 786.514 -3.05056 1.75025 0
M  V30 8349 H 786.388 -3.76885 0.154205 0
M  V30 8350 H 788.775 -2.92757 -0.371157 0
M  V30 8351 H 788.856 -2.23011 1.25298 0
M  V30 8352 H 788.5 -4.55579 2.24522 0
M  V30 8353 H 788.43 -5.23188 0.598464 0
M  V30 8354 H 790.921 -3.68718 0.827982 0
M  V30 8355 H 791.234 -7.3785 2.29775 0
M  V30 8356 H 789.579 -6.63775 2.05979 0
M  V30 8357 H 792.77 -4.54806 1.10765 0
M  V30 8358 H 792.943 -6.2314 1.77766 0
M  V30 8359 N 786.349 -0.21828 -1.56081 0
M  V30 8360 C 787.296 0.693189 -2.20144 0
M  V30 8361 C 788.266 1.19274 -1.15598 0
M  V30 8362 O 789.451 1.25243 -1.4394 0
M  V30 8363 C 786.591 1.89715 -2.88275 0
M  V30 8364 C 785.704 1.4368 -4.07407 0
M  V30 8365 C 784.839 2.59807 -4.63329 0
M  V30 8366 C 783.878 2.10492 -5.74769 0
M  V30 8367 N 783.015 3.1988 -6.24997 0
M  V30 8368 H 787.855 0.14016 -2.9767 0
M  V30 8369 H 785.392 0.0574292 -1.46988 0
M  V30 8370 H 787.35 2.60398 -3.25958 0
M  V30 8371 H 785.98 2.42311 -2.13273 0
M  V30 8372 H 785.032 0.625007 -3.7523 0
M  V30 8373 H 786.344 1.03517 -4.8794 0
M  V30 8374 H 785.498 3.38577 -5.03438 0
M  V30 8375 H 784.237 3.03256 -3.81951 0
M  V30 8376 H 783.242 1.30182 -5.34165 0
M  V30 8377 H 784.467 1.68045 -6.5798 0
M  V30 8378 H 782.413 3.62817 -5.46534 0
M  V30 8379 H 782.33 2.83958 -7.00645 0
M  V30 8380 H 783.598 3.98796 -6.69763 0
M  V30 8381 N 787.827 1.57504 0.0551401 0
M  V30 8382 C 789.238 1.76626 0.604979 0
M  V30 8383 C 789.589 0.845978 1.77024 0
M  V30 8384 O 788.714 0.0341936 2.16373 0
M  V30 8385 C 789.309 3.203 1.10425 0
M  V30 8386 C 787.868 3.4071 1.59981 0
M  V30 8387 C 787.015 2.72258 0.526414 0
M  V30 8388 H 789.966 1.57775 -0.171072 0
M  V30 8389 H 789.987 3.25377 1.97256 0
M  V30 8390 H 789.499 3.87255 0.255939 0
M  V30 8391 H 787.6 2.78892 2.47083 0
M  V30 8392 H 787.713 4.49227 1.66528 0
M  V30 8393 H 786.077 2.35283 0.97539 0
M  V30 8394 H 786.86 3.41879 -0.311991 0
M  V30 8395 N 789.305 -0.326896 1.54172 0
M  V30 8396 C 790.553 -1.06313 1.71878 0
M  V30 8397 C 790.874 -1.88652 0.493498 0
M  V30 8398 O 790.144 -1.89608 -0.492522 0
M  V30 8399 H 788.724 -0.39549 0.633716 0
M  V30 8400 H 791.386 -0.364139 1.91468 0
M  V30 8401 H 790.482 -1.73105 2.59694 0
M  V30 8402 N 790.784 -1.46188 -0.588786 0
M  V30 8403 C 792.014 -1.54519 -1.3714 0
M  V30 8404 C 792.422 -0.183075 -1.88312 0
M  V30 8405 O 791.765 0.828815 -1.6394 0
M  V30 8406 C 791.827 -2.48426 -2.59856 0
M  V30 8407 C 791.491 -3.94791 -2.30193 0
M  V30 8408 C 792.488 -4.84173 -1.894 0
M  V30 8409 C 790.173 -4.39872 -2.42525 0
M  V30 8410 C 792.167 -6.16647 -1.61325 0
M  V30 8411 C 789.854 -5.72381 -2.14063 0
M  V30 8412 C 790.852 -6.60589 -1.73527 0
M  V30 8413 O 790.54 -7.9064 -1.4541 0
M  V30 8414 H 790.272 -0.525264 -0.425527 0
M  V30 8415 H 792.826 -1.92242 -0.723344 0
M  V30 8416 H 791.056 -2.05709 -3.27446 0
M  V30 8417 H 792.745 -2.4723 -3.21919 0
M  V30 8418 H 793.511 -4.50603 -1.79393 0
M  V30 8419 H 789.39 -3.71444 -2.7304 0
M  V30 8420 H 792.934 -6.85454 -1.29611 0
M  V30 8421 H 788.831 -6.05501 -2.23693 0
M  V30 8422 H 789.599 -8.02847 -1.59306 0
M  V30 8423 N 792.262 0.832906 -1.33792 0
M  V30 8424 C 793.509 1.58853 -1.25586 0
M  V30 8425 C 793.837 1.93695 0.176807 0
M  V30 8426 O 793.092 1.59386 1.13554 0
M  V30 8427 C 793.391 2.9047 -2.08235 0
M  V30 8428 C 793.057 2.74965 -3.57358 0
M  V30 8429 C 791.719 2.70444 -3.98012 0
M  V30 8430 C 794.071 2.59347 -4.52093 0
M  V30 8431 C 791.399 2.48212 -5.31608 0
M  V30 8432 C 793.751 2.38649 -5.85858 0
M  V30 8433 C 792.415 2.32533 -6.25687 0
M  V30 8434 H 791.685 0.581285 -0.459553 0
M  V30 8435 H 794.332 0.964501 -1.65438 0
M  V30 8436 H 792.637 3.57111 -1.6118 0
M  V30 8437 H 794.334 3.48001 -1.99239 0
M  V30 8438 H 790.924 2.79319 -3.25083 0
M  V30 8439 H 795.108 2.6187 -4.2159 0
M  V30 8440 H 790.364 2.41929 -5.61498 0
M  V30 8441 H 794.538 2.25549 -6.58863 0
M  V30 8442 H 792.165 2.15067 -7.29143 0
M  V30 8443 N 793.74 1.17359 1.05189 0
M  V30 8444 C 794.965 0.98709 1.82404 0
M  V30 8445 C 795.39 -0.459848 1.82392 0
M  V30 8446 O 794.748 -1.32924 1.23292 0
M  V30 8447 C 794.796 1.53276 3.26403 0
M  V30 8448 O 793.9 0.746541 4.05587 0
M  V30 8449 H 793.241 0.35047 0.563974 0
M  V30 8450 H 795.771 1.55856 1.32552 0
M  V30 8451 H 795.781 1.55504 3.77203 0
M  V30 8452 H 794.456 2.58603 3.25726 0
M  V30 8453 H 793.033 0.795671 3.64312 0
M  V30 8454 N 795.218 -1.23913 0.973828 0
M  V30 8455 C 796.465 -1.92151 0.639079 0
M  V30 8456 C 796.793 -1.76064 -0.826545 0
M  V30 8457 O 796.048 -1.11126 -1.61088 0
M  V30 8458 C 796.347 -3.4406 0.967356 0
M  V30 8459 C 796.013 -3.80321 2.42212 0
M  V30 8460 C 794.675 -3.8993 2.81971 0
M  V30 8461 C 797.027 -3.97935 3.36596 0
M  V30 8462 C 794.355 -4.14575 4.15144 0
M  V30 8463 C 796.707 -4.24079 4.69404 0
M  V30 8464 C 795.371 -4.31908 5.08932 0
M  V30 8465 H 794.641 -0.70313 0.233856 0
M  V30 8466 H 797.288 -1.47072 1.22646 0
M  V30 8467 H 795.593 -3.90667 0.297807 0
M  V30 8468 H 797.29 -3.95077 0.686654 0
M  V30 8469 H 793.88 -3.73411 2.10385 0
M  V30 8470 H 798.064 -3.89908 3.07059 0
M  V30 8471 H 793.32 -4.18858 4.45385 0
M  V30 8472 H 797.494 -4.36652 5.42502 0
M  V30 8473 H 795.121 -4.50758 6.12145 0
M  V30 8474 N 796.696 -0.74468 -1.38897 0
M  V30 8475 C 797.626 -0.126355 -2.33158 0
M  V30 8476 C 798.607 0.713517 -1.54412 0
M  V30 8477 O 799.792 0.656523 -1.82766 0
M  V30 8478 C 796.922 0.774375 -3.38557 0
M  V30 8479 C 795.876 0.0379214 -4.27983 0
M  V30 8480 C 795.202 1.05631 -5.24162 0
M  V30 8481 C 796.502 -1.12523 -5.10035 0
M  V30 8482 H 798.196 -0.913744 -2.85116 0
M  V30 8483 H 795.742 -0.440847 -1.37086 0
M  V30 8484 H 797.695 1.21655 -4.03458 0
M  V30 8485 H 796.419 1.59399 -2.85061 0
M  V30 8486 H 795.078 -0.384733 -3.64576 0
M  V30 8487 H 794.726 1.86975 -4.66958 0
M  V30 8488 H 794.426 0.568261 -5.84846 0
M  V30 8489 H 795.95 1.49799 -5.9194 0
M  V30 8490 H 797.364 -0.761037 -5.68226 0
M  V30 8491 H 795.761 -1.54355 -5.79909 0
M  V30 8492 H 796.831 -1.94237 -4.44297 0
M  V30 8493 N 798.174 1.49689 -0.493057 0
M  V30 8494 C 799.451 1.9525 0.116907 0
M  V30 8495 C 799.831 1.43429 1.54892 0
M  V30 8496 O 799.179 0.644621 2.19219 0
M  V30 8497 C 799.389 3.4898 0.037705 0
M  V30 8498 C 800.737 4.24052 0.215621 0
M  V30 8499 O 801.761 3.5602 0.113266 0
M  V30 8500 O 800.62 5.44847 0.42477 0
M  V30 8501 H 797.714 0.820973 0.099662 0
M  V30 8502 H 800.26 1.60367 -0.555029 0
M  V30 8503 H 799.032 3.79309 -0.961251 0
M  V30 8504 H 798.655 3.9046 0.750137 0
M  V30 8505 N 799.652 0.226554 1.55963 0
M  V30 8506 C 801.063 -0.280381 1.84583 0
M  V30 8507 C 801.414 -1.59105 1.14804 0
M  V30 8508 O 800.539 -2.12297 0.419414 0
M  V30 8509 C 801.134 -0.515499 3.34855 0
M  V30 8510 C 799.693 -0.966733 3.63774 0
M  V30 8511 C 798.84 -0.0325753 2.77281 0
M  V30 8512 H 801.791 0.449626 1.52197 0
M  V30 8513 H 801.812 -1.36085 3.55332 0
M  V30 8514 H 801.324 0.438594 3.85614 0
M  V30 8515 H 799.425 -1.93401 3.18476 0
M  V30 8516 H 799.538 -0.837679 4.7172 0
M  V30 8517 H 797.902 -0.540279 2.48904 0
M  V30 8518 H 798.685 0.916524 3.30839 0
M  V30 8519 N 801.13 -1.57531 -0.0467866 0
M  V30 8520 C 802.377 -1.88451 -0.74112 0
M  V30 8521 C 802.705 -0.821592 -1.76296 0
M  V30 8522 O 801.96 0.179585 -1.94874 0
M  V30 8523 C 802.259 -3.26091 -1.46285 0
M  V30 8524 C 801.925 -4.47171 -0.578669 0
M  V30 8525 C 800.587 -4.80032 -0.335083 0
M  V30 8526 C 802.939 -5.2119 0.0328809 0
M  V30 8527 C 800.267 -5.84309 0.529121 0
M  V30 8528 C 802.619 -6.26383 0.884684 0
M  V30 8529 C 801.283 -6.57729 1.1379 0
M  V30 8530 H 800.553 -0.68959 -0.271195 0
M  V30 8531 H 803.2 -1.915 -0.00132378 0
M  V30 8532 H 801.505 -3.18948 -2.27551 0
M  V30 8533 H 803.202 -3.47258 -2.00532 0
M  V30 8534 H 799.792 -4.21467 -0.778666 0
M  V30 8535 H 803.976 -4.96096 -0.142375 0
M  V30 8536 H 799.232 -6.06981 0.733794 0
M  V30 8537 H 803.406 -6.82888 1.36516 0
M  V30 8538 H 801.033 -7.38355 1.80929 0
M  V30 8539 N 802.608 0.318715 -1.54344 0
M  V30 8540 C 803.833 1.07987 -1.77069 0
M  V30 8541 C 804.258 1.80766 -0.520117 0
M  V30 8542 O 803.616 1.73424 0.528566 0
M  V30 8543 C 803.664 2.04987 -2.96669 0
M  V30 8544 O 802.768 3.12974 -2.68554 0
M  V30 8545 H 802.109 0.311109 -0.586606 0
M  V30 8546 H 804.639 0.361533 -2.0138 0
M  V30 8547 H 804.649 2.47771 -3.2415 0
M  V30 8548 H 803.324 1.51417 -3.87357 0
M  V30 8549 H 801.901 2.74831 -2.52037 0
M  V30 8550 N 804.086 1.46499 0.581025 0
M  V30 8551 C 805.497 1.4604 1.16315 0
M  V30 8552 C 805.848 0.202154 1.95156 0
M  V30 8553 O 804.973 -0.694638 2.04948 0
M  V30 8554 C 805.568 2.64593 2.11604 0
M  V30 8555 C 804.127 2.6717 2.65136 0
M  V30 8556 C 803.274 2.38753 1.4104 0
M  V30 8557 H 806.225 1.54354 0.368871 0
M  V30 8558 H 806.246 2.40207 2.95095 0
M  V30 8559 H 805.758 3.56154 1.54194 0
M  V30 8560 H 803.859 1.79685 3.26411 0
M  V30 8561 H 803.972 3.67182 3.07757 0
M  V30 8562 H 802.336 1.88845 1.70908 0
M  V30 8563 H 803.119 3.32493 0.854588 0
M  V30 8564 N 805.565 -0.825799 1.34232 0
M  V30 8565 C 806.813 -1.57873 1.26177 0
M  V30 8566 C 807.134 -1.94267 -0.168904 0
M  V30 8567 O 806.404 -1.62045 -1.10084 0
M  V30 8568 H 804.984 -0.585388 0.464037 0
M  V30 8569 H 807.646 -0.986163 1.6811 0
M  V30 8570 H 806.742 -2.50283 1.86453 0
M  V30 8571 N 807.043 -1.17915 -1.04565 0
M  V30 8572 C 808.289 -0.972863 -1.77942 0
M  V30 8573 C 808.622 0.496753 -1.87739 0
M  V30 8574 O 807.897 1.3688 -1.38181 0
M  V30 8575 C 808.18 -1.62227 -3.21488 0
M  V30 8576 C 808.033 -3.16441 -3.19664 0
M  V30 8577 C 809.352 -1.33137 -4.19479 0
M  V30 8578 H 806.471 -0.354843 -0.645953 0
M  V30 8579 H 809.113 -1.45508 -1.22178 0
M  V30 8580 H 807.263 -1.21224 -3.69103 0
M  V30 8581 H 808.935 -3.66544 -2.80077 0
M  V30 8582 H 807.178 -3.48863 -2.57832 0
M  V30 8583 H 807.849 -3.57012 -4.21006 0
M  V30 8584 H 810.325 -1.68654 -3.80388 0
M  V30 8585 H 809.201 -1.81151 -5.18146 0
M  V30 8586 H 809.462 -0.253319 -4.41374 0
M  V30 8587 N 808.521 1.23394 -0.980386 0
M  V30 8588 C 809.767 1.924 -0.659848 0
M  V30 8589 C 810.122 1.75076 0.797883 0
M  V30 8590 O 809.415 1.10104 1.56805 0
M  V30 8591 C 809.609 3.43542 -0.985588 0
M  V30 8592 C 809.438 3.75568 -2.47343 0
M  V30 8593 C 808.208 3.96257 -3.13541 0
M  V30 8594 C 810.406 3.81045 -3.45412 0
M  V30 8595 N 808.388 4.15489 -4.51932 0
M  V30 8596 C 809.759 4.05269 -4.69209 0
M  V30 8597 C 811.814 3.63837 -3.39893 0
M  V30 8598 C 810.517 4.14071 -5.88164 0
M  V30 8599 C 812.543 3.73892 -4.58212 0
M  V30 8600 C 811.905 3.98553 -5.80805 0
M  V30 8601 H 808.004 0.725229 -0.292518 0
M  V30 8602 H 810.588 1.48615 -1.25784 0
M  V30 8603 H 808.759 3.86163 -0.416289 0
M  V30 8604 H 810.491 3.99887 -0.622324 0
M  V30 8605 H 807.246 3.93168 -2.64038 0
M  V30 8606 H 807.67 4.29058 -5.23677 0
M  V30 8607 H 812.312 3.43767 -2.46139 0
M  V30 8608 H 810.03 4.32949 -6.82335 0
M  V30 8609 H 813.616 3.61932 -4.55518 0
M  V30 8610 H 812.496 4.06148 -6.70831 0
M  V30 8611 N 809.999 0.752036 1.385 0
M  V30 8612 C 810.929 0.138718 2.33088 0
M  V30 8613 C 811.91 -0.705318 1.54788 0
M  V30 8614 O 813.095 -0.646821 1.83112 0
M  V30 8615 C 810.225 -0.75641 3.38963 0
M  V30 8616 C 809.179 -0.0152239 4.27997 0
M  V30 8617 C 808.505 -1.0285 5.24715 0
M  V30 8618 C 809.805 1.15226 5.09431 0
M  V30 8619 H 811.499 0.928852 2.84627 0
M  V30 8620 H 809.045 0.448111 1.3685 0
M  V30 8621 H 810.998 -1.19513 4.04097 0
M  V30 8622 H 809.722 -1.57885 2.85902 0
M  V30 8623 H 808.381 0.404061 3.64366 0
M  V30 8624 H 808.029 -1.84496 4.67943 0
M  V30 8625 H 807.729 -0.537238 5.85139 0
M  V30 8626 H 809.253 -1.46657 5.92726 0
M  V30 8627 H 810.667 0.791161 5.67815 0
M  V30 8628 H 809.064 1.57428 5.79082 0
M  V30 8629 H 810.134 1.9659 4.43261 0
M  V30 8630 N 811.477 -1.49425 0.500989 0
M  V30 8631 C 812.724 -2.02453 -0.0435355 0
M  V30 8632 C 813.052 -1.38067 -1.36995 0
M  V30 8633 O 812.307 -0.505557 -1.89057 0
M  V30 8634 C 812.606 -3.56562 -0.24463 0
M  V30 8635 C 812.272 -4.39585 1.00379 0
M  V30 8636 C 810.934 -4.61992 1.346 0
M  V30 8637 C 813.286 -4.87881 1.83361 0
M  V30 8638 C 810.614 -5.2994 2.51755 0
M  V30 8639 C 812.966 -5.57119 2.99669 0
M  V30 8640 C 811.63 -5.77771 3.3427 0
M  V30 8641 H 810.9 -0.740829 -0.0159308 0
M  V30 8642 H 813.547 -1.79725 0.661143 0
M  V30 8643 H 811.852 -3.77969 -1.03183 0
M  V30 8644 H 813.549 -3.95185 -0.6804 0
M  V30 8645 H 810.139 -4.22385 0.727225 0
M  V30 8646 H 814.323 -4.70398 1.58237 0
M  V30 8647 H 809.579 -5.44133 2.788 0
M  V30 8648 H 813.753 -5.93516 3.64296 0
M  V30 8649 H 811.38 -6.30197 4.25154 0
M  V30 8650 N 812.955 -0.234822 -1.55841 0
M  V30 8651 C 813.888 0.710134 -2.16869 0
M  V30 8652 C 814.866 1.18155 -1.11706 0
M  V30 8653 O 816.05 1.26188 -1.40032 0
M  V30 8654 C 813.177 1.96368 -2.75966 0
M  V30 8655 C 812.223 1.63114 -3.94076 0
M  V30 8656 S 813.056 0.744307 -5.30302 0
M  V30 8657 C 814.212 2.00712 -5.92845 0
M  V30 8658 H 814.445 0.19146 -2.96683 0
M  V30 8659 H 811.978 -0.0193854 -1.54388 0
M  V30 8660 H 813.936 2.68338 -3.10653 0
M  V30 8661 H 812.597 2.45347 -1.96121 0
M  V30 8662 H 811.79 2.56285 -4.33975 0
M  V30 8663 H 811.392 0.991967 -3.60605 0
M  V30 8664 H 813.684 2.9557 -6.09627 0
M  V30 8665 H 814.627 1.65182 -6.88564 0
M  V30 8666 H 815.035 2.1537 -5.21801 0
M  V30 8667 N 814.433 1.57553 0.0384317 0
M  V30 8668 C 815.363 2.0898 1.04161 0
M  V30 8669 C 816.344 0.99029 1.38301 0
M  V30 8670 O 817.529 1.26499 1.47349 0
M  V30 8671 C 814.659 2.56145 2.34536 0
M  V30 8672 C 813.613 3.70275 2.14663 0
M  V30 8673 C 812.939 4.03612 3.50715 0
M  V30 8674 C 814.239 4.99067 1.54045 0
M  V30 8675 H 815.933 2.93046 0.613548 0
M  V30 8676 H 813.479 1.40973 0.293684 0
M  V30 8677 H 815.432 2.90741 3.05037 0
M  V30 8678 H 814.156 1.6915 2.79385 0
M  V30 8679 H 812.815 3.36013 1.46597 0
M  V30 8680 H 812.463 3.13698 3.93195 0
M  V30 8681 H 812.163 4.80482 3.38247 0
M  V30 8682 H 813.687 4.40735 4.22593 0
M  V30 8683 H 815.101 5.3168 2.14451 0
M  V30 8684 H 813.498 5.80484 1.52178 0
M  V30 8685 H 814.568 4.8226 0.505259 0
M  V30 8686 N 815.911 -0.310526 1.54511 0
M  V30 8687 C 816.841 -1.38757 1.878 0
M  V30 8688 C 817.822 -1.53353 0.735991 0
M  V30 8689 O 819.007 -1.67018 0.990887 0
M  V30 8690 C 816.137 -2.75327 2.11689 0
M  V30 8691 C 815.091 -2.75506 3.27537 0
M  V30 8692 C 814.417 -4.15275 3.36824 0
M  V30 8693 C 815.717 -2.38093 4.64875 0
M  V30 8694 H 817.411 -1.11146 2.78005 0
M  V30 8695 H 814.957 -0.533232 1.33763 0
M  V30 8696 H 816.91 -3.50752 2.33562 0
M  V30 8697 H 815.634 -3.04443 1.18245 0
M  V30 8698 H 814.293 -2.02538 3.05572 0
M  V30 8699 H 813.941 -4.41553 2.40915 0
M  V30 8700 H 813.641 -4.16299 4.14692 0
M  V30 8701 H 815.165 -4.92493 3.60947 0
M  V30 8702 H 816.579 -3.03232 4.86542 0
M  V30 8703 H 814.976 -2.50345 5.45387 0
M  V30 8704 H 816.046 -1.33227 4.66239 0
M  V30 8705 N 817.389 -1.46805 -0.573248 0
M  V30 8706 C 818.352 -1.57655 -1.66366 0
M  V30 8707 C 819.352 -0.452905 -1.5429 0
M  V30 8708 O 820.542 -0.717502 -1.58737 0
M  V30 8709 C 817.674 -1.50584 -3.05839 0
M  V30 8710 H 818.867 -2.54842 -1.581 0
M  V30 8711 H 816.42 -1.34756 -0.791868 0
M  V30 8712 H 817.155 -0.547127 -3.19651 0
M  V30 8713 H 816.94 -2.32118 -3.16012 0
M  V30 8714 H 818.43 -1.61282 -3.85199 0
M  V30 8715 N 818.867 0.818669 -1.34668 0
M  V30 8716 C 820.097 1.60441 -1.30162 0
M  V30 8717 C 820.505 1.88783 0.125579 0
M  V30 8718 O 819.848 1.48281 1.08437 0
M  V30 8719 C 819.91 2.96794 -2.02864 0
M  V30 8720 C 819.574 2.91327 -3.52105 0
M  V30 8721 C 820.571 2.65611 -4.4693 0
M  V30 8722 C 818.256 3.10825 -3.9458 0
M  V30 8723 C 820.25 2.59452 -5.82206 0
M  V30 8724 C 817.937 3.0429 -5.29954 0
M  V30 8725 C 818.935 2.78637 -6.23579 0
M  V30 8726 O 818.623 2.72042 -7.56471 0
M  V30 8727 H 818.355 0.505278 -0.449077 0
M  V30 8728 H 820.909 1.02632 -1.77921 0
M  V30 8729 H 819.139 3.56538 -1.49725 0
M  V30 8730 H 820.828 3.57837 -1.91592 0
M  V30 8731 H 821.594 2.50278 -4.15434 0
M  V30 8732 H 817.473 3.29807 -3.221 0
M  V30 8733 H 821.017 2.39349 -6.55254 0
M  V30 8734 H 816.914 3.19177 -5.61067 0
M  V30 8735 H 817.682 2.87738 -7.66257 0
M  V30 8736 N 820.346 1.18468 1.03938 0
M  V30 8737 C 821.276 0.936389 2.13902 0
M  V30 8738 C 822.257 -0.126381 1.6963 0
M  V30 8739 O 823.442 0.0264757 1.94182 0
M  V30 8740 C 820.572 0.462729 3.44204 0
M  V30 8741 C 819.526 1.46613 4.02105 0
M  V30 8742 C 818.852 0.84994 5.27902 0
M  V30 8743 C 820.152 2.84323 4.3813 0
M  V30 8744 H 821.846 1.85602 2.3493 0
M  V30 8745 H 819.392 0.893806 1.12903 0
M  V30 8746 H 821.345 0.276382 4.20493 0
M  V30 8747 H 820.069 -0.492477 3.22866 0
M  V30 8748 H 818.728 1.63944 3.27899 0
M  V30 8749 H 818.376 -0.112493 5.02874 0
M  V30 8750 H 818.076 1.51988 5.67603 0
M  V30 8751 H 819.6 0.674152 6.06867 0
M  V30 8752 H 821.014 2.70636 5.054 0
M  V30 8753 H 819.411 3.48012 4.88884 0
M  V30 8754 H 820.481 3.37776 3.47901 0
M  V30 8755 N 821.824 -1.22873 0.986916 0
M  V30 8756 C 822.787 -2.2281 0.537442 0
M  V30 8757 C 823.787 -1.56331 -0.37646 0
M  V30 8758 O 824.977 -1.73376 -0.169247 0
M  V30 8759 C 822.109 -3.40195 -0.219082 0
M  V30 8760 H 823.302 -2.64089 1.42116 0
M  V30 8761 H 820.855 -1.35819 0.773488 0
M  V30 8762 H 821.59 -3.04381 -1.11905 0
M  V30 8763 H 821.375 -3.89657 0.437026 0
M  V30 8764 H 822.865 -4.14326 -0.521926 0
M  V30 8765 N 823.302 -0.75937 -1.38099 0
M  V30 8766 C 824.548 -0.318584 -2.00282 0
M  V30 8767 C 824.881 1.09854 -1.60143 0
M  V30 8768 O 824.156 1.75344 -0.841702 0
M  V30 8769 C 824.439 -0.448047 -3.57302 0
M  V30 8770 C 824.292 -1.9067 -4.07388 0
M  V30 8771 C 825.611 0.155119 -4.39827 0
M  V30 8772 H 822.73 -0.117233 -0.727616 0
M  V30 8773 H 825.372 -0.960097 -1.63958 0
M  V30 8774 H 823.522 0.0981003 -3.88376 0
M  V30 8775 H 825.194 -2.5116 -3.86932 0
M  V30 8776 H 823.437 -2.41979 -3.6004 0
M  V30 8777 H 824.108 -1.94841 -5.1647 0
M  V30 8778 H 826.584 -0.31073 -4.14938 0
M  V30 8779 H 825.46 0.0343264 -5.48889 0
M  V30 8780 H 825.721 1.24407 -4.24235 0
M  V30 8781 N 824.78 1.49157 -0.508906 0
M  V30 8782 C 826.005 2.07376 0.0315182 0
M  V30 8783 C 826.43 1.36575 1.2934 0
M  V30 8784 O 825.788 0.424963 1.76249 0
M  V30 8785 C 825.836 3.59661 0.260118 0
M  V30 8786 O 824.94 3.90255 1.33322 0
M  V30 8787 H 824.281 0.663334 -0.029739 0
M  V30 8788 H 826.811 1.91857 -0.710791 0
M  V30 8789 H 826.821 4.05056 0.489225 0
M  V30 8790 H 825.496 4.10601 -0.661794 0
M  V30 8791 H 824.073 3.56661 1.08844 0
M  V30 8792 N 826.258 0.243083 1.55714 0
M  V30 8793 C 827.498 -0.384303 2.00755 0
M  V30 8794 C 827.862 -1.55406 1.12752 0
M  V30 8795 O 829.063 -2.24892 1.47231 0
M  V30 8796 C 827.334 -0.787419 3.48618 0
M  V30 8797 S 828.893 -1.40587 4.15669 0
M  V30 8798 H 825.711 -0.121088 0.700613 0
M  V30 8799 H 828.313 0.357423 1.92205 0
M  V30 8800 H 827.017 0.0732892 4.10335 0
M  V30 8801 H 826.548 -1.56142 3.61086 0
M  V30 8802 H 828.563 -2.69493 4.16639 0
M  V30 8803 N 827.736 -1.57571 -0.0300757 0
M  V30 8804 C 828.982 -1.89506 -0.722159 0
M  V30 8805 C 829.315 -0.840699 -1.7506 0
M  V30 8806 O 828.59 0.144358 -1.93964 0
M  V30 8807 C 828.873 -3.32081 -1.39262 0
M  V30 8808 C 828.726 -4.48211 -0.377768 0
M  V30 8809 C 830.045 -3.73557 -2.32687 0
M  V30 8810 H 827.164 -0.689213 -0.261064 0
M  V30 8811 H 829.806 -1.89994 0.0150388 0
M  V30 8812 H 827.956 -3.31796 -2.02098 0
M  V30 8813 H 829.628 -4.6063 0.248591 0
M  V30 8814 H 827.871 -4.3274 0.303045 0
M  V30 8815 H 828.542 -5.44854 -0.885347 0
M  V30 8816 H 831.018 -3.75202 -1.79896 0
M  V30 8817 H 829.894 -4.74125 -2.7658 0
M  V30 8818 H 830.155 -3.05759 -3.19317 0
M  V30 8819 N 829.214 0.302327 -1.54673 0
M  V30 8820 C 830.144 1.37759 -1.88533 0
M  V30 8821 C 831.125 1.52961 -0.744113 0
M  V30 8822 O 832.31 1.6649 -0.999731 0
M  V30 8823 C 829.44 2.74201 -2.13146 0
M  V30 8824 C 828.394 2.73765 -3.28993 0
M  V30 8825 C 827.72 4.13483 -3.39022 0
M  V30 8826 C 829.02 2.35624 -4.66132 0
M  V30 8827 H 830.714 1.0967 -2.78591 0
M  V30 8828 H 828.26 0.52613 -1.34044 0
M  V30 8829 H 830.213 3.49508 -2.35419 0
M  V30 8830 H 828.937 3.03812 -1.19858 0
M  V30 8831 H 827.596 2.00914 -3.06642 0
M  V30 8832 H 827.244 4.40269 -2.43253 0
M  V30 8833 H 826.944 4.14093 -4.16894 0
M  V30 8834 H 828.468 4.90572 -3.63553 0
M  V30 8835 H 829.882 3.00647 -4.88143 0
M  V30 8836 H 828.279 2.47449 -5.46707 0
M  V30 8837 H 829.349 1.30753 -4.66939 0
M  V30 8838 N 830.692 1.47107 0.565454 0
M  V30 8839 C 831.939 1.53308 1.32299 0
M  V30 8840 C 832.267 0.1919 1.93551 0
M  V30 8841 O 831.522 -0.81435 1.77952 0
M  V30 8842 C 831.821 2.59309 2.45954 0
M  V30 8843 C 831.487 4.02827 2.02586 0
M  V30 8844 C 830.149 4.41897 1.90474 0
M  V30 8845 C 832.501 4.92913 1.6937 0
M  V30 8846 C 829.829 5.68898 1.4343 0
M  V30 8847 C 832.181 6.20368 1.238 0
M  V30 8848 C 830.845 6.58327 1.10278 0
M  V30 8849 H 830.115 0.560993 0.484116 0
M  V30 8850 H 832.762 1.80667 0.634965 0
M  V30 8851 H 831.067 2.25676 3.20277 0
M  V30 8852 H 832.764 2.61332 3.04149 0
M  V30 8853 H 829.354 3.71953 2.12952 0
M  V30 8854 H 833.538 4.63433 1.77605 0
M  V30 8855 H 828.794 5.97065 1.31618 0
M  V30 8856 H 832.968 6.89589 0.971586 0
M  V30 8857 H 830.595 7.56628 0.736027 0
M  V30 8858 N 832.17 -0.811516 1.35101 0
M  V30 8859 C 833.1 -1.9378 1.30275 0
M  V30 8860 C 834.081 -1.69165 0.178075 0
M  V30 8861 O 835.266 -1.90599 0.372256 0
M  V30 8862 C 832.396 -3.30439 1.06899 0
M  V30 8863 C 831.35 -3.69523 2.15955 0
M  V30 8864 C 830.676 -5.0429 1.77751 0
M  V30 8865 C 831.976 -3.80419 3.57881 0
M  V30 8866 H 833.67 -1.98075 2.24514 0
M  V30 8867 H 831.216 -0.951586 1.08078 0
M  V30 8868 H 833.169 -4.08828 1.02164 0
M  V30 8869 H 831.893 -3.26473 0.0910462 0
M  V30 8870 H 830.552 -2.93416 2.19778 0
M  V30 8871 H 830.2 -4.96823 0.785876 0
M  V30 8872 H 829.9 -5.31411 2.5075 0
M  V30 8873 H 831.424 -5.85125 1.74533 0
M  V30 8874 H 832.838 -4.49051 3.56407 0
M  V30 8875 H 831.235 -4.19005 4.29598 0
M  V30 8876 H 832.305 -2.82105 3.94391 0
M  V30 8877 N 833.648 -1.19017 -1.03309 0
M  V30 8878 C 834.894 -0.991681 -1.769 0
M  V30 8879 C 835.227 0.476813 -1.88255 0
M  V30 8880 O 834.502 1.35407 -1.39625 0
M  V30 8881 C 834.785 -1.65627 -3.19749 0
M  V30 8882 C 834.638 -3.19813 -3.1629 0
M  V30 8883 C 835.957 -1.37579 -4.18043 0
M  V30 8884 H 833.076 -0.361674 -0.642153 0
M  V30 8885 H 835.718 -1.46795 -1.20628 0
M  V30 8886 H 833.868 -1.25132 -3.67796 0
M  V30 8887 H 835.54 -3.69494 -2.76174 0
M  V30 8888 H 833.783 -3.51578 -2.54117 0
M  V30 8889 H 834.454 -3.61457 -4.17196 0
M  V30 8890 H 836.93 -1.72679 -3.78578 0
M  V30 8891 H 835.806 -1.86636 -5.16196 0
M  V30 8892 H 836.067 -0.300118 -4.4108 0
M  V30 8893 N 835.127 1.22348 -0.993418 0
M  V30 8894 C 836.09 2.22522 -0.549251 0
M  V30 8895 C 837.09 1.56529 0.368164 0
M  V30 8896 O 838.28 1.73463 0.16005 0
M  V30 8897 C 835.412 3.40307 0.201037 0
M  V30 8898 H 836.605 2.63332 -1.43515 0
M  V30 8899 H 834.158 1.35407 -0.78068 0
M  V30 8900 H 834.893 3.0497 1.10289 0
M  V30 8901 H 834.678 3.8942 -0.457685 0
M  V30 8902 H 836.168 4.14597 0.499946 0
M  V30 8903 N 836.605 0.766683 1.37694 0
M  V30 8904 C 838.021 0.445739 1.53249 0
M  V30 8905 C 838.221 -1.03935 1.72626 0
M  V30 8906 O 837.277 -1.82525 1.74473 0
M  V30 8907 C 838.59 1.2564 2.73194 0
M  V30 8908 C 840.138 1.24779 2.87053 0
M  V30 8909 C 840.613 2.04169 4.09974 0
M  V30 8910 N 842.104 2.01497 4.17077 0
M  V30 8911 C 842.839 2.5971 5.11212 0
M  V30 8912 N 842.335 3.26691 6.10938 0
M  V30 8913 N 844.128 2.49568 5.03659 0
M  V30 8914 H 836.279 1.72899 1.23368 0
M  V30 8915 H 838.542 0.733701 0.600322 0
M  V30 8916 H 838.248 2.30859 2.65324 0
M  V30 8917 H 838.122 0.882133 3.6674 0
M  V30 8918 H 840.509 0.203603 2.94397 0
M  V30 8919 H 840.59 1.66166 1.9448 0
M  V30 8920 H 840.234 3.08606 4.03392 0
M  V30 8921 H 840.164 1.60167 5.01651 0
M  V30 8922 H 842.655 1.52728 3.45662 0
M  V30 8923 H 842.968 3.68497 6.79286 0
M  V30 8924 H 841.313 3.30789 6.11231 0
M  V30 8925 H 844.504 1.96859 4.24693 0
M  V30 8926 H 844.677 2.95231 5.76839 0
M  V30 8927 N 838.083 -1.48885 0.516809 0
M  V30 8928 C 839.013 -2.32241 -0.242157 0
M  V30 8929 C 839.994 -1.41258 -0.947633 0
M  V30 8930 O 841.179 -1.70156 -0.935973 0
M  V30 8931 C 838.309 -3.22151 -1.29754 0
M  V30 8932 C 837.263 -4.22053 -0.710995 0
M  V30 8933 C 836.589 -5.01007 -1.86806 0
M  V30 8934 C 837.889 -5.21388 0.30853 0
M  V30 8935 H 839.583 -2.95943 0.453651 0
M  V30 8936 H 837.129 -1.42316 0.219612 0
M  V30 8937 H 839.082 -3.79284 -1.83634 0
M  V30 8938 H 837.806 -2.56423 -2.02274 0
M  V30 8939 H 836.465 -3.66087 -0.193819 0
M  V30 8940 H 836.113 -4.31713 -2.58133 0
M  V30 8941 H 835.813 -5.68615 -1.48159 0
M  V30 8942 H 837.337 -5.60989 -2.4109 0
M  V30 8943 H 838.751 -5.73122 -0.142703 0
M  V30 8944 H 837.148 -5.96975 0.611673 0
M  V30 8945 H 838.218 -4.69329 1.21894 0
M  V30 8946 N 839.561 -0.251338 -1.55583 0
M  V30 8947 C 840.789 0.376187 -2.03451 0
M  V30 8948 C 841.204 1.51215 -1.13047 0
M  V30 8949 O 840.561 1.81917 -0.145769 0
M  V30 8950 C 840.612 0.879779 -3.50631 0
M  V30 8951 O 840.333 -0.210917 -4.37592 0
M  V30 8952 C 841.834 1.57754 -4.14281 0
M  V30 8953 H 839.054 0.0888722 -0.665089 0
M  V30 8954 H 841.598 -0.376497 -2.01004 0
M  V30 8955 H 839.753 1.58263 -3.53598 0
M  V30 8956 H 840.167 0.172203 -5.24217 0
M  V30 8957 H 841.641 1.88158 -5.18942 0
M  V30 8958 H 842.118 2.50103 -3.61034 0
M  V30 8959 H 842.724 0.919154 -4.15249 0
M  V30 8960 N 841.039 1.57585 0.0217189 0
M  V30 8961 C 842.45 1.7787 0.567377 0
M  V30 8962 C 842.801 0.883337 1.7519 0
M  V30 8963 O 841.926 0.0800819 2.16252 0
M  V30 8964 C 842.521 3.2257 1.03606 0
M  V30 8965 C 841.08 3.44026 1.52718 0
M  V30 8966 C 840.227 2.73313 0.468545 0
M  V30 8967 H 843.178 1.57377 -0.2045 0
M  V30 8968 H 843.199 3.29488 1.9031 0
M  V30 8969 H 842.711 3.87711 0.173739 0
M  V30 8970 H 840.812 2.8407 2.41111 0
M  V30 8971 H 840.925 4.52659 1.56962 0
M  V30 8972 H 839.289 2.37299 0.925263 0
M  V30 8973 H 840.072 3.41141 -0.384438 0
M  V30 8974 N 842.517 -0.29412 1.54831 0
M  V30 8975 C 843.747 -1.04572 1.7818 0
M  V30 8976 C 844.155 -1.81187 0.544776 0
M  V30 8977 O 843.498 -1.769 -0.495169 0
M  V30 8978 C 843.56 -2.06748 2.94101 0
M  V30 8979 C 843.224 -1.49265 4.31936 0
M  V30 8980 C 844.221 -0.919136 5.11711 0
M  V30 8981 C 841.906 -1.52621 4.78552 0
M  V30 8982 C 843.9 -0.386824 6.36225 0
M  V30 8983 C 841.587 -0.990031 6.03027 0
M  V30 8984 C 842.585 -0.421315 6.81699 0
M  V30 8985 O 842.273 0.106713 8.03829 0
M  V30 8986 H 842.005 -0.31559 0.597812 0
M  V30 8987 H 844.559 -0.336817 2.0262 0
M  V30 8988 H 842.789 -2.81339 2.65303 0
M  V30 8989 H 844.478 -2.67865 3.04964 0
M  V30 8990 H 845.244 -0.886062 4.76837 0
M  V30 8991 H 841.123 -1.95826 4.17341 0
M  V30 8992 H 844.667 0.0577248 6.97576 0
M  V30 8993 H 840.564 -1.02027 6.37386 0
M  V30 8994 H 841.332 -0.00593526 8.185 0
M  V30 8995 N 843.995 -1.47404 -0.557645 0
M  V30 8996 C 844.905 -1.62491 -1.69216 0
M  V30 8997 C 845.921 -0.507764 -1.66426 0
M  V30 8998 O 847.097 -0.775241 -1.85882 0
M  V30 8999 C 844.162 -1.63511 -3.05721 0
M  V30 9000 C 843.223 -2.86648 -3.1958 0
M  V30 9001 C 842.456 -2.87609 -4.49574 0
M  V30 9002 O 842.679 -1.97799 -5.35006 0
M  V30 9003 O 841.613 -3.79465 -4.67215 0
M  V30 9004 H 845.439 -2.58487 -1.59431 0
M  V30 9005 H 843.024 -1.30485 -0.7276 0
M  V30 9006 H 844.906 -1.66863 -3.86956 0
M  V30 9007 H 843.581 -0.706812 -3.15889 0
M  V30 9008 H 842.488 -2.8884 -2.37744 0
M  V30 9009 H 843.821 -3.7877 -3.14316 0
M  V30 9010 N 845.473 0.80434 -1.35529 0
M  V30 9011 C 846.719 1.56328 -1.30127 0
M  V30 9012 C 847.074 1.92008 0.122699 0
M  V30 9013 O 846.367 1.58693 1.07364 0
M  V30 9014 C 846.561 2.85988 -2.14349 0
M  V30 9015 C 846.39 2.62977 -3.64792 0
M  V30 9016 C 845.16 2.58757 -4.34019 0
M  V30 9017 C 847.358 2.332 -4.58391 0
M  V30 9018 N 845.34 2.27487 -5.70195 0
M  V30 9019 C 846.711 2.11788 -5.82706 0
M  V30 9020 C 848.766 2.19082 -4.4711 0
M  V30 9021 C 847.469 1.77688 -6.97008 0
M  V30 9022 C 849.495 1.86378 -5.61264 0
M  V30 9023 C 848.857 1.65804 -6.84608 0
M  V30 9024 H 844.956 0.57368 -0.531428 0
M  V30 9025 H 847.54 0.941313 -1.70433 0
M  V30 9026 H 845.711 3.46077 -1.76311 0
M  V30 9027 H 847.443 3.51571 -2.00449 0
M  V30 9028 H 844.198 2.73484 -3.86656 0
M  V30 9029 H 844.622 2.1464 -6.42074 0
M  V30 9030 H 849.264 2.33686 -3.5235 0
M  V30 9031 H 846.982 1.61822 -7.91732 0
M  V30 9032 H 850.568 1.7616 -5.5449 0
M  V30 9033 H 849.448 1.40868 -7.71444 0
M  V30 9034 N 846.951 1.19563 1.02676 0
M  V30 9035 C 848.181 1.0234 1.79472 0
M  V30 9036 C 848.589 -0.430891 1.84228 0
M  V30 9037 O 847.932 -1.31106 1.28674 0
M  V30 9038 C 847.994 1.51901 3.25832 0
M  V30 9039 C 847.658 3.00045 3.44706 0
M  V30 9040 C 848.655 3.9779 3.34752 0
M  V30 9041 C 846.34 3.38784 3.70851 0
M  V30 9042 C 848.334 5.32267 3.50672 0
M  V30 9043 C 846.021 4.73419 3.86416 0
M  V30 9044 C 847.019 5.69969 3.7633 0
M  V30 9045 O 846.707 7.02165 3.91432 0
M  V30 9046 H 846.439 0.360936 0.571578 0
M  V30 9047 H 848.993 1.58863 1.30198 0
M  V30 9048 H 847.223 0.897546 3.7614 0
M  V30 9049 H 848.912 1.30853 3.84229 0
M  V30 9050 H 849.678 3.69207 3.14502 0
M  V30 9051 H 845.557 2.64183 3.77794 0
M  V30 9052 H 849.101 6.07612 3.42715 0
M  V30 9053 H 844.998 5.01697 4.06165 0
M  V30 9054 H 845.766 7.09268 4.08511 0
M  V30 9055 N 848.429 -1.21819 0.999893 0
M  V30 9056 C 849.654 -1.95298 0.698094 0
M  V30 9057 C 850.079 -1.73273 -0.731982 0
M  V30 9058 O 849.437 -1.01634 -1.50134 0
M  V30 9059 C 849.485 -3.45922 1.01834 0
M  V30 9060 O 848.589 -4.12223 0.120801 0
M  V30 9061 H 847.93 -0.610729 0.260588 0
M  V30 9062 H 850.46 -1.5472 1.33876 0
M  V30 9063 H 850.47 -3.96471 0.963074 0
M  V30 9064 H 849.145 -3.61278 2.06037 0
M  V30 9065 H 847.722 -3.72177 0.232153 0
M  V30 9066 N 849.908 -0.773975 -1.37286 0
M  V30 9067 C 851.319 -0.404433 -1.82267 0
M  V30 9068 C 851.67 1.06971 -1.64474 0
M  V30 9069 O 850.795 1.82867 -1.15708 0
M  V30 9070 C 851.39 -0.727298 -3.30902 0
M  V30 9071 C 849.949 -0.410784 -3.74152 0
M  V30 9072 C 849.096 -0.969983 -2.59782 0
M  V30 9073 H 852.047 -0.968437 -1.25726 0
M  V30 9074 H 852.068 -0.0127575 -3.80498 0
M  V30 9075 H 851.58 -1.80026 -3.4382 0
M  V30 9076 H 849.681 0.65477 -3.66802 0
M  V30 9077 H 849.794 -0.920592 -4.70172 0
M  V30 9078 H 848.158 -0.394094 -2.51633 0
M  V30 9079 H 848.941 -2.04839 -2.75492 0
M  V30 9080 N 851.386 1.48609 -0.524698 0
M  V30 9081 C 852.336 2.26505 0.260696 0
M  V30 9082 C 853.32 1.32378 0.914597 0
M  V30 9083 O 854.512 1.5695 0.818277 0
M  V30 9084 C 851.641 3.17313 1.31024 0
M  V30 9085 C 850.727 4.18911 0.661391 0
M  V30 9086 N 851.118 5.05183 -0.24981 0
M  V30 9087 C 849.416 4.36425 0.91922 0
M  V30 9088 C 850.117 5.78348 -0.623598 0
M  V30 9089 N 849.093 5.43598 0.0140839 0
M  V30 9090 H 852.895 2.90582 -0.440388 0
M  V30 9091 H 850.409 1.5875 -0.342364 0
M  V30 9092 H 852.406 3.71772 1.88656 0
M  V30 9093 H 851.066 2.54791 2.01275 0
M  V30 9094 H 852.077 5.1415 -0.622093 0
M  V30 9095 H 848.754 3.85095 1.6127 0
M  V30 9096 H 850.144 6.57775 -1.37046 0
M  V30 9097 N 852.864 0.259585 1.55447 0
M  V30 9098 C 854.275 -0.241165 1.85136 0
M  V30 9099 C 854.626 -1.56634 1.18153 0
M  V30 9100 O 853.751 -2.11359 0.464351 0
M  V30 9101 C 854.346 -0.444355 3.35873 0
M  V30 9102 C 852.905 -0.889354 3.65742 0
M  V30 9103 C 852.052 0.0262474 2.77288 0
M  V30 9104 H 855.003 0.481808 1.51209 0
M  V30 9105 H 855.024 -1.28517 3.58139 0
M  V30 9106 H 854.536 0.520289 3.84597 0
M  V30 9107 H 852.637 -1.86602 3.22507 0
M  V30 9108 H 852.75 -0.737432 4.73391 0
M  V30 9109 H 851.114 -0.487361 2.49994 0
M  V30 9110 H 851.897 0.986494 3.28821 0
M  V30 9111 N 854.342 -1.57594 -0.0133615 0
M  V30 9112 C 855.582 -1.91834 -0.705639 0
M  V30 9113 C 855.946 -0.859801 -1.71672 0
M  V30 9114 O 857.147 -1.08702 -2.4584 0
M  V30 9115 C 855.418 -3.31174 -1.34383 0
M  V30 9116 S 856.977 -3.87275 -2.06309 0
M  V30 9117 H 853.795 -0.671598 -0.233404 0
M  V30 9118 H 856.397 -1.95459 0.0401173 0
M  V30 9119 H 855.101 -4.06065 -0.594939 0
M  V30 9120 H 854.632 -3.3089 -2.12781 0
M  V30 9121 H 856.647 -3.67271 -3.33657 0
M  V30 9122 N 855.82 0.285905 -1.54985 0
M  V30 9123 C 856.783 1.33625 -1.86218 0
M  V30 9124 C 857.783 1.42971 -0.735936 0
M  V30 9125 O 858.973 1.42345 -1.00417 0
M  V30 9126 C 856.105 2.71926 -2.05595 0
M  V30 9127 H 857.298 1.07167 -2.80099 0
M  V30 9128 H 854.851 0.523335 -1.47278 0
M  V30 9129 H 855.586 3.03583 -1.14053 0
M  V30 9130 H 855.371 2.6653 -2.87583 0
M  V30 9131 H 856.861 3.47841 -2.31077 0
M  V30 9132 N 857.298 1.47698 0.54982 0
M  V30 9133 C 858.23 1.56806 1.67166 0
M  V30 9134 C 859.243 0.453709 1.5635 0
M  V30 9135 O 860.432 0.723663 1.63173 0
M  V30 9136 C 857.532 1.4632 3.05686 0
M  V30 9137 C 856.705 2.72452 3.42182 0
M  V30 9138 C 855.764 2.55698 4.59897 0
M  V30 9139 O 854.79 3.29534 4.64108 0
M  V30 9140 N 855.992 1.64009 5.56849 0
M  V30 9141 H 858.757 2.53545 1.59797 0
M  V30 9142 H 856.318 1.44171 0.736635 0
M  V30 9143 H 858.31 1.32835 3.82279 0
M  V30 9144 H 856.88 0.57634 3.07241 0
M  V30 9145 H 856.1 3.00644 2.54964 0
M  V30 9146 H 857.388 3.56172 3.63344 0
M  V30 9147 H 856.786 1.03186 5.5621 0
M  V30 9148 H 855.343 1.56473 6.3274 0
M  V30 9149 N 858.776 -0.797141 1.35954 0
M  V30 9150 C 860.024 -1.55161 1.29497 0
M  V30 9151 C 860.345 -1.94582 -0.127659 0
M  V30 9152 O 859.615 -1.64343 -1.06622 0
M  V30 9153 H 858.195 -0.575413 0.47635 0
M  V30 9154 H 860.857 -0.950282 1.70164 0
M  V30 9155 H 859.953 -2.46272 1.9172 0
M  V30 9156 N 860.254 -1.20106 -1.0204 0
M  V30 9157 C 861.67 -0.955099 -1.27867 0
M  V30 9158 C 861.87 0.367595 -1.98119 0
M  V30 9159 O 860.926 1.09705 -2.27423 0
M  V30 9160 C 862.239 -2.13507 -2.11744 0
M  V30 9161 C 863.787 -2.17563 -2.25023 0
M  V30 9162 C 864.262 -3.35035 -3.12275 0
M  V30 9163 N 865.753 -3.35024 -3.19864 0
M  V30 9164 C 866.488 -4.22566 -3.8759 0
M  V30 9165 N 865.984 -5.20278 -4.57474 0
M  V30 9166 N 867.777 -4.10418 -3.84075 0
M  V30 9167 H 859.928 -2.05193 -0.54861 0
M  V30 9168 H 862.191 -0.897689 -0.304728 0
M  V30 9169 H 861.897 -3.09275 -1.67456 0
M  V30 9170 H 861.771 -2.11281 -3.12474 0
M  V30 9171 H 864.158 -1.22359 -2.68537 0
M  V30 9172 H 864.239 -2.23838 -1.23815 0
M  V30 9173 H 863.883 -4.30522 -2.69468 0
M  V30 9174 H 863.813 -3.25996 -4.13563 0
M  V30 9175 H 866.304 -2.64299 -2.701 0
M  V30 9176 H 866.617 -5.83408 -5.06809 0
M  V30 9177 H 864.962 -5.24219 -4.56311 0
M  V30 9178 H 868.153 -3.33353 -3.28623 0
M  V30 9179 H 868.326 -4.78854 -4.36581 0
M  V30 9180 N 861.732 1.21287 -1.00634 0
M  V30 9181 C 862.972 1.92106 -0.698194 0
M  V30 9182 C 863.336 1.76437 0.757222 0
M  V30 9183 O 864.537 2.41641 1.17741 0
M  V30 9184 C 862.808 3.39748 -1.10932 0
M  V30 9185 S 864.367 4.29013 -0.921586 0
M  V30 9186 H 861.185 0.663755 -0.254853 0
M  V30 9187 H 863.787 1.46772 -1.29145 0
M  V30 9188 H 862.491 3.48669 -2.16467 0
M  V30 9189 H 862.022 3.90101 -0.508419 0
M  V30 9190 H 864.037 4.95871 0.180578 0
M  V30 9191 N 863.21 0.781244 1.36873 0
M  V30 9192 C 864.158 0.161889 2.32036 0
M  V30 9193 C 865.152 -0.674225 1.55405 0
M  V30 9194 O 866.358 -0.570223 1.70729 0
M  V30 9195 H 862.733 0.0335702 0.75125 0
M  V30 9196 H 864.704 0.980078 2.81846 0
M  V30 9197 C 863.453 -0.695352 3.40676 0
M  V30 9198 H 862.776 -0.0613425 3.99753 0
M  V30 9199 H 864.216 -1.09553 4.09602 0
M  V30 9200 C 862.675 -1.85008 2.81556 0
M  V30 9201 O 863.205 -2.94616 2.73065 0
M  V30 9202 N 861.411 -1.65364 2.38962 0
M  V30 9203 H 860.958 -0.762106 2.46068 0
M  V30 9204 H 860.916 -2.42789 1.99752 0
M  V30 9205 N 864.689 -1.48329 0.532571 0
M  V30 9206 C 865.619 -2.32485 -0.217511 0
M  V30 9207 C 866.6 -1.42255 -0.932598 0
M  V30 9208 O 867.785 -1.7114 -0.917873 0
M  V30 9209 C 864.915 -3.23509 -1.26329 0
M  V30 9210 C 863.869 -4.22784 -0.666191 0
M  V30 9211 C 863.195 -5.0296 -1.81482 0
M  V30 9212 C 864.495 -5.21031 0.363813 0
M  V30 9213 H 866.189 -2.95445 0.485014 0
M  V30 9214 H 863.735 -1.42075 0.234694 0
M  V30 9215 H 865.688 -3.81211 -1.79601 0
M  V30 9216 H 864.412 -2.58554 -1.99543 0
M  V30 9217 H 863.071 -3.66272 -0.15498 0
M  V30 9218 H 862.719 -4.34427 -2.5354 0
M  V30 9219 H 862.419 -5.70154 -1.4212 0
M  V30 9220 H 863.943 -5.63514 -2.35126 0
M  V30 9221 H 865.357 -5.73241 -0.0819079 0
M  V30 9222 H 863.754 -5.96292 0.674956 0
M  V30 9223 H 864.824 -4.6801 1.26865 0
M  V30 9224 N 866.167 -0.267825 -1.55308 0
M  V30 9225 C 867.097 0.616585 -2.25212 0
M  V30 9226 C 868.078 1.16472 -1.23969 0
M  V30 9227 O 869.263 1.20021 -1.52672 0
M  V30 9228 C 866.393 1.80412 -2.96764 0
M  V30 9229 C 865.347 1.38784 -4.04874 0
M  V30 9230 C 864.673 2.65789 -4.63961 0
M  V30 9231 C 865.973 0.543415 -5.19465 0
M  V30 9232 H 867.667 0.0336257 -2.99381 0
M  V30 9233 H 865.213 0.0147328 -1.43992 0
M  V30 9234 H 867.166 2.42866 -3.44375 0
M  V30 9235 H 865.89 2.4128 -2.20118 0
M  V30 9236 H 864.549 0.786541 -3.58063 0
M  V30 9237 H 864.197 3.24899 -3.83992 0
M  V30 9238 H 863.897 2.38651 -5.36954 0
M  V30 9239 H 865.421 3.29104 -5.14318 0
M  V30 9240 H 866.835 1.07277 -5.63174 0
M  V30 9241 H 865.232 0.367219 -5.98975 0
M  V30 9242 H 866.302 -0.439534 -4.82904 0
M  V30 9243 N 867.645 1.57599 0.00500368 0
M  V30 9244 C 868.891 1.90631 0.691919 0
M  V30 9245 C 869.224 0.868443 1.737 0
M  V30 9246 O 868.499 -0.113482 1.94169 0
M  V30 9247 C 868.782 3.34255 1.33961 0
M  V30 9248 C 868.635 4.48755 0.306413 0
M  V30 9249 C 869.954 3.77211 2.26715 0
M  V30 9250 H 867.073 0.693279 0.250066 0
M  V30 9251 H 869.715 1.89946 -0.0452634 0
M  V30 9252 H 867.865 3.3497 1.96793 0
M  V30 9253 H 869.537 4.60176 -0.321841 0
M  V30 9254 H 867.78 4.32203 -0.371852 0
M  V30 9255 H 868.451 5.46193 0.798554 0
M  V30 9256 H 870.927 3.78017 1.73904 0
M  V30 9257 H 869.803 4.78466 2.69002 0
M  V30 9258 H 870.064 3.10801 3.14413 0
M  V30 9259 N 869.123 -0.277682 1.55134 0
M  V30 9260 C 870.071 -1.36305 1.88478 0
M  V30 9261 C 871.065 -1.51362 0.760654 0
M  V30 9262 O 872.271 -1.53202 0.944943 0
M  V30 9263 H 868.646 -0.45577 0.598146 0
M  V30 9264 H 870.617 -1.05431 2.79154 0
M  V30 9265 C 869.366 -2.71739 2.16918 0
M  V30 9266 H 868.689 -2.60942 3.02901 0
M  V30 9267 H 870.129 -3.46635 2.44172 0
M  V30 9268 C 868.588 -3.22476 0.975239 0
M  V30 9269 O 869.118 -4.01164 0.207497 0
M  V30 9270 N 867.324 -2.80097 0.774219 0
M  V30 9271 H 866.871 -2.16221 1.40022 0
M  V30 9272 H 866.829 -3.14392 -0.023021 0
M  V30 9273 N 870.601 -1.47988 -0.541979 0
M  V30 9274 C 871.533 -1.5769 -1.66332 0
M  V30 9275 C 872.546 -0.461994 -1.56107 0
M  V30 9276 O 873.735 -0.732306 -1.62787 0
M  V30 9277 C 870.835 -1.47939 -3.04905 0
M  V30 9278 C 870.008 -2.74263 -3.40733 0
M  V30 9279 C 869.067 -2.58133 -4.58534 0
M  V30 9280 O 868.093 -3.31991 -4.62354 0
M  V30 9281 N 869.295 -1.6696 -5.55972 0
M  V30 9282 H 872.06 -2.54389 -1.5845 0
M  V30 9283 H 869.621 -1.4456 -0.728979 0
M  V30 9284 H 871.613 -1.34861 -3.81569 0
M  V30 9285 H 870.183 -0.592626 -3.06931 0
M  V30 9286 H 869.403 -3.01992 -2.53366 0
M  V30 9287 H 870.691 -3.58094 -3.6145 0
M  V30 9288 H 870.089 -1.06134 -5.55655 0
M  V30 9289 H 868.646 -1.59826 -6.31901 0
M  V30 9290 N 872.079 0.78992 -1.36375 0
M  V30 9291 C 873.309 1.57644 -1.33536 0
M  V30 9292 C 873.717 1.89007 0.0855075 0
M  V30 9293 O 873.06 1.50547 1.05267 0
M  V30 9294 C 873.122 2.92424 -2.09113 0
M  V30 9295 C 872.786 2.83793 -3.58205 0
M  V30 9296 C 873.783 2.56072 -4.52464 0
M  V30 9297 C 871.468 3.02386 -4.01084 0
M  V30 9298 C 873.462 2.47044 -5.87578 0
M  V30 9299 C 871.149 2.9298 -5.36289 0
M  V30 9300 C 872.147 2.65347 -6.29349 0
M  V30 9301 O 871.835 2.55935 -7.62071 0
M  V30 9302 H 871.567 0.495639 -0.459694 0
M  V30 9303 H 874.121 0.988354 -1.80058 0
M  V30 9304 H 872.351 3.53282 -1.57254 0
M  V30 9305 H 874.04 3.53693 -1.99139 0
M  V30 9306 H 874.806 2.4141 -4.2065 0
M  V30 9307 H 870.685 3.229 -3.29023 0
M  V30 9308 H 874.229 2.25396 -6.60184 0
M  V30 9309 H 870.126 3.07204 -5.67711 0
M  V30 9310 H 870.894 2.7142 -7.72187 0
M  V30 9311 N 873.557 1.20646 1.01402 0
M  V30 9312 C 874.782 1.04462 1.79172 0
M  V30 9313 C 875.207 -0.401588 1.83763 0
M  V30 9314 O 874.565 -1.28934 1.27459 0
M  V30 9315 C 874.613 1.63583 3.21361 0
M  V30 9316 O 873.717 0.875198 4.03006 0
M  V30 9317 H 873.058 0.368235 0.552539 0
M  V30 9318 H 875.588 1.59994 1.27526 0
M  V30 9319 H 875.598 1.67426 3.72065 0
M  V30 9320 H 874.273 2.68835 3.17334 0
M  V30 9321 H 872.85 0.911172 3.61597 0
M  V30 9322 N 875.035 -1.20752 1.01276 0
M  V30 9323 C 875.965 -2.25658 0.600064 0
M  V30 9324 C 876.946 -1.65733 -0.38298 0
M  V30 9325 O 878.131 -1.92324 -0.269256 0
M  V30 9326 C 875.261 -3.47237 -0.0663197 0
M  V30 9327 C 874.215 -4.1973 0.83731 0
M  V30 9328 C 873.541 -5.34687 0.0369102 0
M  V30 9329 C 874.841 -4.76286 2.14357 0
M  V30 9330 H 876.535 -2.60432 1.477 0
M  V30 9331 H 874.081 -1.25187 0.711634 0
M  V30 9332 H 876.034 -4.19803 -0.366563 0
M  V30 9333 H 874.758 -3.11615 -0.977944 0
M  V30 9334 H 873.417 -3.49024 1.1215 0
M  V30 9335 H 873.065 -4.95309 -0.876244 0
M  V30 9336 H 872.765 -5.84119 0.63865 0
M  V30 9337 H 874.289 -6.10059 -0.256968 0
M  V30 9338 H 875.703 -5.40691 1.90595 0
M  V30 9339 H 874.1 -5.36139 2.69583 0
M  V30 9340 H 875.17 -3.9524 2.80916 0
M  V30 9341 N 876.513 -0.788492 -1.36457 0
M  V30 9342 C 877.761 -0.359749 -1.98872 0
M  V30 9343 C 878.082 1.07197 -1.62892 0
M  V30 9344 O 877.352 1.73875 -0.902463 0
M  V30 9345 H 875.932 -0.130029 -0.735596 0
M  V30 9346 H 878.594 -1.01033 -1.66668 0
M  V30 9347 H 877.69 -0.450835 -3.08827 0
M  V30 9348 N 877.991 1.48044 -0.54043 0
M  V30 9349 C 878.939 2.31461 0.229862 0
M  V30 9350 C 879.933 1.41884 0.925495 0
M  V30 9351 O 881.139 1.58736 0.848689 0
M  V30 9352 H 877.514 0.746227 0.0929975 0
M  V30 9353 H 879.485 2.94297 -0.493118 0
M  V30 9354 C 878.234 3.24172 1.25729 0
M  V30 9355 H 877.557 3.93052 0.731426 0
M  V30 9356 H 878.997 3.85404 1.76747 0
M  V30 9357 C 877.456 2.4651 2.2964 0
M  V30 9358 O 877.986 2.19742 3.36268 0
M  V30 9359 N 876.192 2.07817 2.03127 0
M  V30 9360 H 875.739 2.29786 1.1643 0
M  V30 9361 H 875.697 1.56168 2.72872 0
M  V30 9362 N 879.47 0.276058 1.55163 0
M  V30 9363 C 880.695 -0.346648 2.04483 0
M  V30 9364 C 881.12 -1.48613 1.15308 0
M  V30 9365 O 880.478 -1.80663 0.151875 0
M  V30 9366 C 880.526 -0.804268 3.51517 0
M  V30 9367 O 879.63 -1.91143 3.65429 0
M  V30 9368 H 878.971 -0.0715251 0.660136 0
M  V30 9369 H 881.501 0.410631 2.00437 0
M  V30 9370 H 881.511 -1.09977 3.92898 0
M  V30 9371 H 880.186 0.0294123 4.1589 0
M  V30 9372 H 878.763 -1.61839 3.3595 0
M  V30 9373 N 880.948 -1.576 0.00335426 0
M  V30 9374 C 881.878 -2.11668 -0.985839 0
M  V30 9375 C 882.859 -1.02661 -1.35627 0
M  V30 9376 O 884.044 -1.30361 -1.43943 0
M  V30 9377 C 881.174 -2.62273 -2.27662 0
M  V30 9378 C 880.128 -3.75837 -2.0477 0
M  V30 9379 C 879.454 -4.12769 -3.39891 0
M  V30 9380 C 880.754 -5.02975 -1.40759 0
M  V30 9381 H 882.448 -2.9457 -0.535637 0
M  V30 9382 H 879.994 -1.41702 -0.256204 0
M  V30 9383 H 881.947 -2.98727 -2.97221 0
M  V30 9384 H 880.671 -1.76498 -2.74802 0
M  V30 9385 H 879.33 -3.39782 -1.37636 0
M  V30 9386 H 878.978 -3.24013 -3.8474 0
M  V30 9387 H 878.678 -4.89281 -3.25389 0
M  V30 9388 H 880.202 -4.51784 -4.1076 0
M  V30 9389 H 881.616 -5.37179 -2.00279 0
M  V30 9390 H 880.013 -5.84315 -1.36734 0
M  V30 9391 H 881.083 -4.83431 -0.377218 0
M  V30 9392 N 882.426 0.269451 -1.5528 0
M  V30 9393 C 883.672 0.997946 -1.77236 0
M  V30 9394 C 884.027 1.83808 -0.568546 0
M  V30 9395 O 883.32 1.8651 0.438706 0
M  V30 9396 C 883.514 1.91 -3.02082 0
M  V30 9397 C 883.343 1.15963 -4.34491 0
M  V30 9398 C 882.113 0.873873 -4.97686 0
M  V30 9399 C 884.311 0.548307 -5.11369 0
M  V30 9400 N 882.293 0.0970863 -6.13823 0
M  V30 9401 C 883.664 -0.0941413 -6.19929 0
M  V30 9402 C 885.719 0.456507 -4.95803 0
M  V30 9403 C 884.422 -0.819547 -7.14616 0
M  V30 9404 C 886.448 -0.255315 -5.90849 0
M  V30 9405 C 885.81 -0.886488 -6.988 0
M  V30 9406 H 881.909 0.347038 -0.700777 0
M  V30 9407 H 884.493 0.273262 -1.92773 0
M  V30 9408 H 882.664 2.60691 -2.87915 0
M  V30 9409 H 884.396 2.57237 -3.12428 0
M  V30 9410 H 881.151 1.18003 -4.58663 0
M  V30 9411 H 881.575 -0.278741 -6.76426 0
M  V30 9412 H 886.217 0.930164 -4.12441 0
M  V30 9413 H 883.935 -1.30488 -7.97495 0
M  V30 9414 H 887.521 -0.32671 -5.80882 0
M  V30 9415 H 886.401 -1.42851 -7.71079 0
M  V30 9416 N 883.904 1.48273 0.534124 0
M  V30 9417 C 885.151 1.56079 1.29017 0
M  V30 9418 C 885.479 0.232912 1.931 0
M  V30 9419 O 884.734 -0.77642 1.79639 0
M  V30 9420 C 885.033 2.64468 2.40398 0
M  V30 9421 C 884.699 4.07034 1.93995 0
M  V30 9422 C 883.361 4.45838 1.81058 0
M  V30 9423 C 885.713 4.96395 1.58877 0
M  V30 9424 C 883.041 5.71812 1.31331 0
M  V30 9425 C 885.393 6.22854 1.10614 0
M  V30 9426 C 884.057 6.60518 0.962895 0
M  V30 9427 H 883.327 0.571135 0.472108 0
M  V30 9428 H 885.974 1.81973 0.5965 0
M  V30 9429 H 884.279 2.32419 3.15418 0
M  V30 9430 H 885.976 2.67725 2.98537 0
M  V30 9431 H 882.566 3.76387 2.05015 0
M  V30 9432 H 886.75 4.67096 1.67734 0
M  V30 9433 H 882.006 5.99722 1.18924 0
M  V30 9434 H 886.18 6.91495 0.825095 0
M  V30 9435 H 883.807 7.58019 0.575369 0
M  V30 9436 N 885.382 -0.782676 1.36792 0
M  V30 9437 C 886.793 -1.35828 1.28092 0
M  V30 9438 C 887.144 -1.96052 -0.076315 0
M  V30 9439 O 886.269 -1.93042 -0.977935 0
M  V30 9440 C 886.864 -2.46949 2.31952 0
M  V30 9441 C 885.423 -3.00307 2.2692 0
M  V30 9442 C 884.57 -1.73436 2.16368 0
M  V30 9443 H 887.521 -0.583788 1.47572 0
M  V30 9444 H 887.542 -3.26144 1.95986 0
M  V30 9445 H 887.054 -2.03087 3.30722 0
M  V30 9446 H 885.155 -3.48571 1.31639 0
M  V30 9447 H 885.268 -3.56663 3.19887 0
M  V30 9448 H 883.632 -1.95934 1.62733 0
M  V30 9449 H 884.415 -1.31693 3.17036 0
M  V30 9450 N 886.86 -1.21182 -1.00761 0
M  V30 9451 C 888.106 -1.02898 -1.74756 0
M  V30 9452 C 888.439 0.436774 -1.89225 0
M  V30 9453 O 887.714 1.32415 -1.42466 0
M  V30 9454 C 887.997 -1.72372 -3.16164 0
M  V30 9455 C 887.85 -3.2645 -3.09435 0
M  V30 9456 C 889.169 -1.46415 -4.15031 0
M  V30 9457 H 886.288 -0.375214 -0.634337 0
M  V30 9458 H 888.93 -1.49321 -1.17487 0
M  V30 9459 H 887.08 -1.32906 -3.65059 0
M  V30 9460 H 888.752 -3.75269 -2.68274 0
M  V30 9461 H 886.995 -3.56889 -2.46603 0
M  V30 9462 H 887.666 -3.70226 -4.09435 0
M  V30 9463 H 890.142 -1.80671 -3.7483 0
M  V30 9464 H 889.018 -1.97544 -5.12121 0
M  V30 9465 H 889.279 -0.39361 -4.40344 0
M  V30 9466 N 888.338 1.20213 -1.01915 0
M  V30 9467 C 889.586 1.89272 -0.708552 0
M  V30 9468 C 889.907 1.79394 0.76438 0
M  V30 9469 O 889.177 1.198 1.54999 0
M  V30 9470 H 887.757 0.700628 -0.259094 0
M  V30 9471 H 890.419 1.45985 -1.29129 0
M  V30 9472 H 889.515 2.95841 -0.994215 0
M  V30 9473 N 889.816 0.795718 1.36037 0
M  V30 9474 C 891.064 0.370291 1.98679 0
M  V30 9475 C 891.385 -1.06332 1.63458 0
M  V30 9476 O 890.655 -1.73394 0.911671 0
M  V30 9477 H 889.235 0.133928 0.734896 0
M  V30 9478 H 891.897 1.01915 1.6613 0
M  V30 9479 H 890.993 0.467207 3.08583 0
M  V30 9480 N 891.294 -1.47756 0.548274 0
M  V30 9481 C 892.541 -2.02489 0.0208955 0
M  V30 9482 C 892.869 -1.42356 -1.32533 0
M  V30 9483 O 892.124 -0.565448 -1.87353 0
M  V30 9484 C 892.423 -3.5716 -0.131069 0
M  V30 9485 C 892.089 -4.36169 1.14313 0
M  V30 9486 C 890.751 -4.57476 1.4923 0
M  V30 9487 C 893.103 -4.81801 1.9879 0
M  V30 9488 C 890.431 -5.21662 2.68487 0
M  V30 9489 C 892.783 -5.47303 3.17242 0
M  V30 9490 C 891.447 -5.66844 3.52483 0
M  V30 9491 H 890.717 -0.740961 0.00764621 0
M  V30 9492 H 893.364 -1.77531 0.717987 0
M  V30 9493 H 891.669 -3.8106 -0.911063 0
M  V30 9494 H 893.366 -3.9715 -0.55433 0
M  V30 9495 H 889.956 -4.19858 0.861235 0
M  V30 9496 H 894.14 -4.65126 1.73123 0
M  V30 9497 H 889.396 -5.34987 2.95971 0
M  V30 9498 H 893.57 -5.81626 3.82994 0
M  V30 9499 H 891.197 -6.16352 4.44988 0
M  V30 9500 N 892.772 -0.284283 -1.55015 0
M  V30 9501 C 893.705 0.640779 -2.19019 0
M  V30 9502 C 894.683 1.14541 -1.15409 0
M  V30 9503 O 895.867 1.21669 -1.43975 0
M  V30 9504 C 892.994 1.87488 -2.82074 0
M  V30 9505 C 892.04 1.50494 -3.99066 0
M  V30 9506 S 892.873 0.575218 -5.32402 0
M  V30 9507 C 894.029 1.81749 -5.98931 0
M  V30 9508 H 894.262 0.0969761 -2.97142 0
M  V30 9509 H 891.795 -0.0684929 -1.54248 0
M  V30 9510 H 893.753 2.58319 -3.19032 0
M  V30 9511 H 892.414 2.38984 -2.03828 0
M  V30 9512 H 891.607 2.42349 -4.41908 0
M  V30 9513 H 891.209 0.876741 -3.63578 0
M  V30 9514 H 893.501 2.76026 -6.18721 0
M  V30 9515 H 894.444 1.43192 -6.93471 0
M  V30 9516 H 894.852 1.98661 -5.28388 0
M  V30 9517 N 894.251 1.57596 -0.0117121 0
M  V30 9518 C 895.183 2.06025 1.0043 0
M  V30 9519 C 896.196 0.980348 1.29973 0
M  V30 9520 O 897.385 1.25691 1.26744 0
M  V30 9521 C 894.485 2.45514 2.33615 0
M  V30 9522 C 893.658 3.76378 2.22842 0
M  V30 9523 C 892.717 4.02606 3.38814 0
M  V30 9524 O 891.743 4.73108 3.16477 0
M  V30 9525 N 892.945 3.51416 4.62047 0
M  V30 9526 H 895.71 2.93811 0.591206 0
M  V30 9527 H 893.271 1.60947 0.175427 0
M  V30 9528 H 895.263 2.60166 3.09993 0
M  V30 9529 H 893.833 1.63186 2.66625 0
M  V30 9530 H 893.053 3.71691 1.313 0
M  V30 9531 H 894.341 4.62149 2.12829 0
M  V30 9532 H 893.739 2.94346 4.83091 0
M  V30 9533 H 892.296 3.71377 5.35651 0
M  V30 9534 N 895.729 -0.261212 1.5542 0
M  V30 9535 C 896.661 -1.34571 1.85535 0
M  V30 9536 C 897.674 -1.44979 0.740612 0
M  V30 9537 O 898.863 -1.46584 1.01859 0
M  V30 9538 C 895.963 -2.7258 2.01378 0
M  V30 9539 C 895.136 -2.84618 3.32131 0
M  V30 9540 C 894.195 -4.03379 3.37893 0
M  V30 9541 O 893.221 -3.93581 4.11197 0
M  V30 9542 N 894.423 -5.15893 2.66148 0
M  V30 9543 H 897.188 -1.09078 2.79145 0
M  V30 9544 H 894.749 -0.451327 1.55482 0
M  V30 9545 H 896.741 -3.50342 2.0259 0
M  V30 9546 H 895.311 -2.90844 1.14579 0
M  V30 9547 H 894.531 -1.93647 3.43358 0
M  V30 9548 H 895.819 -2.896 4.18341 0
M  V30 9549 H 895.217 -5.26743 2.06297 0
M  V30 9550 H 893.774 -5.91842 2.73069 0
M  V30 9551 N 897.207 -1.48554 -0.526253 0
M  V30 9552 C 898.455 -1.56452 -1.27935 0
M  V30 9553 C 898.776 -0.24184 -1.93495 0
M  V30 9554 O 898.046 0.736917 -1.81511 0
M  V30 9555 H 896.626 -0.576379 -0.47518 0
M  V30 9556 H 899.288 -1.85039 -0.612083 0
M  V30 9557 H 898.384 -2.34751 -2.05666 0
M  V30 9558 N 898.685 0.775411 -1.37205 0
M  V30 9559 C 899.91 1.5696 -1.35567 0
M  V30 9560 C 900.335 1.88012 0.0575554 0
M  V30 9561 O 899.693 1.48954 1.03355 0
M  V30 9562 C 899.741 2.85886 -2.19776 0
M  V30 9563 O 898.845 3.80103 -1.59987 0
M  V30 9564 H 898.186 0.475583 -0.463375 0
M  V30 9565 H 900.716 0.96001 -1.80679 0
M  V30 9566 H 900.726 3.35024 -2.32859 0
M  V30 9567 H 899.401 2.62613 -3.22502 0
M  V30 9568 H 897.978 3.38736 -1.55924 0
M  V30 9569 N 900.163 1.21714 1.00117 0
M  V30 9570 C 901.391 1.06278 1.77518 0
M  V30 9571 C 901.806 -0.387193 1.84787 0
M  V30 9572 O 901.163 -1.26854 1.31203 0
M  V30 9573 C 901.214 1.65795 3.21239 0
M  V30 9574 O 900.935 3.05119 3.14378 0
M  V30 9575 C 902.436 1.55521 4.15124 0
M  V30 9576 H 899.656 0.373013 0.557765 0
M  V30 9577 H 902.2 1.61133 1.25922 0
M  V30 9578 H 900.355 1.15022 3.69931 0
M  V30 9579 H 900.769 3.33643 4.04701 0
M  V30 9580 H 902.243 2.01902 5.13751 0
M  V30 9581 H 902.72 0.510307 4.36225 0
M  V30 9582 H 903.326 2.0556 3.72324 0
M  V30 9583 N 901.641 -1.19671 1.02551 0
M  V30 9584 C 902.89 -1.88591 0.715272 0
M  V30 9585 C 903.203 -1.80274 -0.758982 0
M  V30 9586 O 904.409 -2.44413 -1.18213 0
M  V30 9587 C 902.865 -3.38264 1.22905 0
M  V30 9588 C 902.473 -3.55146 2.73084 0
M  V30 9589 C 904.217 -4.12683 0.994649 0
M  V30 9590 C 902.124 -4.98693 3.17897 0
M  V30 9591 H 901.054 -0.706326 0.263857 0
M  V30 9592 H 903.705 -1.35322 1.23936 0
M  V30 9593 H 902.087 -3.9091 0.632892 0
M  V30 9594 H 903.261 -3.12845 3.38326 0
M  V30 9595 H 901.576 -2.94112 2.94766 0
M  V30 9596 H 904.173 -5.18536 1.30478 0
M  V30 9597 H 904.516 -4.16243 -0.0686466 0
M  V30 9598 H 905.049 -3.66164 1.55464 0
M  V30 9599 H 901.788 -5.00293 4.23542 0
M  V30 9600 H 901.308 -5.4177 2.57381 0
M  V30 9601 H 902.987 -5.67327 3.11045 0
M  V30 9602 N 903.119 -0.802921 -1.35613 0
M  V30 9603 C 904.082 -0.216422 -2.28176 0
M  V30 9604 C 905.082 0.594101 -1.49422 0
M  V30 9605 O 906.272 0.41312 -1.6923 0
M  V30 9606 C 903.404 0.698746 -3.33662 0
M  V30 9607 H 904.597 -1.03276 -2.81557 0
M  V30 9608 H 902.15 -0.573307 -1.45406 0
M  V30 9609 H 902.885 1.53891 -2.85461 0
M  V30 9610 H 902.67 0.119314 -3.91918 0
M  V30 9611 H 904.16 1.10354 -4.02755 0
M  V30 9612 N 904.597 1.47463 -0.556102 0
M  V30 9613 C 906.008 1.86298 -0.122429 0
M  V30 9614 C 906.359 1.46285 1.30749 0
M  V30 9615 O 905.484 0.865405 1.98342 0
M  V30 9616 C 906.079 3.38115 -0.215407 0
M  V30 9617 C 904.638 3.76046 0.163223 0
M  V30 9618 C 903.785 2.71515 -0.563466 0
M  V30 9619 H 906.736 1.38996 -0.765888 0
M  V30 9620 H 906.757 3.76263 0.566271 0
M  V30 9621 H 906.269 3.67207 -1.25622 0
M  V30 9622 H 904.37 3.5257 1.20519 0
M  V30 9623 H 904.483 4.78705 -0.194568 0
M  V30 9624 H 902.847 2.54699 -0.00667879 0
M  V30 9625 H 903.63 3.03449 -1.60542 0
M  V30 9626 N 906.075 0.2925 1.54862 0
M  V30 9627 C 907.491 -0.0611461 1.59483 0
M  V30 9628 C 907.691 -1.53141 1.30958 0
M  V30 9629 O 906.747 -2.28291 1.07887 0
M  V30 9630 C 908.06 0.329143 2.98893 0
M  V30 9631 C 909.608 0.2772 3.1177 0
M  V30 9632 C 910.083 0.642185 4.53475 0
M  V30 9633 N 911.574 0.594396 4.5937 0
M  V30 9634 C 912.309 0.849385 5.67074 0
M  V30 9635 N 911.805 1.1699 6.82851 0
M  V30 9636 N 913.598 0.777016 5.56704 0
M  V30 9637 H 905.749 1.25079 1.71665 0
M  V30 9638 H 908.012 0.506516 0.80134 0
M  V30 9639 H 907.718 1.35233 3.24661 0
M  V30 9640 H 907.592 -0.321442 3.75828 0
M  V30 9641 H 909.979 -0.736725 2.85756 0
M  V30 9642 H 910.06 0.962289 2.3701 0
M  V30 9643 H 909.704 1.65388 4.80218 0
M  V30 9644 H 909.634 -0.0648831 5.2656 0
M  V30 9645 H 912.125 0.357256 3.76208 0
M  V30 9646 H 912.438 1.35067 7.60905 0
M  V30 9647 H 910.783 1.20785 6.84424 0
M  V30 9648 H 913.974 0.526333 4.65132 0
M  V30 9649 H 914.147 0.979113 6.4056 0
M  V30 9650 N 907.553 -1.57587 0.0200696 0
M  V30 9651 C 908.516 -2.08595 -0.949767 0
M  V30 9652 C 909.516 -0.999215 -1.25985 0
M  V30 9653 O 910.706 -1.26115 -1.2017 0
M  V30 9654 C 907.838 -2.54424 -2.26895 0
M  V30 9655 H 909.031 -2.95563 -0.508161 0
M  V30 9656 H 906.584 -1.54631 -0.227798 0
M  V30 9657 H 907.319 -1.70758 -2.75703 0
M  V30 9658 H 907.104 -3.3381 -2.05702 0
M  V30 9659 H 908.594 -2.94144 -2.96427 0
M  V30 9660 N 909.032 0.252966 -1.55557 0
M  V30 9661 C 909.962 1.31691 -1.9282 0
M  V30 9662 C 910.943 1.50516 -0.7924 0
M  V30 9663 O 912.128 1.63225 -1.05219 0
M  V30 9664 C 909.258 2.67281 -2.21762 0
M  V30 9665 C 908.212 2.6316 -3.37536 0
M  V30 9666 C 907.538 4.02488 -3.52005 0
M  V30 9667 C 908.838 2.20675 -4.73392 0
M  V30 9668 H 910.532 1.00751 -2.81939 0
M  V30 9669 H 908.078 0.483219 -1.3565 0
M  V30 9670 H 910.031 3.41842 -2.46419 0
M  V30 9671 H 908.755 2.99845 -1.29463 0
M  V30 9672 H 907.414 1.91057 -3.12878 0
M  V30 9673 H 907.062 4.32307 -2.57137 0
M  V30 9674 H 906.762 4.00621 -4.29857 0
M  V30 9675 H 908.286 4.78758 -3.78977 0
M  V30 9676 H 909.7 2.84965 -4.97461 0
M  V30 9677 H 908.097 2.29931 -5.54303 0
M  V30 9678 H 909.167 1.15831 -4.70862 0
M  V30 9679 N 910.51 1.48831 0.518367 0
M  V30 9680 C 911.735 1.61379 1.30275 0
M  V30 9681 C 912.16 0.278571 1.86026 0
M  V30 9682 O 911.518 -0.751427 1.64995 0
M  V30 9683 C 911.566 2.67225 2.42122 0
M  V30 9684 O 910.67 2.25192 3.45489 0
M  V30 9685 H 910.011 0.540742 0.385349 0
M  V30 9686 H 912.541 1.949 0.622498 0
M  V30 9687 H 912.551 2.88859 2.8814 0
M  V30 9688 H 911.226 3.64155 2.00907 0
M  V30 9689 H 909.803 2.13819 3.05509 0
M  V30 9690 N 911.988 -0.768124 1.37614 0
M  V30 9691 C 913.216 -1.55726 1.36224 0
M  V30 9692 C 913.631 -1.8873 -0.0515357 0
M  V30 9693 O 912.988 -1.51718 -1.0143 0
M  V30 9694 C 913.039 -2.86533 2.20412 0
M  V30 9695 O 912.76 -2.54942 3.56281 0
M  V30 9696 C 914.261 -3.80745 2.27041 0
M  V30 9697 H 911.481 -0.482325 0.46648 0
M  V30 9698 H 914.025 -0.95176 1.81002 0
M  V30 9699 H 912.18 -3.43496 1.79134 0
M  V30 9700 H 912.594 -3.38732 4.00451 0
M  V30 9701 H 914.068 -4.69523 2.90263 0
M  V30 9702 H 914.545 -4.20138 1.27987 0
M  V30 9703 H 915.151 -3.2971 2.68647 0
M  V30 9704 N 913.466 -1.22244 -0.994698 0
M  V30 9705 C 914.882 -0.982006 -1.25813 0
M  V30 9706 C 915.082 0.325488 -1.98854 0
M  V30 9707 O 914.138 1.04857 -2.29698 0
M  V30 9708 C 915.451 -2.1795 -2.07167 0
M  V30 9709 C 916.999 -2.22287 -2.20358 0
M  V30 9710 C 917.474 -3.41583 -3.05098 0
M  V30 9711 N 918.965 -3.41734 -3.12686 0
M  V30 9712 C 919.7 -4.30692 -3.78539 0
M  V30 9713 N 919.196 -5.29865 -4.46335 0
M  V30 9714 N 920.989 -4.18473 -3.75283 0
M  V30 9715 H 913.14 -2.0631 -0.504963 0
M  V30 9716 H 915.403 -0.90395 -0.285618 0
M  V30 9717 H 915.109 -3.12758 -1.60858 0
M  V30 9718 H 914.983 -2.17862 -3.07922 0
M  V30 9719 H 917.37 -1.28028 -2.65881 0
M  V30 9720 H 917.451 -2.26414 -1.19039 0
M  V30 9721 H 917.095 -4.36141 -2.60275 0
M  V30 9722 H 917.025 -3.34695 -4.06555 0
M  V30 9723 H 919.516 -2.69969 -2.64433 0
M  V30 9724 H 919.829 -5.94027 -4.9432 0
M  V30 9725 H 918.174 -5.3378 -4.45089 0
M  V30 9726 H 921.365 -3.40249 -3.21478 0
M  V30 9727 H 921.538 -4.88007 -4.26326 0
M  V30 9728 N 914.944 1.19125 -1.03184 0
M  V30 9729 C 916.184 1.90582 -0.738785 0
M  V30 9730 C 916.548 1.78004 0.719627 0
M  V30 9731 O 917.749 2.44084 1.12589 0
M  V30 9732 C 916.02 3.37319 -1.18114 0
M  V30 9733 S 917.579 4.26962 -1.01238 0
M  V30 9734 H 914.397 0.6582 -0.268875 0
M  V30 9735 H 916.999 1.43999 -1.32229 0
M  V30 9736 H 915.703 3.43999 -2.23814 0
M  V30 9737 H 915.234 3.88935 -0.591051 0
M  V30 9738 H 917.249 4.96143 0.0753558 0
M  V30 9739 N 916.422 0.810101 1.35185 0
M  V30 9740 C 917.668 0.392698 1.98962 0
M  V30 9741 C 918.001 -1.03835 1.64109 0
M  V30 9742 O 917.276 -1.721 0.9062 0
M  V30 9743 C 917.559 0.580349 3.55393 0
M  V30 9744 C 917.412 2.05658 4.00031 0
M  V30 9745 C 918.731 0.00822618 4.40099 0
M  V30 9746 H 915.85 0.144157 0.722764 0
M  V30 9747 H 918.492 1.02029 1.60281 0
M  V30 9748 H 916.642 0.0461106 3.88473 0
M  V30 9749 H 918.314 2.65348 3.77344 0
M  V30 9750 H 916.557 2.55174 3.50811 0
M  V30 9751 H 917.228 2.13875 5.08883 0
M  V30 9752 H 919.704 0.464517 4.13499 0
M  V30 9753 H 918.58 0.169414 5.48638 0
M  V30 9754 H 918.841 -1.08576 4.2856 0
M  V30 9755 N 917.9 -1.47166 0.563914 0
M  V30 9756 C 919.125 -2.0735 0.0454698 0
M  V30 9757 C 919.55 -1.41281 -1.24182 0
M  V30 9758 O 918.908 -0.490084 -1.7455 0
M  V30 9759 C 918.956 -3.60378 -0.126453 0
M  V30 9760 O 918.06 -3.94934 -1.18746 0
M  V30 9761 H 917.401 -0.661773 0.0543377 0
M  V30 9762 H 919.931 -1.89086 0.781508 0
M  V30 9763 H 919.941 -4.06593 -0.338554 0
M  V30 9764 H 918.616 -4.07862 0.81373 0
M  V30 9765 H 917.193 -3.60455 -0.955318 0
M  V30 9766 N 919.378 -0.300708 -1.54705 0
M  V30 9767 C 920.626 0.308044 -1.99739 0
M  V30 9768 C 920.947 1.54433 -1.19061 0
M  V30 9769 O 920.217 1.93794 -0.286507 0
M  V30 9770 H 918.797 0.116811 -0.73781 0
M  V30 9771 H 921.459 -0.41197 -1.90496 0
M  V30 9772 H 920.555 0.580287 -3.06658 0
M  V30 9773 N 920.856 1.57574 -0.0284266 0
M  V30 9774 C 922.102 1.92056 0.651327 0
M  V30 9775 C 922.435 0.905092 1.71819 0
M  V30 9776 O 921.71 -0.0722703 1.94366 0
M  V30 9777 C 921.993 3.37021 1.26841 0
M  V30 9778 C 921.846 4.49304 0.211157 0
M  V30 9779 C 923.165 3.81936 2.18662 0
M  V30 9780 H 920.284 0.698428 0.235304 0
M  V30 9781 H 922.926 1.89807 -0.0855435 0
M  V30 9782 H 921.076 3.39068 1.89644 0
M  V30 9783 H 922.748 4.5939 -0.419379 0
M  V30 9784 H 920.991 4.31317 -0.463445 0
M  V30 9785 H 921.662 5.47764 0.682518 0
M  V30 9786 H 924.138 3.8162 1.65847 0
M  V30 9787 H 923.014 4.84064 2.58792 0
M  V30 9788 H 923.275 3.174 3.07749 0
M  V30 9789 N 922.334 -0.244713 1.55689 0
M  V30 9790 C 923.58 -0.969623 1.78801 0
M  V30 9791 C 923.935 -1.8288 0.597716 0
M  V30 9792 O 923.228 -1.87184 -0.408978 0
M  V30 9793 C 923.422 -1.8617 3.05083 0
M  V30 9794 C 923.251 -1.09036 4.36281 0
M  V30 9795 C 922.021 -0.794585 4.99013 0
M  V30 9796 C 924.219 -0.466883 5.12176 0
M  V30 9797 N 922.201 0.000579944 6.139 0
M  V30 9798 C 923.572 0.192755 6.197 0
M  V30 9799 C 925.627 -0.377571 4.96466 0
M  V30 9800 C 924.33 0.933132 7.13222 0
M  V30 9801 C 926.356 0.349281 5.90368 0
M  V30 9802 C 925.718 0.997549 6.97301 0
M  V30 9803 H 921.817 -0.335845 0.70621 0
M  V30 9804 H 924.401 -0.242559 1.93183 0
M  V30 9805 H 922.572 -2.56077 2.92026 0
M  V30 9806 H 924.304 -2.52234 3.16481 0
M  V30 9807 H 921.059 -1.10691 4.60483 0
M  V30 9808 H 921.483 0.38632 6.75897 0
M  V30 9809 H 926.125 -0.86443 4.13869 0
M  V30 9810 H 923.843 1.43159 7.95318 0
M  V30 9811 H 927.429 0.419082 5.80289 0
M  V30 9812 H 926.309 1.551 7.68709 0
M  V30 9813 N 923.813 -1.49104 -0.510467 0
M  V30 9814 C 925.059 -1.59322 -1.26444 0
M  V30 9815 C 925.414 -0.27219 -1.90465 0
M  V30 9816 O 924.707 0.726762 -1.77281 0
M  V30 9817 C 924.901 -2.68259 -2.36161 0
M  V30 9818 C 924.73 -4.10827 -1.82897 0
M  V30 9819 C 923.5 -4.77732 -1.64623 0
M  V30 9820 C 925.698 -4.96367 -1.34625 0
M  V30 9821 N 923.68 -6.04646 -1.06189 0
M  V30 9822 C 925.051 -6.13685 -0.882656 0
M  V30 9823 C 927.106 -4.8244 -1.2311 0
M  V30 9824 C 925.809 -7.18609 -0.315306 0
M  V30 9825 C 927.835 -5.87504 -0.677726 0
M  V30 9826 C 927.197 -7.04043 -0.224308 0
M  V30 9827 H 923.296 -0.637429 -0.453 0
M  V30 9828 H 925.88 -1.8607 -0.573237 0
M  V30 9829 H 924.051 -2.433 -3.02753 0
M  V30 9830 H 925.783 -2.68052 -3.032 0
M  V30 9831 H 922.538 -4.34377 -1.88716 0
M  V30 9832 H 922.962 -6.72383 -0.78927 0
M  V30 9833 H 927.604 -3.92663 -1.56766 0
M  V30 9834 H 925.322 -8.08093 0.0335425 0
M  V30 9835 H 928.908 -5.78785 -0.591535 0
M  V30 9836 H 927.788 -7.83952 0.197212 0
M  V30 9837 N 925.291 0.760815 -1.38019 0
M  V30 9838 C 926.254 1.85604 -1.34476 0
M  V30 9839 C 927.254 1.58897 -0.24666 0
M  V30 9840 O 928.444 1.66776 -0.50314 0
M  V30 9841 C 925.576 3.22945 -1.09176 0
M  V30 9842 H 926.769 1.90155 -2.31908 0
M  V30 9843 H 924.322 0.961746 -1.23208 0
M  V30 9844 H 925.057 3.24066 -0.123216 0
M  V30 9845 H 924.842 3.43723 -1.88672 0
M  V30 9846 H 926.332 4.03022 -1.09375 0
M  V30 9847 N 926.769 1.22769 0.988202 0
M  V30 9848 C 928.016 1.05509 1.72841 0
M  V30 9849 C 928.344 -0.409145 1.90148 0
M  V30 9850 O 927.599 -1.3195 1.44526 0
M  V30 9851 C 927.898 1.71679 3.13466 0
M  V30 9852 C 927.564 3.21584 3.16061 0
M  V30 9853 C 926.226 3.62486 3.16476 0
M  V30 9854 C 928.578 4.17511 3.11984 0
M  V30 9855 C 925.906 4.97789 3.10521 0
M  V30 9856 C 928.258 5.52796 3.0757 0
M  V30 9857 C 926.922 5.93072 3.06304 0
M  V30 9858 H 926.192 0.386085 0.632471 0
M  V30 9859 H 928.839 1.52596 1.157 0
M  V30 9860 H 927.144 1.1693 3.73945 0
M  V30 9861 H 928.841 1.55809 3.69492 0
M  V30 9862 H 925.431 2.89019 3.1649 0
M  V30 9863 H 929.615 3.86926 3.10809 0
M  V30 9864 H 924.871 5.28218 3.07888 0
M  V30 9865 H 929.045 6.26848 3.03372 0
M  V30 9866 H 926.672 6.97879 3.01444 0
M  V30 9867 N 928.247 -1.18576 1.03814 0
M  V30 9868 C 929.475 -1.92437 0.759966 0
M  V30 9869 C 929.89 -1.76031 -0.682526 0
M  V30 9870 O 929.247 -1.08829 -1.46501 0
M  V30 9871 C 929.298 -3.43923 1.11351 0
M  V30 9872 O 929.019 -3.5981 2.49937 0
M  V30 9873 C 930.52 -4.34888 0.859472 0
M  V30 9874 H 927.74 -0.610998 0.277349 0
M  V30 9875 H 930.284 -1.50448 1.38512 0
M  V30 9876 H 928.439 -3.83711 0.533362 0
M  V30 9877 H 928.853 -4.53569 2.63393 0
M  V30 9878 H 930.327 -5.39744 1.15672 0
M  V30 9879 H 930.804 -4.38717 -0.205839 0
M  V30 9880 H 931.41 -4.00795 1.42279 0
M  V30 9881 N 929.725 -0.817259 -1.34754 0
M  V30 9882 C 930.655 -0.249769 -2.3216 0
M  V30 9883 C 931.636 0.630663 -1.57977 0
M  V30 9884 O 932.821 0.558719 -1.85989 0
M  V30 9885 C 929.951 0.593825 -3.42186 0
M  V30 9886 C 928.905 -0.188997 -4.27583 0
M  V30 9887 C 928.231 0.776979 -5.29025 0
M  V30 9888 C 929.531 -1.39401 -5.03354 0
M  V30 9889 H 931.225 -1.06359 -2.79872 0
M  V30 9890 H 928.771 -0.512894 -1.34556 0
M  V30 9891 H 930.724 1.00097 -4.09339 0
M  V30 9892 H 929.448 1.44064 -2.93109 0
M  V30 9893 H 928.107 -0.577445 -3.62024 0
M  V30 9894 H 927.755 1.61959 -4.76212 0
M  V30 9895 H 927.455 0.257448 -5.87036 0
M  V30 9896 H 928.979 1.18211 -5.99048 0
M  V30 9897 H 930.393 -1.06117 -5.63393 0
M  V30 9898 H 928.79 -1.84878 -5.70912 0
M  V30 9899 H 929.86 -2.17515 -4.33377 0
M  V30 9900 N 931.203 1.46865 -0.571711 0
M  V30 9901 C 932.452 2.01636 -0.050881 0
M  V30 9902 C 932.765 1.45001 1.31279 0
M  V30 9903 O 933.971 1.91523 1.92435 0
M  V30 9904 C 932.427 3.59877 -0.0404114 0
M  V30 9905 C 932.035 4.25506 -1.40172 0
M  V30 9906 C 933.779 4.22346 0.42705 0
M  V30 9907 C 931.686 5.75795 -1.34958 0
M  V30 9908 H 930.616 0.753846 -0.0152514 0
M  V30 9909 H 933.267 1.68711 -0.721723 0
M  V30 9910 H 931.649 3.89829 0.696374 0
M  V30 9911 H 932.823 4.07178 -2.15737 0
M  V30 9912 H 931.138 3.75086 -1.8083 0
M  V30 9913 H 933.735 5.32499 0.484688 0
M  V30 9914 H 934.078 3.9052 1.44222 0
M  V30 9915 H 934.611 3.9698 -0.255326 0
M  V30 9916 H 931.35 6.12265 -2.3412 0
M  V30 9917 H 930.87 5.96419 -0.635962 0
M  V30 9918 H 932.549 6.38294 -1.05779 0
M  V30 9919 N 932.681 0.308908 1.54543 0
M  V30 9920 C 933.93 -0.298854 1.99474 0
M  V30 9921 C 934.243 -1.54393 1.20093 0
M  V30 9922 O 935.449 -2.22677 1.55329 0
M  V30 9923 C 933.905 -0.58303 3.55146 0
M  V30 9924 C 933.513 0.644157 4.43345 0
M  V30 9925 C 935.257 -1.15155 4.08582 0
M  V30 9926 C 933.164 0.332694 5.90463 0
M  V30 9927 H 932.094 -0.115445 0.74511 0
M  V30 9928 H 934.745 0.418848 1.78656 0
M  V30 9929 H 933.127 -1.36053 3.71894 0
M  V30 9930 H 934.301 1.42012 4.38371 0
M  V30 9931 H 932.616 1.13186 4.00722 0
M  V30 9932 H 935.213 -1.39896 5.16075 0
M  V30 9933 H 935.556 -2.09632 3.59667 0
M  V30 9934 H 936.089 -0.435571 3.95408 0
M  V30 9935 H 932.828 1.24624 6.43544 0
M  V30 9936 H 932.348 -0.405844 5.98425 0
M  V30 9937 H 934.027 -0.0628545 6.46969 0
M  V30 9938 N 934.159 -1.57557 0.0367827 0
M  V30 9939 C 935.408 -1.91291 -0.639569 0
M  V30 9940 C 935.721 -0.915601 -1.72847 0
M  V30 9941 O 936.927 -1.14447 -2.46199 0
M  V30 9942 C 935.383 -3.39697 -1.18888 0
M  V30 9943 C 934.991 -4.47803 -0.132851 0
M  V30 9944 C 936.735 -3.82487 -1.8413 0
M  V30 9945 C 934.642 -5.87311 -0.694229 0
M  V30 9946 H 933.572 -0.713886 -0.242658 0
M  V30 9947 H 936.223 -1.83209 0.103332 0
M  V30 9948 H 934.605 -3.42736 -1.98363 0
M  V30 9949 H 935.779 -4.56334 0.640009 0
M  V30 9950 H 934.094 -4.14264 0.421264 0
M  V30 9951 H 936.691 -4.84076 -2.27101 0
M  V30 9952 H 937.034 -3.17959 -2.68716 0
M  V30 9953 H 937.567 -3.81903 -1.11332 0
M  V30 9954 H 934.306 -6.55401 0.113667 0
M  V30 9955 H 933.826 -5.82371 -1.4354 0
M  V30 9956 H 935.505 -6.36119 -1.1816 0
M  V30 9957 N 935.637 0.236453 -1.55816 0
M  V30 9958 C 936.862 0.98449 -1.82545 0
M  V30 9959 C 937.287 1.77755 -0.615206 0
M  V30 9960 O 936.645 1.75982 0.435895 0
M  V30 9961 C 936.693 1.88973 -3.07118 0
M  V30 9962 O 935.797 2.98298 -2.84766 0
M  V30 9963 H 935.138 0.279577 -0.602273 0
M  V30 9964 H 937.668 0.254277 -2.03014 0
M  V30 9965 H 937.678 2.3024 -3.36829 0
M  V30 9966 H 936.353 1.30671 -3.94839 0
M  V30 9967 H 934.93 2.61085 -2.6625 0
M  V30 9968 N 937.115 1.49373 0.502552 0
M  V30 9969 C 938.34 1.62752 1.28556 0
M  V30 9970 C 938.765 0.298285 1.8572 0
M  V30 9971 O 938.123 -0.733885 1.65782 0
M  V30 9972 C 938.171 2.69778 2.39274 0
M  V30 9973 O 937.275 2.28843 3.43081 0
M  V30 9974 H 936.616 0.544799 0.379592 0
M  V30 9975 H 939.146 1.9555 0.601792 0
M  V30 9976 H 939.156 2.91899 2.8506 0
M  V30 9977 H 937.831 3.66266 1.97033 0
M  V30 9978 H 936.408 2.17047 3.03224 0
M  V30 9979 N 938.594 -0.753485 1.38421 0
M  V30 9980 C 939.824 -1.54049 1.37669 0
M  V30 9981 C 940.232 -1.89167 -0.0353656 0
M  V30 9982 O 939.575 -1.53285 -1.01239 0
M  V30 9983 C 939.637 -2.86777 2.16793 0
M  V30 9984 C 939.301 -2.74196 3.65603 0
M  V30 9985 C 940.298 -2.43985 4.59094 0
M  V30 9986 C 937.983 -2.91645 4.0896 0
M  V30 9987 C 939.977 -2.31379 5.93921 0
M  V30 9988 C 937.664 -2.78658 5.43868 0
M  V30 9989 C 938.662 -2.48568 6.36163 0
M  V30 9990 O 938.35 -2.3564 7.68589 0
M  V30 9991 H 938.082 -0.483276 0.472673 0
M  V30 9992 H 940.636 -0.940267 1.82615 0
M  V30 9993 H 938.866 -3.48988 1.66565 0
M  V30 9994 H 940.555 -3.48289 2.08446 0
M  V30 9995 H 941.321 -2.30172 4.26902 0
M  V30 9996 H 937.2 -3.14063 3.37469 0
M  V30 9997 H 940.744 -2.07813 6.65927 0
M  V30 9998 H 936.641 -2.92044 5.75656 0
M  V30 9999 H 937.409 -2.50851 7.79112 0
M  V30 10000 N 940.072 -1.23292 -0.981677 0
M  V30 10001 C 941.3 -1.09088 -1.75805 0
M  V30 10002 C 941.715 0.357746 -1.8538 0
M  V30 10003 O 941.072 1.24751 -1.33205 0
M  V30 10004 C 941.123 -1.70885 -3.1856 0
M  V30 10005 O 940.844 -3.10082 -3.09484 0
M  V30 10006 C 942.345 -1.62106 -4.12597 0
M  V30 10007 H 939.565 -0.38184 -0.55176 0
M  V30 10008 H 942.109 -1.63116 -1.23342 0
M  V30 10009 H 940.264 -1.20893 -3.68054 0
M  V30 10010 H 940.678 -3.40039 -3.99342 0
M  V30 10011 H 942.152 -2.10049 -5.10474 0
M  V30 10012 H 942.629 -0.579642 -4.35358 0
M  V30 10013 H 943.235 -2.11457 -3.69007 0
M  V30 10014 N 941.55 1.18024 -1.04442 0
M  V30 10015 C 942.513 2.19992 -0.643136 0
M  V30 10016 C 943.513 1.57949 0.301444 0
M  V30 10017 O 944.703 1.73986 0.0863341 0
M  V30 10018 C 941.835 3.40853 0.0565208 0
M  V30 10019 H 943.028 2.57008 -1.54554 0
M  V30 10020 H 940.581 1.31974 -0.837408 0
M  V30 10021 H 941.316 3.09373 0.972553 0
M  V30 10022 H 941.101 3.87128 -0.622439 0
M  V30 10023 H 942.591 4.16344 0.323652 0
M  V30 10024 N 943.028 0.824394 1.34319 0
M  V30 10025 C 943.976 0.235628 2.31403 0
M  V30 10026 C 944.97 -0.624443 1.57471 0
M  V30 10027 O 946.176 -0.515618 1.72457 0
M  V30 10028 H 942.551 0.0574537 0.749802 0
M  V30 10029 H 944.522 1.06925 2.78585 0
M  V30 10030 C 943.271 -0.586617 3.42716 0
M  V30 10031 H 942.594 0.0658669 3.99746 0
M  V30 10032 H 944.034 -0.964661 4.1288 0
M  V30 10033 C 942.493 -1.75957 2.87299 0
M  V30 10034 O 943.023 -2.8578 2.82299 0
M  V30 10035 N 941.229 -1.57678 2.44102 0
M  V30 10036 H 940.776 -0.683436 2.48369 0
M  V30 10037 H 940.734 -2.36311 2.07375 0
M  V30 10038 N 944.506 -1.46559 0.579492 0
M  V30 10039 C 945.436 -2.33059 -0.143437 0
M  V30 10040 C 946.417 -1.4515 -0.886868 0
M  V30 10041 O 947.602 -1.73973 -0.862961 0
M  V30 10042 C 944.732 -3.27364 -1.15973 0
M  V30 10043 C 943.686 -4.24689 -0.531348 0
M  V30 10044 C 943.012 -5.08479 -1.65388 0
M  V30 10045 C 944.312 -5.1961 0.529391 0
M  V30 10046 H 946.006 -2.93753 0.578762 0
M  V30 10047 H 943.552 -1.41256 0.279775 0
M  V30 10048 H 945.505 -3.86732 -1.67382 0
M  V30 10049 H 944.229 -2.64771 -1.91217 0
M  V30 10050 H 942.888 -3.6658 -0.0383749 0
M  V30 10051 H 942.536 -4.42273 -2.3959 0
M  V30 10052 H 942.236 -5.74387 -1.23909 0
M  V30 10053 H 943.76 -5.70709 -2.17079 0
M  V30 10054 H 945.174 -5.73212 0.100506 0
M  V30 10055 H 943.571 -5.93843 0.86432 0
M  V30 10056 H 944.641 -4.63737 1.4169 0
M  V30 10057 N 945.984 -0.3171 -1.54377 0
M  V30 10058 C 946.947 0.53905 -2.22771 0
M  V30 10059 C 947.947 1.04865 -1.21901 0
M  V30 10060 O 949.137 0.942108 -1.46526 0
M  V30 10061 C 946.269 1.74804 -2.92671 0
M  V30 10062 H 947.462 -0.0587417 -2.99842 0
M  V30 10063 H 945.015 -0.068107 -1.56152 0
M  V30 10064 H 945.75 2.38524 -2.1972 0
M  V30 10065 H 945.535 1.39011 -3.66631 0
M  V30 10066 H 947.025 2.35592 -3.44799 0
M  V30 10067 N 947.462 1.57535 -0.0451378 0
M  V30 10068 C 948.425 2.1008 0.916461 0
M  V30 10069 C 949.425 1.01913 1.2438 0
M  V30 10070 O 950.615 1.2801 1.18148 0
M  V30 10071 C 947.747 2.58001 2.22818 0
M  V30 10072 H 948.94 2.96334 0.461076 0
M  V30 10073 H 946.493 1.54974 0.203169 0
M  V30 10074 H 947.228 1.75123 2.72951 0
M  V30 10075 H 947.013 3.3704 2.00366 0
M  V30 10076 H 948.503 2.98822 2.9171 0
M  V30 10077 N 948.94 -0.228186 1.55939 0
M  V30 10078 C 950.187 -0.953552 1.78644 0
M  V30 10079 C 950.515 -1.84596 0.61275 0
M  V30 10080 O 949.77 -1.91502 -0.403175 0
M  V30 10081 C 950.069 -1.82924 3.0704 0
M  V30 10082 C 949.735 -1.09062 4.37511 0
M  V30 10083 C 948.397 -0.886565 4.72962 0
M  V30 10084 C 950.749 -0.568533 5.1809 0
M  V30 10085 C 948.077 -0.148413 5.86512 0
M  V30 10086 C 950.429 0.156243 6.32407 0
M  V30 10087 C 949.093 0.371612 6.66465 0
M  V30 10088 H 948.363 -0.348929 0.653704 0
M  V30 10089 H 951.01 -0.222211 1.90206 0
M  V30 10090 H 949.315 -2.62823 2.90571 0
M  V30 10091 H 951.012 -2.3925 3.21808 0
M  V30 10092 H 947.602 -1.25963 4.09672 0
M  V30 10093 H 951.786 -0.713673 4.91142 0
M  V30 10094 H 947.042 0.0287418 6.11393 0
M  V30 10095 H 951.216 0.568333 6.94077 0
M  V30 10096 H 948.843 0.945522 7.54297 0
M  V30 10097 N 950.418 -1.49637 -0.494624 0
M  V30 10098 C 951.348 -1.69692 -1.60396 0
M  V30 10099 C 952.329 -0.545648 -1.61111 0
M  V30 10100 O 953.514 -0.782202 -1.77751 0
M  V30 10101 C 950.644 -1.76934 -2.9885 0
M  V30 10102 C 949.598 -2.91915 -3.13001 0
M  V30 10103 C 948.924 -2.84276 -4.5287 0
M  V30 10104 C 950.224 -4.32764 -2.92426 0
M  V30 10105 H 951.918 -2.6257 -1.43866 0
M  V30 10106 H 949.464 -1.26355 -0.690679 0
M  V30 10107 H 951.417 -1.8955 -3.76362 0
M  V30 10108 H 950.141 -0.806609 -3.16483 0
M  V30 10109 H 948.8 -2.78911 -2.37916 0
M  V30 10110 H 948.448 -1.85897 -4.67388 0
M  V30 10111 H 948.148 -3.61452 -4.63278 0
M  V30 10112 H 949.672 -2.98909 -5.32434 0
M  V30 10113 H 951.086 -4.46415 -3.59703 0
M  V30 10114 H 949.483 -5.1121 -3.143 0
M  V30 10115 H 950.553 -4.46765 -1.88491 0
M  V30 10116 N 951.896 0.746133 -1.38819 0
M  V30 10117 C 953.124 1.53539 -1.38685 0
M  V30 10118 C 953.539 1.88788 0.0215039 0
M  V30 10119 O 952.896 1.53312 0.990031 0
M  V30 10120 C 952.947 2.8299 -2.24942 0
M  V30 10121 O 952.668 2.49242 -3.60292 0
M  V30 10122 C 954.169 3.77085 -2.3307 0
M  V30 10123 H 951.389 0.474842 -0.474095 0
M  V30 10124 H 953.933 0.922844 -1.82493 0
M  V30 10125 H 952.088 3.40603 -1.84576 0
M  V30 10126 H 952.502 3.32319 -4.05789 0
M  V30 10127 H 953.976 4.64845 -2.97696 0
M  V30 10128 H 954.453 4.18049 -1.34655 0
M  V30 10129 H 955.059 3.25394 -2.73859 0
M  V30 10130 N 953.375 1.23811 0.975125 0
M  V30 10131 C 954.621 1.07495 1.71967 0
M  V30 10132 C 954.954 -0.386451 1.90316 0
M  V30 10133 O 954.229 -1.28591 1.45927 0
M  V30 10134 C 954.512 1.80694 3.11483 0
M  V30 10135 C 954.365 3.3454 3.00671 0
M  V30 10136 C 955.684 1.57367 4.11003 0
M  V30 10137 H 952.803 0.3919 0.624166 0
M  V30 10138 H 955.445 1.52383 1.13487 0
M  V30 10139 H 953.595 1.42538 3.61407 0
M  V30 10140 H 955.267 3.8225 2.5823 0
M  V30 10141 H 953.51 3.63301 2.37054 0
M  V30 10142 H 954.181 3.80951 3.99475 0
M  V30 10143 H 956.657 1.90545 3.69908 0
M  V30 10144 H 955.533 2.11052 5.06703 0
M  V30 10145 H 955.794 0.510221 4.39146 0
M  V30 10146 N 954.853 -1.17469 1.05066 0
M  V30 10147 C 955.785 -2.20974 0.608526 0
M  V30 10148 C 956.798 -1.59481 -0.327066 0
M  V30 10149 O 957.987 -1.78096 -0.12 0
M  V30 10150 C 955.087 -3.38652 -0.12969 0
M  V30 10151 C 954.26 -4.29716 0.816285 0
M  V30 10152 C 953.319 -5.26064 0.119556 0
M  V30 10153 O 952.345 -5.64194 0.753241 0
M  V30 10154 N 953.547 -5.69126 -1.14347 0
M  V30 10155 H 956.312 -2.59529 1.49882 0
M  V30 10156 H 953.873 -1.32355 0.932406 0
M  V30 10157 H 955.865 -4.00139 -0.605886 0
M  V30 10158 H 954.435 -2.98705 -0.921638 0
M  V30 10159 H 953.655 -3.6568 1.47213 0
M  V30 10160 H 954.943 -4.87449 1.45845 0
M  V30 10161 H 954.341 -5.4022 -1.67866 0
M  V30 10162 H 952.898 -6.32764 -1.56376 0
M  V30 10163 N 956.331 -0.831506 -1.3388 0
M  V30 10164 C 957.747 -0.518349 -1.50948 0
M  V30 10165 C 957.947 0.955807 -1.77388 0
M  V30 10166 O 957.003 1.73993 -1.82983 0
M  V30 10167 C 958.316 -1.38531 -2.66889 0
M  V30 10168 C 959.864 -1.38332 -2.80772 0
M  V30 10169 C 960.339 -2.23497 -3.99766 0
M  V30 10170 N 961.83 -2.21167 -4.06988 0
M  V30 10171 C 962.565 -2.83805 -4.98239 0
M  V30 10172 N 962.061 -3.55468 -5.94655 0
M  V30 10173 N 963.854 -2.73314 -4.91178 0
M  V30 10174 H 956.005 -1.78588 -1.14978 0
M  V30 10175 H 958.268 -0.761508 -0.564633 0
M  V30 10176 H 957.974 -2.43255 -2.54007 0
M  V30 10177 H 957.848 -1.05611 -3.62114 0
M  V30 10178 H 960.235 -0.343832 -2.9309 0
M  V30 10179 H 960.316 -1.75256 -1.86331 0
M  V30 10180 H 959.96 -3.27501 -3.88208 0
M  V30 10181 H 959.89 -1.83919 -4.93438 0
M  V30 10182 H 962.381 -1.69046 -3.37982 0
M  V30 10183 H 962.694 -4.00487 -6.60931 0
M  V30 10184 H 961.039 -3.59575 -5.94753 0
M  V30 10185 H 964.23 -2.16897 -4.14817 0
M  V30 10186 H 964.403 -3.22416 -5.62096 0
M  V30 10187 N 957.809 1.4625 -0.587256 0
M  V30 10188 C 958.742 2.27392 0.191837 0
M  V30 10189 C 959.72 1.35905 0.89267 0
M  V30 10190 O 960.904 1.65319 0.905643 0
M  V30 10191 C 958.031 3.13758 1.27567 0
M  V30 10192 C 957.077 4.21041 0.680186 0
M  V30 10193 S 957.91 5.33194 -0.496419 0
M  V30 10194 C 959.066 6.23127 0.588506 0
M  V30 10195 H 959.299 2.93123 -0.496635 0
M  V30 10196 H 956.832 1.49795 -0.37426 0
M  V30 10197 H 958.79 3.6408 1.8962 0
M  V30 10198 H 957.451 2.47332 1.93612 0
M  V30 10199 H 956.644 4.81316 1.49503 0
M  V30 10200 H 956.246 3.73755 0.135227 0
M  V30 10201 H 958.538 6.61294 1.47298 0
M  V30 10202 H 959.481 7.08096 0.0224093 0
M  V30 10203 H 959.889 5.57365 0.894696 0
M  V30 10204 N 959.287 0.325282 1.54207 0
M  V30 10205 C 960.564 -0.33113 1.92777 0
M  V30 10206 C 960.944 -1.69739 1.25506 0
M  V30 10207 O 960.292 -2.24983 0.399385 0
M  V30 10208 C 960.502 -0.421636 3.46444 0
M  V30 10209 C 961.85 -0.681111 4.19101 0
M  V30 10210 O 962.874 -0.504488 3.52609 0
M  V30 10211 O 961.733 -1.02196 5.3686 0
M  V30 10212 H 958.827 -0.18943 0.805013 0
M  V30 10213 H 961.373 0.375123 1.65502 0
M  V30 10214 H 960.145 0.537862 3.87586 0
M  V30 10215 H 959.768 -1.1754 3.79829 0
M  V30 10216 N 960.765 -1.57509 0.0534917 0
M  V30 10217 C 962.011 -1.93068 -0.62069 0
M  V30 10218 C 962.344 -0.932313 -1.70357 0
M  V30 10219 O 961.619 0.0413393 -1.94456 0
M  V30 10220 C 961.902 -3.38997 -1.21463 0
M  V30 10221 C 961.755 -4.49583 -0.13965 0
M  V30 10222 C 963.074 -3.85366 -2.12558 0
M  V30 10223 H 960.193 -0.702083 -0.224163 0
M  V30 10224 H 962.835 -1.89647 0.115729 0
M  V30 10225 H 960.985 -3.42043 -1.84226 0
M  V30 10226 H 962.657 -4.58664 0.492411 0
M  V30 10227 H 960.9 -4.30525 0.532006 0
M  V30 10228 H 961.571 -5.48781 -0.595287 0
M  V30 10229 H 964.047 -3.8421 -1.59755 0
M  V30 10230 H 962.923 -4.8812 -2.51058 0
M  V30 10231 H 963.184 -3.22256 -3.02661 0
M  V30 10232 N 962.243 0.219913 -1.56058 0
M  V30 10233 C 963.654 0.786766 -1.69313 0
M  V30 10234 C 964.005 1.84916 -0.655782 0
M  V30 10235 O 963.13 2.1554 0.192772 0
M  V30 10236 C 963.725 1.43387 -3.06962 0
M  V30 10237 C 962.284 1.94809 -3.22066 0
M  V30 10238 C 961.431 0.808863 -2.65241 0
M  V30 10239 H 964.382 -0.00476777 -1.58699 0
M  V30 10240 H 964.403 2.30272 -3.02911 0
M  V30 10241 H 963.915 0.660405 -3.8244 0
M  V30 10242 H 962.016 2.74952 -2.5146 0
M  V30 10243 H 962.129 2.12694 -4.293 0
M  V30 10244 H 960.493 1.21661 -2.23765 0
M  V30 10245 H 961.276 0.0480458 -3.43266 0
M  V30 10246 N 963.721 1.49897 0.486681 0
M  V30 10247 C 964.97 1.59349 1.23656 0
M  V30 10248 C 965.283 0.292024 1.93408 0
M  V30 10249 O 966.489 0.265258 2.70201 0
M  V30 10250 C 964.945 2.81215 2.24602 0
M  V30 10251 C 964.553 4.18177 1.60725 0
M  V30 10252 C 966.297 3.00004 3.00329 0
M  V30 10253 C 964.204 5.31247 2.59866 0
M  V30 10254 H 963.134 0.593363 0.465227 0
M  V30 10255 H 965.785 1.76306 0.508769 0
M  V30 10256 H 964.167 2.57783 3.00606 0
M  V30 10257 H 965.341 4.51802 0.90616 0
M  V30 10258 H 963.656 4.04864 0.973362 0
M  V30 10259 H 966.253 3.81649 3.74497 0
M  V30 10260 H 966.596 2.1112 3.58795 0
M  V30 10261 H 967.129 3.23544 2.3144 0
M  V30 10262 H 963.868 6.22236 2.06161 0
M  V30 10263 H 963.388 5.02059 3.28172 0
M  V30 10264 H 965.067 5.61177 3.22009 0
M  V30 10265 N 965.199 -0.738761 1.39212 0
M  V30 10266 C 966.109 -1.88324 1.39897 0
M  V30 10267 C 967.125 -1.71494 0.294229 0
M  V30 10268 O 968.301 -1.94162 0.535087 0
M  V30 10269 C 965.366 -3.23871 1.23726 0
M  V30 10270 C 964.427 -3.53121 2.44139 0
M  V30 10271 C 963.66 -4.82202 2.2873 0
M  V30 10272 O 963.883 -5.55649 1.28879 0
M  V30 10273 O 962.817 -5.11265 3.17634 0
M  V30 10274 H 966.643 -1.90701 2.36362 0
M  V30 10275 H 964.228 -0.886067 1.20288 0
M  V30 10276 H 966.11 -4.04882 1.16826 0
M  V30 10277 H 964.785 -3.22274 0.303551 0
M  V30 10278 H 963.692 -2.72212 2.56615 0
M  V30 10279 H 965.025 -3.59495 3.36191 0
M  V30 10280 N 966.677 -1.24326 -0.968545 0
M  V30 10281 C 967.902 -1.1104 -1.75171 0
M  V30 10282 C 968.327 0.333109 -1.85127 0
M  V30 10283 O 967.685 1.24115 -1.32156 0
M  V30 10284 C 967.733 -1.75397 -3.15068 0
M  V30 10285 O 966.837 -1.02417 -3.9948 0
M  V30 10286 H 966.178 -0.388488 -0.538491 0
M  V30 10287 H 968.708 -1.64617 -1.215 0
M  V30 10288 H 968.718 -1.8112 -3.65595 0
M  V30 10289 H 967.393 -2.80427 -3.07138 0
M  V30 10290 H 965.97 -1.04475 -3.57966 0
M  V30 10291 N 968.156 1.1691 -1.05688 0
M  V30 10292 C 969.402 1.8757 -0.771071 0
M  V30 10293 C 969.735 1.8113 0.700399 0
M  V30 10294 O 969.01 1.22273 1.5126 0
M  V30 10295 C 969.293 3.37392 -1.25851 0
M  V30 10296 C 969.146 3.52556 -2.79329 0
M  V30 10297 C 970.465 4.31585 -0.861512 0
M  V30 10298 H 967.584 0.681089 -0.281579 0
M  V30 10299 H 970.226 1.37453 -1.31174 0
M  V30 10300 H 968.376 3.80204 -0.798563 0
M  V30 10301 H 970.048 3.18725 -3.33485 0
M  V30 10302 H 968.291 2.94668 -3.1836 0
M  V30 10303 H 968.962 4.57748 -3.08498 0
M  V30 10304 H 971.438 3.96642 -1.25756 0
M  V30 10305 H 970.314 5.34939 -1.23012 0
M  V30 10306 H 970.575 4.4148 0.234089 0
M  V30 10307 N 969.634 0.838594 1.33437 0
M  V30 10308 C 970.911 0.356112 1.92331 0
M  V30 10309 C 971.291 -1.1585 1.76471 0
M  V30 10310 O 970.639 -1.97281 1.15293 0
M  V30 10311 C 970.849 0.802715 3.39643 0
M  V30 10312 C 972.197 0.810575 4.16791 0
M  V30 10313 O 973.221 0.746304 3.48294 0
M  V30 10314 O 972.08 0.898082 5.3907 0
M  V30 10315 H 969.174 0.100711 0.820845 0
M  V30 10316 H 971.72 0.924428 1.42311 0
M  V30 10317 H 970.492 1.84529 3.45057 0
M  V30 10318 H 970.115 0.210956 3.9704 0
M  V30 10319 N 971.112 -1.45937 0.595003 0
M  V30 10320 C 972.389 -1.95592 0.0178748 0
M  V30 10321 C 972.769 -1.53758 -1.44643 0
M  V30 10322 O 972.117 -0.794104 -2.14257 0
M  V30 10323 C 972.327 -3.4841 0.202789 0
M  V30 10324 C 973.675 -4.2453 0.0770121 0
M  V30 10325 O 974.699 -3.55954 0.132257 0
M  V30 10326 O 973.558 -5.46479 -0.0484271 0
M  V30 10327 H 970.652 -0.825888 -0.0428702 0
M  V30 10328 H 973.198 -1.56162 0.664184 0
M  V30 10329 H 971.97 -3.71787 1.22027 0
M  V30 10330 H 971.593 -3.947 -0.479376 0
M  V30 10331 N 972.59 -0.333456 -1.54032 0
M  V30 10332 C 973.52 0.52051 -2.27625 0
M  V30 10333 C 974.501 1.1111 -1.28797 0
M  V30 10334 O 975.686 1.13438 -1.57625 0
M  V30 10335 C 972.816 1.67663 -3.04149 0
M  V30 10336 C 971.77 1.21487 -4.10396 0
M  V30 10337 C 971.096 2.45872 -4.74817 0
M  V30 10338 C 972.396 0.322603 -5.21303 0
M  V30 10339 H 974.09 -0.0933823 -2.99254 0
M  V30 10340 H 971.636 -0.0463526 -1.43925 0
M  V30 10341 H 973.589 2.28041 -3.54366 0
M  V30 10342 H 972.313 2.31727 -2.30153 0
M  V30 10343 H 970.972 0.633966 -3.61077 0
M  V30 10344 H 970.62 3.0832 -3.97426 0
M  V30 10345 H 970.32 2.15662 -5.46593 0
M  V30 10346 H 971.844 3.06994 -5.27814 0
M  V30 10347 H 973.258 0.832942 -5.67217 0
M  V30 10348 H 971.655 0.112843 -5.99994 0
M  V30 10349 H 972.725 -0.643954 -4.80605 0
M  V30 10350 N 974.068 1.57479 -0.061844 0
M  V30 10351 C 975.031 2.1104 0.894127 0
M  V30 10352 C 976.031 1.03227 1.23292 0
M  V30 10353 O 977.221 1.29256 1.16784 0
M  V30 10354 C 974.353 2.6035 2.20069 0
M  V30 10355 H 975.546 2.96807 0.429619 0
M  V30 10356 H 973.099 1.55181 0.18672 0
M  V30 10357 H 973.834 1.78008 2.71079 0
M  V30 10358 H 973.619 3.39146 1.9678 0
M  V30 10359 H 975.109 3.019 2.88525 0
M  V30 10360 N 975.546 -0.211634 1.56173 0
M  V30 10361 C 976.823 -0.959467 1.70451 0
M  V30 10362 C 977.203 -2.02036 0.611942 0
M  V30 10363 O 976.551 -2.25325 -0.37959 0
M  V30 10364 C 976.761 -1.56092 3.12148 0
M  V30 10365 C 978.109 -2.04939 3.71867 0
M  V30 10366 O 979.133 -1.65966 3.15172 0
M  V30 10367 O 977.992 -2.766 4.71333 0
M  V30 10368 H 975.086 -0.448844 0.6946 0
M  V30 10369 H 977.632 -0.202633 1.68486 0
M  V30 10370 H 976.404 -0.79538 3.83131 0
M  V30 10371 H 976.027 -2.38303 3.18273 0
M  V30 10372 N 977.024 -1.50153 -0.478725 0
M  V30 10373 C 977.956 -1.64603 -1.59494 0
M  V30 10374 C 978.969 -0.527789 -1.54007 0
M  V30 10375 O 980.158 -0.80069 -1.59534 0
M  V30 10376 C 977.258 -1.60738 -2.98356 0
M  V30 10377 C 976.431 -2.88468 -3.28794 0
M  V30 10378 C 975.49 -2.77349 -4.47173 0
M  V30 10379 O 974.516 -3.51302 -4.47857 0
M  V30 10380 N 975.718 -1.9039 -5.4839 0
M  V30 10381 H 978.483 -2.6088 -1.47518 0
M  V30 10382 H 976.044 -1.47521 -0.667011 0
M  V30 10383 H 978.036 -1.50923 -3.75505 0
M  V30 10384 H 976.606 -0.722273 -3.04141 0
M  V30 10385 H 975.826 -3.12467 -2.40329 0
M  V30 10386 H 977.114 -3.73102 -3.45937 0
M  V30 10387 H 976.512 -1.29606 -5.50653 0
M  V30 10388 H 975.069 -1.86484 -6.24553 0
M  V30 10389 N 978.502 0.731368 -1.39602 0
M  V30 10390 C 979.73 1.52059 -1.40305 0
M  V30 10391 C 980.145 1.888 0.00147921 0
M  V30 10392 O 979.502 1.54354 0.973715 0
M  V30 10393 C 979.553 2.80588 -2.27931 0
M  V30 10394 O 979.274 2.45406 -3.62915 0
M  V30 10395 C 980.775 3.74592 -2.37056 0
M  V30 10396 H 977.995 0.469787 -0.479104 0
M  V30 10397 H 980.539 0.903436 -1.83462 0
M  V30 10398 H 978.694 3.38626 -1.88178 0
M  V30 10399 H 979.108 3.27996 -4.09291 0
M  V30 10400 H 980.582 4.61662 -3.02609 0
M  V30 10401 H 981.059 4.16597 -1.39081 0
M  V30 10402 H 981.665 3.22471 -2.77295 0
M  V30 10403 N 979.98 1.24838 0.961938 0
M  V30 10404 C 980.943 1.04674 2.03902 0
M  V30 10405 C 981.943 0.00204674 1.608 0
M  V30 10406 O 983.133 0.243555 1.72489 0
M  V30 10407 C 980.265 0.587736 3.35795 0
M  V30 10408 H 981.458 2.00278 2.23223 0
M  V30 10409 H 979.011 1.07142 1.138 0
M  V30 10410 H 979.746 -0.371244 3.22168 0
M  V30 10411 H 979.531 1.34182 3.68426 0
M  V30 10412 H 981.021 0.467867 4.14971 0
M  V30 10413 N 981.458 -1.16348 1.06306 0
M  V30 10414 C 982.707 -1.8622 0.774909 0
M  V30 10415 C 983.02 -1.82598 -0.701245 0
M  V30 10416 O 984.226 -2.48051 -1.10377 0
M  V30 10417 C 982.682 -3.34182 1.33604 0
M  V30 10418 C 982.29 -3.46279 2.84245 0
M  V30 10419 C 984.034 -4.09309 1.12544 0
M  V30 10420 C 981.941 -4.88327 3.33602 0
M  V30 10421 H 980.871 -0.697574 0.286194 0
M  V30 10422 H 983.522 -1.31311 1.28179 0
M  V30 10423 H 981.904 -3.88698 0.756937 0
M  V30 10424 H 983.078 -3.01923 3.48108 0
M  V30 10425 H 981.393 -2.84585 3.03974 0
M  V30 10426 H 983.99 -5.14123 1.46909 0
M  V30 10427 H 984.333 -4.16251 0.0638129 0
M  V30 10428 H 984.866 -3.61032 1.67034 0
M  V30 10429 H 981.605 -4.86565 4.39244 0
M  V30 10430 H 981.125 -5.33307 2.74487 0
M  V30 10431 H 982.804 -5.57144 3.28937 0
M  V30 10432 N 982.937 -0.845659 -1.3299 0
M  V30 10433 C 983.847 -0.2864 -2.32845 0
M  V30 10434 C 984.863 0.591105 -1.63652 0
M  V30 10435 O 986.039 0.493615 -1.95257 0
M  V30 10436 C 983.104 0.523636 -3.42723 0
M  V30 10437 C 982.165 -0.378945 -4.27624 0
M  V30 10438 C 981.398 0.392526 -5.32255 0
M  V30 10439 O 981.621 1.6235 -5.46808 0
M  V30 10440 O 980.555 -0.237 -6.01433 0
M  V30 10441 H 984.381 -1.11346 -2.82552 0
M  V30 10442 H 981.966 -0.608356 -1.36453 0
M  V30 10443 H 983.848 0.983718 -4.09757 0
M  V30 10444 H 982.523 1.32764 -2.95221 0
M  V30 10445 H 981.43 -0.887012 -3.63432 0
M  V30 10446 H 982.763 -1.1479 -4.78627 0
M  V30 10447 N 984.415 1.45619 -0.602734 0
M  V30 10448 C 985.645 2.06348 -0.102105 0
M  V30 10449 C 986.053 1.44884 1.21677 0
M  V30 10450 O 985.396 0.555559 1.75098 0
M  V30 10451 C 985.458 3.59309 0.117026 0
M  V30 10452 C 985.122 4.43081 -1.11931 0
M  V30 10453 C 986.119 4.78364 -2.03627 0
M  V30 10454 C 983.804 4.83908 -1.34677 0
M  V30 10455 C 985.798 5.53325 -3.16403 0
M  V30 10456 C 983.485 5.58624 -2.47754 0
M  V30 10457 C 984.483 5.93249 -3.38445 0
M  V30 10458 O 984.171 6.6645 -4.49555 0
M  V30 10459 H 983.903 0.672988 -0.0637478 0
M  V30 10460 H 986.457 1.87928 -0.828983 0
M  V30 10461 H 984.687 3.76111 0.898742 0
M  V30 10462 H 986.376 4.01897 0.568649 0
M  V30 10463 H 987.142 4.47384 -1.87277 0
M  V30 10464 H 983.021 4.56396 -0.649875 0
M  V30 10465 H 986.565 5.80268 -3.87214 0
M  V30 10466 H 982.462 5.89019 -2.64059 0
M  V30 10467 H 983.23 6.84895 -4.48175 0
M  V30 10468 N 985.893 0.34162 1.53853 0
M  V30 10469 C 987.141 -0.254979 2.00485 0
M  V30 10470 C 987.462 -1.51222 1.23114 0
M  V30 10471 O 986.732 -1.92966 0.337787 0
M  V30 10472 H 985.312 -0.0972084 0.740648 0
M  V30 10473 H 987.974 0.462332 1.89337 0
M  V30 10474 H 987.07 -0.498778 3.08089 0
M  V30 10475 N 987.371 -1.57444 0.0701946 0
M  V30 10476 C 988.599 -1.97754 -0.608358 0
M  V30 10477 C 989.014 -0.948496 -1.63245 0
M  V30 10478 O 988.371 0.065046 -1.82384 0
M  V30 10479 C 988.422 -3.38142 -1.27836 0
M  V30 10480 O 988.143 -4.37104 -0.295255 0
M  V30 10481 C 989.644 -3.93318 -2.04489 0
M  V30 10482 H 986.864 -0.650398 -0.164997 0
M  V30 10483 H 989.408 -2.04006 0.142124 0
M  V30 10484 H 987.563 -3.32982 -1.97994 0
M  V30 10485 H 987.977 -5.18732 -0.77574 0
M  V30 10486 H 989.451 -4.93774 -2.46762 0
M  V30 10487 H 989.928 -3.29774 -2.90079 0
M  V30 10488 H 990.534 -4.01875 -1.39201 0
M  V30 10489 N 988.849 0.203349 -1.56283 0
M  V30 10490 C 990.098 0.92315 -1.79334 0
M  V30 10491 C 990.411 1.84765 -0.641977 0
M  V30 10492 O 991.617 2.60745 -0.756584 0
M  V30 10493 C 990.073 1.69184 -3.17655 0
M  V30 10494 C 989.681 0.812581 -4.40569 0
M  V30 10495 C 991.425 2.40177 -3.50022 0
M  V30 10496 C 989.332 1.57967 -5.69913 0
M  V30 10497 H 988.262 0.348442 -0.668659 0
M  V30 10498 H 990.913 0.1766 -1.82648 0
M  V30 10499 H 989.295 2.48197 -3.08568 0
M  V30 10500 H 990.469 0.0616956 -4.60759 0
M  V30 10501 H 988.784 0.21389 -4.1585 0
M  V30 10502 H 991.381 2.98103 -4.4389 0
M  V30 10503 H 991.724 3.13961 -2.73376 0
M  V30 10504 H 992.257 1.68138 -3.6052 0
M  V30 10505 H 988.996 0.884767 -6.49501 0
M  V30 10506 H 988.516 2.3047 -5.53754 0
M  V30 10507 H 990.195 2.13562 -6.10737 0
M  V30 10508 N 990.327 1.50405 0.470755 0
M  V30 10509 C 991.277 1.65681 1.56633 0
M  V30 10510 C 992.261 0.511424 1.52556 0
M  V30 10511 O 993.453 0.765844 1.59574 0
M  V30 10512 C 990.582 1.7546 2.95074 0
M  V30 10513 C 989.668 2.95676 3.04034 0
M  V30 10514 N 990.059 4.1935 2.82807 0
M  V30 10515 C 988.357 2.94241 3.35169 0
M  V30 10516 C 989.058 5.0032 2.96741 0
M  V30 10517 N 988.034 4.34282 3.26956 0
M  V30 10518 H 991.836 2.58994 1.38922 0
M  V30 10519 H 989.35 1.47593 0.67749 0
M  V30 10520 H 991.347 1.84508 3.73848 0
M  V30 10521 H 990.007 0.833057 3.13832 0
M  V30 10522 H 991.018 4.48842 2.58382 0
M  V30 10523 H 987.695 2.11587 3.59913 0
M  V30 10524 H 989.085 6.08664 2.84566 0
M  V30 10525 N 991.805 -0.723954 1.39988 0
M  V30 10526 C 993.053 -1.48078 1.3754 0
M  V30 10527 C 993.374 -1.94985 -0.0243358 0
M  V30 10528 O 992.644 -1.69764 -0.977602 0
M  V30 10529 H 991.224 -0.549354 0.506181 0
M  V30 10530 H 993.886 -0.858746 1.74962 0
M  V30 10531 H 992.982 -2.35763 2.04505 0
M  V30 10532 N 993.283 -1.25346 -0.955304 0
M  V30 10533 C 994.531 -1.09837 -1.69647 0
M  V30 10534 C 994.852 0.361425 -1.91621 0
M  V30 10535 O 994.122 1.25666 -1.50283 0
M  V30 10536 H 992.702 -0.403467 -0.628668 0
M  V30 10537 H 995.364 -1.57459 -1.14859 0
M  V30 10538 H 994.46 -1.60616 -2.67598 0
M  V30 10539 N 994.761 1.15782 -1.06922 0
M  V30 10540 C 995.986 1.90896 -0.810771 0
M  V30 10541 C 996.411 1.77246 0.629714 0
M  V30 10542 O 995.769 1.10215 1.43953 0
M  V30 10543 C 995.817 3.39397 -1.21829 0
M  V30 10544 O 994.921 4.10818 -0.360934 0
M  V30 10545 H 994.262 0.594497 -0.295752 0
M  V30 10546 H 996.792 1.46652 -1.42669 0
M  V30 10547 H 996.802 3.90181 -1.19259 0
M  V30 10548 H 995.477 3.4865 -2.2675 0
M  V30 10549 H 994.054 3.7019 -0.448748 0
M  V30 10550 N 996.239 0.8527 1.3254 0
M  V30 10551 C 997.464 0.468157 2.02047 0
M  V30 10552 C 997.889 -0.926967 1.63673 0
M  V30 10553 O 997.247 -1.60855 0.836378 0
M  V30 10554 C 997.295 0.612519 3.5536 0
M  V30 10555 O 996.399 -0.355506 4.10865 0
M  V30 10556 H 995.74 0.188401 0.636711 0
M  V30 10557 H 998.27 1.15135 1.6913 0
M  V30 10558 H 998.28 0.499315 4.04933 0
M  V30 10559 H 996.955 1.62988 3.82632 0
M  V30 10560 H 995.532 -0.198703 3.7237 0
M  V30 10561 N 997.718 -1.45297 0.610449 0
M  V30 10562 C 998.651 -2.27669 -0.155637 0
M  V30 10563 C 999.629 -1.37308 -0.870936 0
M  V30 10564 O 1000.81 -1.66739 -0.879228 0
M  V30 10565 C 997.94 -3.15748 -1.2256 0
M  V30 10566 C 996.986 -4.2207 -0.613116 0
M  V30 10567 S 997.819 -5.32337 0.581183 0
M  V30 10568 C 998.975 -6.23985 -0.489298 0
M  V30 10569 H 999.208 -2.92295 0.543205 0
M  V30 10570 H 996.741 -1.49181 0.398044 0
M  V30 10571 H 998.699 -3.67051 -1.83804 0
M  V30 10572 H 997.36 -2.50381 -1.89652 0
M  V30 10573 H 996.553 -4.83633 -1.41827 0
M  V30 10574 H 996.155 -3.73923 -0.0757482 0
M  V30 10575 H 998.447 -6.63553 -1.36759 0
M  V30 10576 H 999.39 -7.08042 0.0902456 0
M  V30 10577 H 999.798 -5.58718 -0.805911 0
M  V30 10578 N 999.196 -0.349774 -1.5367 0
M  V30 10579 C 1000.42 0.246038 -2.05432 0
M  V30 10580 C 1000.84 1.43719 -1.22435 0
M  V30 10581 O 1000.2 1.80622 -0.261166 0
M  V30 10582 C 1000.25 0.65501 -3.55516 0
M  V30 10583 O 999.968 -0.488782 -4.35365 0
M  V30 10584 C 1001.47 1.31088 -4.23475 0
M  V30 10585 H 998.689 0.0463952 -0.669394 0
M  V30 10586 H 1001.23 -0.503566 -1.98203 0
M  V30 10587 H 999.388 1.35455 -3.62947 0
M  V30 10588 H 999.802 -0.161528 -5.24251 0
M  V30 10589 H 1001.28 1.54774 -5.29857 0
M  V30 10590 H 1001.75 2.26636 -3.76208 0
M  V30 10591 H 1002.36 0.653211 -4.20254 0
M  V30 10592 N 1000.67 1.57404 -0.0785433 0
M  V30 10593 C 1001.92 1.93744 0.589024 0
M  V30 10594 C 1002.25 0.959087 1.69209 0
M  V30 10595 O 1001.5 -0.0241604 1.95685 0
M  V30 10596 C 1001.8 3.36684 1.1991 0
M  V30 10597 C 1001.47 4.50356 0.221493 0
M  V30 10598 C 1000.13 4.81177 -0.0474347 0
M  V30 10599 C 1002.48 5.1928 -0.446941 0
M  V30 10600 C 999.811 5.78257 -0.99177 0
M  V30 10601 C 1002.16 6.17372 -1.37964 0
M  V30 10602 C 1000.83 6.46607 -1.65697 0
M  V30 10603 H 1000.1 0.70896 0.215539 0
M  V30 10604 H 1002.74 1.90905 -0.150856 0
M  V30 10605 H 1001.05 3.36022 2.01486 0
M  V30 10606 H 1002.75 3.62095 1.72303 0
M  V30 10607 H 999.336 4.26322 0.441284 0
M  V30 10608 H 1003.52 4.95658 -0.252298 0
M  V30 10609 H 998.776 5.9923 -1.21381 0
M  V30 10610 H 1002.95 6.6988 -1.9035 0
M  V30 10611 H 1000.58 7.21643 -2.39031 0
M  V30 10612 N 1002.15 -0.195058 1.56388 0
M  V30 10613 C 1003.4 -0.915444 1.80626 0
M  V30 10614 C 1003.73 -1.83255 0.651768 0
M  V30 10615 O 1002.98 -1.92314 -0.362464 0
M  V30 10616 C 1003.28 -1.7637 3.10851 0
M  V30 10617 C 1002.95 -0.997572 4.39726 0
M  V30 10618 C 1001.61 -0.786043 4.74737 0
M  V30 10619 C 1003.96 -0.45851 5.19179 0
M  V30 10620 C 1001.29 -0.023972 5.86695 0
M  V30 10621 C 1003.64 0.29035 6.31933 0
M  V30 10622 C 1002.3 0.512895 6.65527 0
M  V30 10623 H 1001.57 -0.334985 0.660959 0
M  V30 10624 H 1004.22 -0.181815 1.90635 0
M  V30 10625 H 1002.53 -2.566 2.9608 0
M  V30 10626 H 1004.22 -2.3237 3.26811 0
M  V30 10627 H 1000.81 -1.17245 4.12252 0
M  V30 10628 H 1005 -0.609334 4.92545 0
M  V30 10629 H 1000.25 0.158421 6.11195 0
M  V30 10630 H 1004.43 0.715429 6.92715 0
M  V30 10631 H 1002.05 1.10531 7.52122 0
M  V30 10632 N 1003.63 -1.50653 -0.462772 0
M  V30 10633 C 1004.56 -1.66286 -1.5774 0
M  V30 10634 C 1005.57 -0.544094 -1.53439 0
M  V30 10635 O 1006.76 -0.817566 -1.58676 0
M  V30 10636 C 1003.86 -1.63893 -2.96635 0
M  V30 10637 C 1003.04 -2.91939 -3.25716 0
M  V30 10638 C 1002.1 -2.82076 -4.44206 0
M  V30 10639 O 1001.12 -3.56032 -4.44106 0
M  V30 10640 N 1002.32 -1.96196 -5.4634 0
M  V30 10641 H 1005.09 -2.6243 -1.44742 0
M  V30 10642 H 1002.65 -1.48221 -0.651326 0
M  V30 10643 H 1004.64 -1.54897 -3.73884 0
M  V30 10644 H 1003.21 -0.75449 -3.03358 0
M  V30 10645 H 1002.43 -3.14998 -2.37002 0
M  V30 10646 H 1003.72 -3.7675 -3.4196 0
M  V30 10647 H 1003.12 -1.35439 -5.49247 0
M  V30 10648 H 1001.67 -1.93097 -6.2254 0
M  V30 10649 N 1005.11 0.71652 -1.4037 0
M  V30 10650 C 1006.06 1.85194 -1.40734 0
M  V30 10651 C 1007.05 1.66934 -0.287969 0
M  V30 10652 O 1008.26 1.74051 -0.458957 0
M  V30 10653 H 1004.63 0.609922 -0.439885 0
M  V30 10654 H 1006.6 1.82003 -2.36468 0
M  V30 10655 C 1005.35 3.23048 -1.28589 0
M  V30 10656 H 1004.67 3.37704 -2.13999 0
M  V30 10657 H 1006.11 4.02633 -1.32902 0
M  V30 10658 C 1004.57 3.369 0.00396512 0
M  V30 10659 O 1005.1 3.89881 0.967243 0
M  V30 10660 N 1003.31 2.90508 0.0731565 0
M  V30 10661 H 1002.86 2.4758 -0.711454 0
M  V30 10662 H 1002.81 3.00155 0.935652 0
M  V30 10663 N 1006.59 1.25851 0.948643 0
M  V30 10664 C 1007.81 1.13813 1.73382 0
M  V30 10665 C 1008.24 -0.303615 1.85633 0
M  V30 10666 O 1007.59 -1.21997 1.34114 0
M  V30 10667 C 1007.64 1.80388 3.12238 0
M  V30 10668 O 1006.75 1.08759 3.978 0
M  V30 10669 H 1006.09 0.397006 0.532243 0
M  V30 10670 H 1008.62 1.66529 1.18866 0
M  V30 10671 H 1008.63 1.86913 3.62667 0
M  V30 10672 H 1007.3 2.85278 3.02637 0
M  V30 10673 H 1005.88 1.10157 3.56258 0
M  V30 10674 N 1008.06 -1.15214 1.07534 0
M  V30 10675 C 1009.48 -1.38031 0.801228 0
M  V30 10676 C 1009.68 -1.92556 -0.593672 0
M  V30 10677 O 1008.74 -2.1325 -1.35206 0
M  V30 10678 C 1010.05 -2.34958 1.87657 0
M  V30 10679 C 1011.6 -2.48617 1.90154 0
M  V30 10680 C 1012.07 -3.48837 2.96777 0
M  V30 10681 N 1013.56 -3.56374 2.95892 0
M  V30 10682 C 1014.3 -4.33746 3.75036 0
M  V30 10683 N 1013.79 -5.14435 4.64036 0
M  V30 10684 N 1015.59 -4.28853 3.63375 0
M  V30 10685 H 1007.74 -0.781639 1.97495 0
M  V30 10686 H 1010 -0.406243 0.856546 0
M  V30 10687 H 1009.71 -2.02013 2.87895 0
M  V30 10688 H 1009.58 -3.3476 1.73827 0
M  V30 10689 H 1011.97 -2.80859 0.905666 0
M  V30 10690 H 1012.05 -1.48808 2.08062 0
M  V30 10691 H 1011.69 -3.1733 3.96565 0
M  V30 10692 H 1011.62 -4.48406 2.76116 0
M  V30 10693 H 1014.11 -2.98784 2.31379 0
M  V30 10694 H 1014.43 -5.70722 5.21053 0
M  V30 10695 H 1012.77 -5.13734 4.68084 0
M  V30 10696 H 1015.96 -3.64882 2.93221 0
M  V30 10697 H 1016.14 -4.88903 4.25298 0
M  V30 10698 N 1009.54 -0.859717 -1.32086 0
M  V30 10699 C 1010.77 -0.479028 -2.0097 0
M  V30 10700 C 1011.18 0.930242 -1.64752 0
M  V30 10701 O 1010.52 1.6193 -0.867437 0
M  V30 10702 C 1010.59 -0.54431 -3.55355 0
M  V30 10703 C 1010.25 -1.91337 -4.15017 0
M  V30 10704 C 1011.25 -2.87951 -4.32874 0
M  V30 10705 C 1008.93 -2.21189 -4.50977 0
M  V30 10706 C 1010.93 -4.12567 -4.85867 0
M  V30 10707 C 1008.61 -3.46057 -5.03674 0
M  V30 10708 C 1009.61 -4.41562 -5.21068 0
M  V30 10709 O 1009.3 -5.64218 -5.72637 0
M  V30 10710 H 1009.03 -0.186161 -0.649861 0
M  V30 10711 H 1011.58 -1.15976 -1.69525 0
M  V30 10712 H 1009.81 0.1933 -3.86217 0
M  V30 10713 H 1011.5 -0.178506 -4.05507 0
M  V30 10714 H 1012.27 -2.66194 -4.05421 0
M  V30 10715 H 1008.15 -1.47635 -4.36721 0
M  V30 10716 H 1011.69 -4.8712 -4.99359 0
M  V30 10717 H 1007.59 -3.67662 -5.30561 0
M  V30 10718 H 1008.36 -5.66246 -5.91023 0
M  V30 10719 N 1011.02 1.44971 -0.618145 0
M  V30 10720 C 1011.95 2.28815 0.132751 0
M  V30 10721 C 1012.97 1.40551 0.821535 0
M  V30 10722 O 1014.15 1.64827 0.685155 0
M  V30 10723 C 1011.25 3.1658 1.20955 0
M  V30 10724 C 1010.43 4.33184 0.605821 0
M  V30 10725 C 1009.49 5.0208 1.57488 0
M  V30 10726 O 1008.51 5.58528 1.09706 0
M  V30 10727 N 1009.71 5.02335 2.9093 0
M  V30 10728 H 1012.48 2.939 -0.58674 0
M  V30 10729 H 1010.04 1.55276 -0.458375 0
M  V30 10730 H 1012.03 3.59535 1.85787 0
M  V30 10731 H 1010.6 2.53333 1.83143 0
M  V30 10732 H 1009.82 3.93581 -0.220827 0
M  V30 10733 H 1011.11 5.08471 0.182883 0
M  V30 10734 H 1010.51 4.57783 3.32342 0
M  V30 10735 H 1009.07 5.49119 3.51157 0
M  V30 10736 N 1012.5 0.357919 1.53482 0
M  V30 10737 C 1013.73 -0.23514 2.05559 0
M  V30 10738 C 1014.14 -1.43068 1.23195 0
M  V30 10739 O 1013.5 -1.80481 0.270741 0
M  V30 10740 C 1013.55 -0.636147 3.55859 0
M  V30 10741 O 1013.27 0.511864 4.35099 0
M  V30 10742 C 1014.77 -1.28841 4.24164 0
M  V30 10743 H 1011.99 -0.0428446 0.669631 0
M  V30 10744 H 1014.54 0.51407 1.97933 0
M  V30 10745 H 1012.69 -1.33528 3.63661 0
M  V30 10746 H 1013.1 0.189328 5.24158 0
M  V30 10747 H 1014.58 -1.51962 5.30671 0
M  V30 10748 H 1015.06 -2.24638 3.77405 0
M  V30 10749 H 1015.66 -0.630914 4.20594 0
M  V30 10750 N 1013.98 -1.5736 0.0868897 0
M  V30 10751 C 1015.21 -1.981 -0.586498 0
M  V30 10752 C 1015.61 -0.96455 -1.62767 0
M  V30 10753 O 1014.96 0.0551801 -1.83617 0
M  V30 10754 C 1015.02 -3.35193 -1.29947 0
M  V30 10755 C 1014.68 -4.55157 -0.410012 0
M  V30 10756 C 1015.68 -5.18797 0.338532 0
M  V30 10757 C 1013.37 -5.01212 -0.33047 0
M  V30 10758 C 1015.36 -6.26854 1.15468 0
M  V30 10759 C 1013.05 -6.09138 0.48934 0
M  V30 10760 C 1014.04 -6.71823 1.23057 0
M  V30 10761 O 1013.73 -7.77669 2.03683 0
M  V30 10762 H 1013.46 -0.656166 -0.16255 0
M  V30 10763 H 1016.02 -2.04773 0.160379 0
M  V30 10764 H 1014.25 -3.25179 -2.09274 0
M  V30 10765 H 1015.94 -3.60435 -1.86658 0
M  V30 10766 H 1016.7 -4.84151 0.286764 0
M  V30 10767 H 1012.58 -4.52188 -0.897058 0
M  V30 10768 H 1016.13 -6.75712 1.73374 0
M  V30 10769 H 1012.02 -6.43215 0.542618 0
M  V30 10770 H 1012.79 -7.94618 1.96277 0
M  V30 10771 N 1015.45 0.186762 -1.56489 0
M  V30 10772 C 1016.39 1.25565 -1.91745 0
M  V30 10773 C 1017.4 1.4128 -0.80894 0
M  V30 10774 O 1018.59 1.41558 -1.08737 0
M  V30 10775 C 1015.69 2.62662 -2.14154 0
M  V30 10776 C 1014.86 2.68448 -3.45333 0
M  V30 10777 C 1013.92 3.86798 -3.56754 0
M  V30 10778 O 1012.95 3.73514 -4.29507 0
M  V30 10779 N 1014.15 5.02607 -2.90459 0
M  V30 10780 H 1016.91 0.956351 -2.84032 0
M  V30 10781 H 1014.47 0.376631 -1.57458 0
M  V30 10782 H 1016.47 3.40277 -2.19075 0
M  V30 10783 H 1015.04 2.85046 -1.28326 0
M  V30 10784 H 1014.26 1.77044 -3.52206 0
M  V30 10785 H 1015.54 2.69311 -4.31682 0
M  V30 10786 H 1014.94 5.163 -2.31194 0
M  V30 10787 H 1013.5 5.78139 -3.00996 0
M  V30 10788 N 1016.93 1.50896 0.454776 0
M  V30 10789 C 1018.35 1.38684 0.78987 0
M  V30 10790 C 1018.55 0.455587 1.96282 0
M  V30 10791 O 1017.6 -0.0957503 2.52318 0
M  V30 10792 C 1018.92 2.80381 1.08661 0
M  V30 10793 C 1020.47 2.8941 1.19209 0
M  V30 10794 C 1020.94 4.31976 1.52187 0
M  V30 10795 N 1022.43 4.35002 1.59146 0
M  V30 10796 C 1023.17 5.42326 1.862 0
M  V30 10797 N 1022.66 6.59835 2.11164 0
M  V30 10798 N 1024.46 5.29786 1.87838 0
M  V30 10799 H 1016.61 2.10006 -0.317981 0
M  V30 10800 H 1018.87 0.944636 -0.0797969 0
M  V30 10801 H 1018.58 3.50438 0.297626 0
M  V30 10802 H 1018.45 3.18634 2.01872 0
M  V30 10803 H 1020.84 2.19561 1.97173 0
M  V30 10804 H 1020.92 2.54677 0.239401 0
M  V30 10805 H 1020.56 5.02368 0.747576 0
M  V30 10806 H 1020.49 4.64208 2.48633 0
M  V30 10807 H 1022.98 3.50276 1.41828 0
M  V30 10808 H 1023.3 7.37428 2.31128 0
M  V30 10809 H 1021.64 6.62981 2.08522 0
M  V30 10810 H 1024.83 4.36974 1.67843 0
M  V30 10811 H 1025 6.13511 2.08585 0
M  V30 10812 N 1018.41 -0.709066 1.40748 0
M  V30 10813 C 1019.34 -1.83293 1.35937 0
M  V30 10814 C 1020.32 -1.60983 0.22871 0
M  V30 10815 O 1021.51 -1.8391 0.413435 0
M  V30 10816 C 1018.63 -3.19746 1.11714 0
M  V30 10817 C 1017.68 -3.60872 2.27319 0
M  V30 10818 S 1018.51 -3.67233 3.89743 0
M  V30 10819 C 1019.67 -5.06434 3.67797 0
M  V30 10820 H 1019.9 -1.87095 2.31047 0
M  V30 10821 H 1017.43 -0.876479 1.27111 0
M  V30 10822 H 1019.39 -3.98526 0.984245 0
M  V30 10823 H 1018.05 -3.1357 0.182472 0
M  V30 10824 H 1017.25 -4.59965 2.06029 0
M  V30 10825 H 1016.85 -2.89366 2.36946 0
M  V30 10826 H 1019.14 -5.93544 3.26668 0
M  V30 10827 H 1020.08 -5.32761 4.66445 0
M  V30 10828 H 1020.49 -4.77336 3.01348 0
M  V30 10829 N 1019.89 -1.26353 -0.941956 0
M  V30 10830 C 1021.14 -1.13026 -1.69106 0
M  V30 10831 C 1021.49 0.323264 -1.89665 0
M  V30 10832 O 1020.78 1.23405 -1.46566 0
M  V30 10833 C 1020.98 -1.83195 -3.06879 0
M  V30 10834 C 1020.81 -3.35221 -2.99762 0
M  V30 10835 C 1019.58 -4.04509 -3.02821 0
M  V30 10836 C 1021.77 -4.31425 -2.79959 0
M  V30 10837 N 1019.76 -5.43212 -2.85995 0
M  V30 10838 C 1021.13 -5.57299 -2.71694 0
M  V30 10839 C 1023.18 -4.21686 -2.64736 0
M  V30 10840 C 1021.89 -6.74546 -2.49761 0
M  V30 10841 C 1023.91 -5.38639 -2.44177 0
M  V30 10842 C 1023.27 -6.6346 -2.36643 0
M  V30 10843 H 1019.37 -0.468375 -0.626218 0
M  V30 10844 H 1021.96 -1.59629 -1.11476 0
M  V30 10845 H 1020.13 -1.39068 -3.62649 0
M  V30 10846 H 1021.86 -1.62498 -3.70644 0
M  V30 10847 H 1018.61 -3.55863 -3.12503 0
M  V30 10848 H 1019.04 -6.16042 -2.80752 0
M  V30 10849 H 1023.68 -3.25918 -2.69328 0
M  V30 10850 H 1021.4 -7.70411 -2.4391 0
M  V30 10851 H 1024.98 -5.32973 -2.33305 0
M  V30 10852 H 1023.86 -7.52431 -2.20945 0
M  V30 10853 N 1021.37 1.14642 -1.08144 0
M  V30 10854 C 1022.32 2.21708 -0.703448 0
M  V30 10855 C 1023.31 1.66907 0.289535 0
M  V30 10856 O 1024.52 1.79354 0.152387 0
M  V30 10857 H 1020.89 0.722247 -0.209437 0
M  V30 10858 H 1022.86 2.50862 -1.61588 0
M  V30 10859 C 1021.61 3.47472 -0.125975 0
M  V30 10860 H 1020.93 3.89967 -0.881216 0
M  V30 10861 H 1022.37 4.2388 0.100737 0
M  V30 10862 C 1020.83 3.17189 1.13546 0
M  V30 10863 O 1021.36 3.34733 2.22073 0
M  V30 10864 N 1019.57 2.71169 1.04479 0
M  V30 10865 H 1019.12 2.57093 0.161566 0
M  V30 10866 H 1019.07 2.51282 1.88957 0
M  V30 10867 N 1022.85 0.866709 1.31628 0
M  V30 10868 C 1024.08 0.489679 2.00713 0
M  V30 10869 C 1024.48 -0.921492 1.65243 0
M  V30 10870 O 1023.83 -1.61467 0.876012 0
M  V30 10871 C 1023.89 0.563148 3.55062 0
M  V30 10872 C 1023.55 1.93535 4.13996 0
M  V30 10873 C 1024.55 2.90243 4.31341 0
M  V30 10874 C 1022.23 2.23578 4.49798 0
M  V30 10875 C 1024.23 4.15138 4.83673 0
M  V30 10876 C 1021.92 3.48723 5.01832 0
M  V30 10877 C 1022.91 4.44319 5.18719 0
M  V30 10878 O 1022.6 5.67247 5.69637 0
M  V30 10879 H 1022.33 0.189605 0.648865 0
M  V30 10880 H 1024.89 1.16874 1.68907 0
M  V30 10881 H 1023.12 -0.172815 3.86314 0
M  V30 10882 H 1024.81 0.200009 4.05407 0
M  V30 10883 H 1025.57 2.6834 4.04003 0
M  V30 10884 H 1021.45 1.49949 4.35932 0
M  V30 10885 H 1025 4.89762 4.96769 0
M  V30 10886 H 1020.89 3.70471 5.28603 0
M  V30 10887 H 1021.66 5.69372 5.88011 0
M  V30 10888 N 1024.32 -1.44642 0.625825 0
M  V30 10889 C 1025.26 -2.27821 -0.131481 0
M  V30 10890 C 1026.23 -1.38224 -0.856324 0
M  V30 10891 O 1027.42 -1.67662 -0.861493 0
M  V30 10892 C 1024.55 -3.1703 -1.19204 0
M  V30 10893 C 1023.59 -4.22697 -0.568315 0
M  V30 10894 S 1024.42 -5.3169 0.637612 0
M  V30 10895 C 1025.58 -6.24468 -0.423088 0
M  V30 10896 H 1025.81 -2.91703 0.574177 0
M  V30 10897 H 1023.35 -1.4875 0.413844 0
M  V30 10898 H 1025.3 -3.6898 -1.79901 0
M  V30 10899 H 1023.97 -2.52379 -1.86986 0
M  V30 10900 H 1023.16 -4.8511 -1.36689 0
M  V30 10901 H 1022.76 -3.73983 -0.0360843 0
M  V30 10902 H 1025.05 -6.64967 -1.29713 0
M  V30 10903 H 1026 -7.07907 0.165338 0
M  V30 10904 H 1026.4 -5.59541 -0.746606 0
M  V30 10905 N 1025.8 -0.366053 -1.5329 0
M  V30 10906 C 1027.03 0.22391 -2.05383 0
M  V30 10907 C 1027.44 1.42962 -1.23929 0
M  V30 10908 O 1026.78 1.81659 -0.273072 0
M  V30 10909 C 1026.84 0.681038 -3.5299 0
M  V30 10910 C 1026.51 -0.40805 -4.55175 0
M  V30 10911 C 1027.51 -1.25806 -5.04449 0
M  V30 10912 C 1025.19 -0.568428 -4.99073 0
M  V30 10913 C 1027.18 -2.25379 -5.96224 0
M  V30 10914 C 1024.87 -1.56752 -5.90654 0
M  V30 10915 C 1025.87 -2.40864 -6.39119 0
M  V30 10916 O 1025.56 -3.39069 -7.28895 0
M  V30 10917 H 1025.29 0.0429593 -0.674634 0
M  V30 10918 H 1027.84 -0.522897 -1.98633 0
M  V30 10919 H 1026.07 1.47945 -3.5728 0
M  V30 10920 H 1027.76 1.19406 -3.8794 0
M  V30 10921 H 1028.53 -1.14536 -4.71282 0
M  V30 10922 H 1024.41 0.0764858 -4.60937 0
M  V30 10923 H 1027.95 -2.91068 -6.33976 0
M  V30 10924 H 1023.85 -1.6807 -6.23236 0
M  V30 10925 H 1024.62 -3.34804 -7.46893 0
M  V30 10926 N 1027.28 1.57312 -0.0952337 0
M  V30 10927 C 1028.5 1.99119 0.580206 0
M  V30 10928 C 1028.93 0.973955 1.60922 0
M  V30 10929 O 1028.29 -0.0575338 1.81209 0
M  V30 10930 C 1028.34 3.39893 1.20438 0
M  V30 10931 O 1027.44 3.40941 2.32019 0
M  V30 10932 H 1026.78 0.64748 0.147195 0
M  V30 10933 H 1029.31 2.03836 -0.176686 0
M  V30 10934 H 1029.32 3.7759 1.54564 0
M  V30 10935 H 1028 4.13453 0.450514 0
M  V30 10936 H 1026.57 3.1504 1.9951 0
M  V30 10937 N 1028.76 -0.17846 1.56586 0
M  V30 10938 C 1029.7 -1.22104 1.95855 0
M  V30 10939 C 1030.67 -1.44366 0.821447 0
M  V30 10940 O 1031.86 -1.57224 1.08098 0
M  V30 10941 C 1029 -2.55701 2.31757 0
M  V30 10942 C 1028.11 -2.40879 3.5861 0
M  V30 10943 C 1027.25 -3.67293 3.83757 0
M  V30 10944 C 1026.29 -3.47373 5.03982 0
M  V30 10945 N 1025.42 -4.65839 5.25298 0
M  V30 10946 H 1030.26 -0.879168 2.84736 0
M  V30 10947 H 1027.8 -0.422721 1.40895 0
M  V30 10948 H 1029.76 -3.33556 2.50592 0
M  V30 10949 H 1028.39 -2.87898 1.45995 0
M  V30 10950 H 1027.44 -1.54236 3.47729 0
M  V30 10951 H 1028.75 -2.22102 4.46623 0
M  V30 10952 H 1027.91 -4.53584 4.02922 0
M  V30 10953 H 1026.65 -3.89041 2.94107 0
M  V30 10954 H 1025.65 -2.59467 4.84723 0
M  V30 10955 H 1026.88 -3.27055 5.95157 0
M  V30 10956 H 1024.82 -4.8782 4.38598 0
M  V30 10957 H 1024.74 -4.4995 6.0752 0
M  V30 10958 H 1026.01 -5.53435 5.48936 0
M  V30 10959 N 1030.24 -1.51135 -0.446768 0
M  V30 10960 C 1031.17 -1.67949 -1.55967 0
M  V30 10961 C 1032.18 -0.560337 -1.52853 0
M  V30 10962 O 1033.37 -0.83435 -1.578 0
M  V30 10963 C 1030.47 -1.6703 -2.9488 0
M  V30 10964 C 1029.64 -2.95377 -3.22601 0
M  V30 10965 C 1028.7 -2.86772 -4.4119 0
M  V30 10966 O 1027.73 -3.60722 -4.40304 0
M  V30 10967 N 1028.93 -2.01979 -5.44228 0
M  V30 10968 H 1031.69 -2.63951 -1.41951 0
M  V30 10969 H 1029.26 -1.48903 -0.635569 0
M  V30 10970 H 1031.25 -1.58854 -3.7222 0
M  V30 10971 H 1029.82 -0.786623 -3.02541 0
M  V30 10972 H 1029.04 -3.17494 -2.33647 0
M  V30 10973 H 1030.33 -3.80356 -3.37945 0
M  V30 10974 H 1029.72 -1.41257 -5.4778 0
M  V30 10975 H 1028.28 -1.99689 -6.20457 0
M  V30 10976 N 1031.71 0.701592 -1.41122 0
M  V30 10977 C 1033.12 1.28129 -1.35793 0
M  V30 10978 C 1033.48 1.96163 -0.0381185 0
M  V30 10979 O 1032.6 1.98416 0.863723 0
M  V30 10980 C 1033.2 2.33005 -2.45955 0
M  V30 10981 C 1031.75 2.86566 -2.44043 0
M  V30 10982 C 1030.9 1.60526 -2.26112 0
M  V30 10983 H 1033.85 0.496756 -1.50725 0
M  V30 10984 H 1033.87 3.14163 -2.14667 0
M  V30 10985 H 1033.39 1.8346 -3.42 0
M  V30 10986 H 1031.49 3.40304 -1.51737 0
M  V30 10987 H 1031.6 3.37406 -3.40138 0
M  V30 10988 H 1029.96 1.86113 -1.7388 0
M  V30 10989 H 1030.75 1.12985 -3.24175 0
M  V30 10990 N 1033.19 1.2685 0.935242 0
M  V30 10991 C 1034.42 1.15645 1.72165 0
M  V30 10992 C 1034.84 -0.283909 1.85945 0
M  V30 10993 O 1034.2 -1.20567 1.354 0
M  V30 10994 C 1034.25 1.83689 3.10307 0
M  V30 10995 O 1033.35 1.12972 3.96625 0
M  V30 10996 H 1032.69 0.402629 0.528002 0
M  V30 10997 H 1035.22 1.67781 1.17093 0
M  V30 10998 H 1035.23 1.90749 3.60664 0
M  V30 10999 H 1033.91 2.88472 2.99595 0
M  V30 11000 H 1032.48 1.13929 3.5507 0
M  V30 11001 N 1034.67 -1.14067 1.0875 0
M  V30 11002 C 1035.92 -1.85459 0.82053 0
M  V30 11003 C 1036.25 -1.82923 -0.65213 0
M  V30 11004 O 1035.52 -1.26241 -1.47965 0
M  V30 11005 C 1035.81 -3.33937 1.34752 0
M  V30 11006 C 1035.66 -3.45026 2.88578 0
M  V30 11007 C 1036.98 -4.2915 0.975636 0
M  V30 11008 H 1034.1 -0.673384 0.299538 0
M  V30 11009 H 1036.74 -1.33927 1.34772 0
M  V30 11010 H 1034.89 -3.77953 0.899086 0
M  V30 11011 H 1036.56 -3.09771 3.41818 0
M  V30 11012 H 1034.81 -2.86124 3.26061 0
M  V30 11013 H 1035.48 -4.49408 3.20526 0
M  V30 11014 H 1037.95 -3.93168 1.36228 0
M  V30 11015 H 1036.83 -5.31489 1.37152 0
M  V30 11016 H 1037.09 -4.41945 -0.116956 0
M  V30 11017 N 1036.15 -0.873678 -1.31166 0
M  V30 11018 C 1037.4 -0.486457 -1.9657 0
M  V30 11019 C 1037.72 0.962042 -1.69041 0
M  V30 11020 O 1036.98 1.69305 -0.981543 0
M  V30 11021 C 1037.28 -0.69462 -3.50585 0
M  V30 11022 C 1036.94 -2.11647 -3.98141 0
M  V30 11023 C 1035.61 -2.50531 -4.10838 0
M  V30 11024 C 1037.96 -3.0436 -4.23101 0
M  V30 11025 C 1035.29 -3.81361 -4.45848 0
M  V30 11026 C 1037.64 -4.34709 -4.59577 0
M  V30 11027 C 1036.3 -4.73502 -4.70481 0
M  V30 11028 H 1035.57 -0.178007 -0.719301 0
M  V30 11029 H 1038.22 -1.10737 -1.56235 0
M  V30 11030 H 1036.52 0.00940878 -3.91799 0
M  V30 11031 H 1038.22 -0.374782 -3.99245 0
M  V30 11032 H 1034.81 -1.8046 -3.88757 0
M  V30 11033 H 1038.99 -2.75544 -4.12782 0
M  V30 11034 H 1034.25 -4.11174 -4.52488 0
M  V30 11035 H 1038.42 -5.06596 -4.77842 0
M  V30 11036 H 1036.05 -5.74919 -4.97365 0
M  V30 11037 N 1037.63 1.44308 -0.633487 0
M  V30 11038 C 1038.87 2.02322 -0.139123 0
M  V30 11039 C 1039.21 1.49733 1.23667 0
M  V30 11040 O 1038.48 0.682353 1.82138 0
M  V30 11041 C 1038.76 3.59871 -0.128366 0
M  V30 11042 C 1038.62 4.22737 -1.53667 0
M  V30 11043 C 1039.94 4.36702 0.545834 0
M  V30 11044 H 1037.05 0.735161 -0.0520293 0
M  V30 11045 H 1039.7 1.7185 -0.810411 0
M  V30 11046 H 1037.85 3.85963 0.443263 0
M  V30 11047 H 1039.52 4.07744 -2.15737 0
M  V30 11048 H 1037.76 3.80142 -2.08985 0
M  V30 11049 H 1038.43 5.31757 -1.48116 0
M  V30 11050 H 1040.91 4.16057 0.0596879 0
M  V30 11051 H 1039.78 5.46407 0.522557 0
M  V30 11052 H 1040.05 4.11483 1.6166 0
M  V30 11053 N 1039.1 0.374177 1.53094 0
M  V30 11054 C 1040.05 -0.468226 2.26001 0
M  V30 11055 C 1041.02 -1.07041 1.27009 0
M  V30 11056 O 1042.21 -1.10129 1.55809 0
M  V30 11057 C 1039.35 -1.59754 3.05896 0
M  V30 11058 C 1038.46 -1.01969 4.19793 0
M  V30 11059 C 1037.59 -2.11882 4.87113 0
M  V30 11060 C 1036.63 -1.51607 5.93028 0
M  V30 11061 N 1035.77 -2.55388 6.54004 0
M  V30 11062 H 1040.61 0.159983 2.9757 0
M  V30 11063 H 1038.15 0.0907196 1.4682 0
M  V30 11064 H 1040.11 -2.26288 3.50499 0
M  V30 11065 H 1038.74 -2.19628 2.36565 0
M  V30 11066 H 1037.79 -0.244386 3.79614 0
M  V30 11067 H 1039.1 -0.539089 4.95878 0
M  V30 11068 H 1038.25 -2.86218 5.34943 0
M  V30 11069 H 1036.99 -2.63297 4.10519 0
M  V30 11070 H 1036 -0.757891 5.44551 0
M  V30 11071 H 1037.22 -1.01006 6.71546 0
M  V30 11072 H 1035.17 -3.06 5.80258 0
M  V30 11073 H 1035.09 -2.12039 7.25655 0
M  V30 11074 H 1036.35 -3.294 7.06481 0
M  V30 11075 N 1040.58 -1.57259 0.103575 0
M  V30 11076 C 1041.81 -1.99424 -0.569638 0
M  V30 11077 C 1042.23 -0.982475 -1.60403 0
M  V30 11078 O 1041.59 0.0479231 -1.81237 0
M  V30 11079 C 1041.64 -3.40527 -1.18633 0
M  V30 11080 O 1040.74 -3.42167 -2.30208 0
M  V30 11081 H 1040.08 -0.648251 -0.143759 0
M  V30 11082 H 1042.61 -2.03739 0.187493 0
M  V30 11083 H 1042.62 -3.78404 -1.5256 0
M  V30 11084 H 1041.3 -4.13686 -0.428582 0
M  V30 11085 H 1039.88 -3.16093 -1.97837 0
M  V30 11086 N 1042.06 0.170153 -1.56679 0
M  V30 11087 C 1043.29 0.902134 -1.86197 0
M  V30 11088 C 1043.7 1.75775 -0.689098 0
M  V30 11089 O 1043.06 1.79271 0.341763 0
M  V30 11090 C 1043.11 1.77792 -3.14757 0
M  V30 11091 O 1042.83 0.956817 -4.27524 0
M  V30 11092 C 1044.33 2.61947 -3.57629 0
M  V30 11093 H 1041.55 0.262026 -0.617724 0
M  V30 11094 H 1044.1 0.169899 -2.03793 0
M  V30 11095 H 1042.25 2.46348 -2.98984 0
M  V30 11096 H 1042.67 1.5559 -5.00891 0
M  V30 11097 H 1044.14 3.19011 -4.50484 0
M  V30 11098 H 1044.62 3.36873 -2.81803 0
M  V30 11099 H 1045.22 1.98721 -3.76019 0
M  V30 11100 N 1043.54 1.5137 0.438746 0
M  V30 11101 C 1044.45 1.75424 1.55768 0
M  V30 11102 C 1045.46 0.638409 1.61865 0
M  V30 11103 O 1046.64 0.9205 1.79133 0
M  V30 11104 C 1043.71 1.87288 2.9176 0
M  V30 11105 C 1042.77 3.11137 2.95791 0
M  V30 11106 C 1042 3.22425 4.25297 0
M  V30 11107 O 1042.22 2.39688 5.17596 0
M  V30 11108 O 1041.16 4.15393 4.35583 0
M  V30 11109 H 1044.98 2.70339 1.38386 0
M  V30 11110 H 1042.57 1.35854 0.621609 0
M  V30 11111 H 1044.45 1.97085 3.72472 0
M  V30 11112 H 1043.12 0.955599 3.09273 0
M  V30 11113 H 1042.03 3.06819 2.1404 0
M  V30 11114 H 1043.36 4.02549 2.83223 0
M  V30 11115 N 1045.02 -0.694098 1.41492 0
M  V30 11116 C 1045.93 -1.83778 1.45818 0
M  V30 11117 C 1046.94 -1.70471 0.348639 0
M  V30 11118 O 1048.12 -1.92361 0.596588 0
M  V30 11119 C 1045.18 -3.19771 1.33967 0
M  V30 11120 C 1044.24 -3.45175 2.5525 0
M  V30 11121 C 1043.48 -4.74681 2.43955 0
M  V30 11122 O 1043.7 -5.51268 1.46491 0
M  V30 11123 O 1042.63 -5.00901 3.33739 0
M  V30 11124 H 1046.46 -1.83084 2.42309 0
M  V30 11125 H 1044.05 -0.847349 1.23046 0
M  V30 11126 H 1045.93 -4.00961 1.29648 0
M  V30 11127 H 1044.6 -3.21145 0.405926 0
M  V30 11128 H 1043.51 -2.6391 2.65146 0
M  V30 11129 H 1044.84 -3.48617 3.47458 0
M  V30 11130 N 1046.49 -1.27344 -0.928501 0
M  V30 11131 C 1047.74 -1.13411 -1.67279 0
M  V30 11132 C 1048.06 0.320698 -1.92345 0
M  V30 11133 O 1047.33 1.2245 -1.52915 0
M  V30 11134 H 1045.91 -0.416712 -0.619968 0
M  V30 11135 H 1048.58 -1.5986 -1.11493 0
M  V30 11136 H 1047.67 -1.66256 -2.64131 0
M  V30 11137 N 1047.97 1.13488 -1.09353 0
M  V30 11138 C 1049.22 1.841 -0.82401 0
M  V30 11139 C 1049.53 1.84393 0.652586 0
M  V30 11140 O 1050.74 2.5089 1.03762 0
M  V30 11141 C 1049.2 3.30523 -1.42418 0
M  V30 11142 C 1048.8 3.38621 -2.93326 0
M  V30 11143 C 1050.55 4.06182 -1.23356 0
M  V30 11144 C 1048.46 4.79311 -3.46432 0
M  V30 11145 H 1047.39 0.68974 -0.304589 0
M  V30 11146 H 1050.04 1.27866 -1.31615 0
M  V30 11147 H 1048.42 3.86555 -0.859727 0
M  V30 11148 H 1049.59 2.92587 -3.5599 0
M  V30 11149 H 1047.91 2.76426 -3.11412 0
M  V30 11150 H 1050.5 5.10047 -1.60488 0
M  V30 11151 H 1050.85 4.15936 -0.174152 0
M  V30 11152 H 1051.38 3.56477 -1.76547 0
M  V30 11153 H 1048.12 4.74748 -4.5199 0
M  V30 11154 H 1047.64 5.25842 -2.8853 0
M  V30 11155 H 1049.32 5.48227 -3.43593 0
M  V30 11156 N 1049.45 0.880621 1.30701 0
M  V30 11157 C 1050.41 0.349087 2.26526 0
M  V30 11158 C 1051.41 -0.505973 1.52632 0
M  V30 11159 O 1052.6 -0.313751 1.71351 0
M  V30 11160 C 1049.74 -0.503023 3.37168 0
M  V30 11161 H 1050.93 1.19516 2.75056 0
M  V30 11162 H 1048.48 0.657107 1.41816 0
M  V30 11163 H 1049.22 -1.36986 2.93948 0
M  V30 11164 H 1049 0.109389 3.91947 0
M  V30 11165 H 1050.49 -0.866845 4.08504 0
M  V30 11166 N 1050.93 -1.4397 0.641131 0
M  V30 11167 C 1052.35 -1.56607 0.30762 0
M  V30 11168 C 1052.55 -1.62694 -1.18882 0
M  V30 11169 O 1051.6 -1.57541 -1.97325 0
M  V30 11170 C 1052.91 -2.83289 1.00834 0
M  V30 11171 C 1054.46 -2.97016 0.98744 0
M  V30 11172 C 1054.94 -4.26514 1.66882 0
M  V30 11173 N 1056.43 -4.33351 1.63589 0
M  V30 11174 C 1057.16 -5.32292 2.13196 0
M  V30 11175 N 1056.66 -6.37582 2.71038 0
M  V30 11176 N 1058.45 -5.23866 2.03766 0
M  V30 11177 H 1050.6 -1.38262 1.61237 0
M  V30 11178 H 1052.87 -0.663221 0.677378 0
M  V30 11179 H 1052.57 -2.84812 2.06337 0
M  V30 11180 H 1052.45 -3.73134 0.552333 0
M  V30 11181 H 1054.83 -2.95041 -0.0591395 0
M  V30 11182 H 1054.91 -2.08493 1.48203 0
M  V30 11183 H 1054.56 -4.2925 2.71491 0
M  V30 11184 H 1054.49 -5.13912 1.14898 0
M  V30 11185 H 1056.98 -3.5788 1.21368 0
M  V30 11186 H 1057.29 -7.09378 3.06597 0
M  V30 11187 H 1055.64 -6.38239 2.75093 0
M  V30 11188 H 1058.83 -4.40524 1.58291 0
M  V30 11189 H 1059 -6.00819 2.42737 0
M  V30 11190 N 1052.41 -0.382291 -1.52893 0
M  V30 11191 C 1053.65 0.202433 -2.01787 0
M  V30 11192 C 1053.99 1.47044 -1.26853 0
M  V30 11193 O 1053.26 1.91007 -0.366969 0
M  V30 11194 C 1053.54 0.477471 -3.5692 0
M  V30 11195 C 1053.4 -0.805339 -4.42532 0
M  V30 11196 C 1054.72 1.27106 -4.21346 0
M  V30 11197 H 1051.84 0.0720998 -0.733465 0
M  V30 11198 H 1054.48 -0.510478 -1.83014 0
M  V30 11199 H 1052.63 1.08478 -3.73048 0
M  V30 11200 H 1054.3 -1.4424 -4.3817 0
M  V30 11201 H 1052.54 -1.42216 -4.09826 0
M  V30 11202 H 1053.21 -0.567635 -5.49074 0
M  V30 11203 H 1055.69 0.757161 -4.09153 0
M  V30 11204 H 1054.57 1.43225 -5.29885 0
M  V30 11205 H 1054.83 2.28431 -3.78513 0
M  V30 11206 N 1053.89 1.57202 -0.111913 0
M  V30 11207 C 1054.82 2.17957 0.837683 0
M  V30 11208 C 1055.8 1.1176 1.28233 0
M  V30 11209 O 1056.98 1.39967 1.34621 0
M  V30 11210 C 1054.11 2.77333 2.09054 0
M  V30 11211 C 1053.07 3.8905 1.78393 0
M  V30 11212 C 1052.39 4.35203 3.10649 0
M  V30 11213 C 1053.69 5.11477 1.05775 0
M  V30 11214 H 1055.39 2.9756 0.331441 0
M  V30 11215 H 1052.93 1.43131 0.157979 0
M  V30 11216 H 1054.88 3.18492 2.75936 0
M  V30 11217 H 1053.61 1.95009 2.6199 0
M  V30 11218 H 1052.27 3.48456 1.13903 0
M  V30 11219 H 1051.92 3.49747 3.61506 0
M  V30 11220 H 1051.62 5.10534 2.9091 0
M  V30 11221 H 1053.14 4.79007 3.78661 0
M  V30 11222 H 1054.55 5.497 1.62798 0
M  V30 11223 H 1052.95 5.92346 0.961573 0
M  V30 11224 H 1054.02 4.84881 0.043297 0
M  V30 11225 N 1055.36 -0.161842 1.56767 0
M  V30 11226 C 1056.31 -1.21948 1.98069 0
M  V30 11227 C 1057.31 -1.45303 0.870835 0
M  V30 11228 O 1058.51 -1.45771 1.05598 0
M  V30 11229 H 1054.89 -0.410145 0.630306 0
M  V30 11230 H 1056.86 -0.844336 2.86205 0
M  V30 11231 C 1055.61 -2.549 2.36477 0
M  V30 11232 H 1054.93 -2.37755 3.21423 0
M  V30 11233 H 1056.37 -3.27568 2.69212 0
M  V30 11234 C 1054.83 -3.14353 1.21176 0
M  V30 11235 O 1055.36 -3.98519 0.504499 0
M  V30 11236 N 1053.56 -2.73582 0.979855 0
M  V30 11237 H 1053.11 -2.05239 1.55675 0
M  V30 11238 H 1053.07 -3.13696 0.21025 0
M  V30 11239 N 1056.84 -1.516 -0.430713 0
M  V30 11240 C 1058.07 -1.687 -1.20644 0
M  V30 11241 C 1058.49 -0.386555 -1.84085 0
M  V30 11242 O 1057.85 0.653952 -1.69095 0
M  V30 11243 C 1057.9 -2.80887 -2.2613 0
M  V30 11244 O 1057 -2.44952 -3.31772 0
M  V30 11245 H 1056.34 -0.562289 -0.353167 0
M  V30 11246 H 1058.87 -1.98198 -0.507807 0
M  V30 11247 H 1058.88 -3.05167 -2.70809 0
M  V30 11248 H 1057.56 -3.75249 -1.79334 0
M  V30 11249 H 1056.13 -2.31267 -2.92523 0
M  V30 11250 N 1058.32 0.686584 -1.41858 0
M  V30 11251 C 1059.27 1.82167 -1.4463 0
M  V30 11252 C 1060.26 1.66286 -0.323313 0
M  V30 11253 O 1061.47 1.73038 -0.495773 0
M  V30 11254 H 1057.84 0.600454 -0.452724 0
M  V30 11255 H 1059.81 1.76947 -2.40276 0
M  V30 11256 C 1058.56 3.20248 -1.35412 0
M  V30 11257 H 1057.89 3.33089 -2.21115 0
M  V30 11258 H 1059.33 3.99723 -1.41413 0
M  V30 11259 C 1057.78 3.36832 -0.0674972 0
M  V30 11260 O 1058.31 3.91845 0.884325 0
M  V30 11261 N 1056.52 2.90598 0.011519 0
M  V30 11262 H 1056.07 2.46016 -0.76381 0
M  V30 11263 H 1056.03 3.02072 0.871774 0
M  V30 11264 N 1059.8 1.27835 0.921735 0
M  V30 11265 C 1061.03 1.17182 1.70153 0
M  V30 11266 C 1061.44 -0.273207 1.87217 0
M  V30 11267 O 1060.78 -1.19729 1.39322 0
M  V30 11268 C 1060.84 1.78969 3.11786 0
M  V30 11269 C 1060.5 3.28179 3.18037 0
M  V30 11270 C 1061.5 4.24729 2.99835 0
M  V30 11271 C 1059.19 3.68995 3.40805 0
M  V30 11272 C 1061.18 5.60071 3.04301 0
M  V30 11273 C 1058.87 5.04465 3.44904 0
M  V30 11274 C 1059.87 5.99813 3.2667 0
M  V30 11275 O 1059.55 7.32813 3.30515 0
M  V30 11276 H 1059.29 0.408079 0.538932 0
M  V30 11277 H 1061.84 1.69326 1.16266 0
M  V30 11278 H 1060.07 1.2131 3.6718 0
M  V30 11279 H 1061.76 1.62946 3.71757 0
M  V30 11280 H 1062.52 3.94533 2.8208 0
M  V30 11281 H 1058.4 2.9525 3.54045 0
M  V30 11282 H 1061.95 6.34471 2.89987 0
M  V30 11283 H 1057.84 5.34315 3.62185 0
M  V30 11284 H 1058.61 7.41338 3.4693 0
M  V30 11285 N 1061.28 -1.12907 1.09954 0
M  V30 11286 C 1062.24 -2.16673 0.747364 0
M  V30 11287 C 1063.24 -1.59208 -0.225741 0
M  V30 11288 O 1064.43 -1.742 -0.00322482 0
M  V30 11289 C 1061.56 -3.40735 0.106169 0
M  V30 11290 H 1062.75 -2.49341 1.6664 0
M  V30 11291 H 1060.31 -1.27828 0.899421 0
M  V30 11292 H 1061.04 -3.13661 -0.82384 0
M  V30 11293 H 1060.83 -3.83717 0.806434 0
M  V30 11294 H 1062.32 -4.17414 -0.12464 0
M  V30 11295 N 1062.75 -0.88754 -1.30232 0
M  V30 11296 C 1064 -0.507279 -1.96043 0
M  V30 11297 C 1064.33 0.944059 -1.70052 0
M  V30 11298 O 1063.58 1.68255 -0.999444 0
M  V30 11299 C 1063.88 -0.731765 -3.49828 0
M  V30 11300 C 1063.55 -2.15858 -3.95874 0
M  V30 11301 C 1062.21 -2.54875 -4.08157 0
M  V30 11302 C 1064.56 -3.0883 -4.19849 0
M  V30 11303 C 1061.89 -3.86069 -4.41778 0
M  V30 11304 C 1064.24 -4.39559 -4.5494 0
M  V30 11305 C 1062.91 -4.78465 -4.65432 0
M  V30 11306 H 1062.18 -0.185627 -0.717373 0
M  V30 11307 H 1064.82 -1.12388 -1.55052 0
M  V30 11308 H 1063.13 -0.0321473 -3.91787 0
M  V30 11309 H 1064.83 -0.417107 -3.98825 0
M  V30 11310 H 1061.42 -1.84574 -3.86821 0
M  V30 11311 H 1065.6 -2.79906 -4.09837 0
M  V30 11312 H 1060.86 -4.1595 -4.48102 0
M  V30 11313 H 1065.03 -5.11636 -4.72442 0
M  V30 11314 H 1062.66 -5.80162 -4.91239 0
M  V30 11315 N 1064.23 1.43628 -0.648757 0
M  V30 11316 C 1065.16 2.33478 0.0320785 0
M  V30 11317 C 1066.14 1.49217 0.816605 0
M  V30 11318 O 1067.33 1.77892 0.778974 0
M  V30 11319 C 1064.46 3.32525 1.00222 0
M  V30 11320 C 1063.41 4.2674 0.328119 0
M  V30 11321 C 1062.74 5.15791 1.4094 0
M  V30 11322 C 1064.04 5.16493 -0.776701 0
M  V30 11323 H 1065.73 2.90657 -0.718257 0
M  V30 11324 H 1063.28 1.3976 -0.346852 0
M  V30 11325 H 1065.23 3.94277 1.4874 0
M  V30 11326 H 1063.96 2.73593 1.78366 0
M  V30 11327 H 1062.61 3.66346 -0.136569 0
M  V30 11328 H 1062.26 4.53201 2.18216 0
M  V30 11329 H 1061.96 5.79645 0.963631 0
M  V30 11330 H 1063.49 5.80416 1.89603 0
M  V30 11331 H 1064.9 5.7208 -0.373878 0
M  V30 11332 H 1063.3 5.89043 -1.14667 0
M  V30 11333 H 1064.37 4.56448 -1.63654 0
M  V30 11334 N 1065.71 0.390394 1.52688 0
M  V30 11335 C 1066.64 -0.43567 2.294 0
M  V30 11336 C 1067.62 -1.06253 1.32832 0
M  V30 11337 O 1068.81 -1.07509 1.61726 0
M  V30 11338 C 1065.94 -1.56259 3.10162 0
M  V30 11339 C 1064.89 -1.06172 4.14622 0
M  V30 11340 C 1064.22 -2.2808 4.83615 0
M  V30 11341 C 1065.52 -0.128902 5.22141 0
M  V30 11342 H 1067.21 0.204384 2.98702 0
M  V30 11343 H 1064.76 0.0997377 1.43654 0
M  V30 11344 H 1066.71 -2.14732 3.62585 0
M  V30 11345 H 1065.43 -2.23025 2.38595 0
M  V30 11346 H 1064.09 -0.499518 3.63181 0
M  V30 11347 H 1063.74 -2.93358 4.08595 0
M  V30 11348 H 1063.44 -1.95227 5.5422 0
M  V30 11349 H 1064.96 -2.87193 5.38844 0
M  V30 11350 H 1066.38 -0.621849 5.69917 0
M  V30 11351 H 1064.78 0.109919 5.99999 0
M  V30 11352 H 1065.85 0.821884 4.77884 0
M  V30 11353 N 1067.19 -1.57141 0.120249 0
M  V30 11354 C 1068.1 -2.18925 -0.843155 0
M  V30 11355 C 1069.11 -1.16575 -1.29175 0
M  V30 11356 O 1070.29 -1.4905 -1.35448 0
M  V30 11357 C 1067.36 -2.7775 -2.075 0
M  V30 11358 C 1066.42 -3.95139 -1.6782 0
M  V30 11359 C 1065.65 -4.51149 -2.85132 0
M  V30 11360 O 1065.87 -4.06056 -4.00593 0
M  V30 11361 O 1064.81 -5.41815 -2.62145 0
M  V30 11362 H 1068.63 -3.01707 -0.347357 0
M  V30 11363 H 1066.22 -1.49028 -0.105427 0
M  V30 11364 H 1068.1 -3.15243 -2.79643 0
M  V30 11365 H 1066.77 -1.97998 -2.56083 0
M  V30 11366 H 1065.68 -3.62412 -0.927807 0
M  V30 11367 H 1067.01 -4.7633 -1.23977 0
M  V30 11368 N 1068.67 0.153526 -1.5685 0
M  V30 11369 C 1069.89 0.886343 -1.87507 0
M  V30 11370 C 1070.32 1.74244 -0.708565 0
M  V30 11371 O 1069.67 1.78045 0.341997 0
M  V30 11372 C 1069.72 1.72428 -3.16703 0
M  V30 11373 O 1068.83 2.82784 -3.00178 0
M  V30 11374 H 1068.17 0.247259 -0.616246 0
M  V30 11375 H 1070.7 0.146306 -2.04076 0
M  V30 11376 H 1070.71 2.12062 -3.4856 0
M  V30 11377 H 1069.38 1.09558 -4.01211 0
M  V30 11378 H 1067.96 2.46604 -2.79716 0
M  V30 11379 N 1070.14 1.51827 0.422667 0
M  V30 11380 C 1071.37 1.69049 1.1929 0
M  V30 11381 C 1071.79 0.394095 1.84641 0
M  V30 11382 O 1071.14 -0.628731 1.71328 0
M  V30 11383 C 1071.2 2.81657 2.26609 0
M  V30 11384 O 1070.92 4.06275 1.63929 0
M  V30 11385 C 1072.42 3.10274 3.16615 0
M  V30 11386 H 1069.64 0.566894 0.358988 0
M  V30 11387 H 1072.18 1.98318 0.499029 0
M  V30 11388 H 1070.34 2.54945 2.91688 0
M  V30 11389 H 1070.75 4.68924 2.3497 0
M  V30 11390 H 1072.22 3.92613 3.88019 0
M  V30 11391 H 1072.7 2.23273 3.78214 0
M  V30 11392 H 1073.31 3.387 2.57221 0
M  V30 11393 N 1071.62 -0.679052 1.4222 0
M  V30 11394 C 1072.56 -1.80369 1.39794 0
M  V30 11395 C 1073.53 -1.60462 0.262806 0
M  V30 11396 O 1074.72 -1.82992 0.452352 0
M  V30 11397 C 1071.84 -3.17305 1.18471 0
M  V30 11398 C 1070.89 -3.55969 2.34922 0
M  V30 11399 S 1071.72 -3.58884 3.97445 0
M  V30 11400 C 1072.88 -4.98519 3.78457 0
M  V30 11401 H 1073.11 -1.82152 2.34964 0
M  V30 11402 H 1070.65 -0.84932 1.28942 0
M  V30 11403 H 1072.6 -3.96348 1.06856 0
M  V30 11404 H 1071.26 -3.13112 0.248944 0
M  V30 11405 H 1070.46 -4.55491 2.1574 0
M  V30 11406 H 1070.06 -2.84275 2.4303 0
M  V30 11407 H 1072.35 -5.86481 3.39184 0
M  V30 11408 H 1073.29 -5.22748 4.77641 0
M  V30 11409 H 1073.7 -4.70836 3.11406 0
M  V30 11410 N 1073.1 -1.28322 -0.914942 0
M  V30 11411 C 1074.05 -1.12003 -2.03858 0
M  V30 11412 C 1075.04 -0.0396287 -1.69354 0
M  V30 11413 O 1076.25 -0.198309 -1.78904 0
M  V30 11414 H 1072.62 -0.34552 -0.667922 0
M  V30 11415 H 1074.59 -2.07168 -2.14765 0
M  V30 11416 C 1073.34 -0.797402 -3.38433 0
M  V30 11417 H 1072.67 -1.62071 -3.65476 0
M  V30 11418 H 1074.11 -0.723165 -4.17787 0
M  V30 11419 C 1072.57 0.498807 -3.33187 0
M  V30 11420 O 1073.1 1.52946 -3.71444 0
M  V30 11421 N 1071.3 0.499101 -2.86282 0
M  V30 11422 H 1070.85 -0.340056 -2.55346 0
M  V30 11423 H 1070.81 1.36641 -2.83155 0
M  V30 11424 N 1074.58 1.12322 -1.10551 0
M  V30 11425 C 1075.49 2.21678 -0.767862 0
M  V30 11426 C 1076.5 1.72404 0.235132 0
M  V30 11427 O 1077.68 2.01266 0.0735912 0
M  V30 11428 C 1074.75 3.46087 -0.205999 0
M  V30 11429 C 1073.81 4.10195 -1.26642 0
M  V30 11430 C 1073.04 5.28666 -0.731274 0
M  V30 11431 O 1073.26 5.68686 0.44189 0
M  V30 11432 O 1072.2 5.83121 -1.49176 0
M  V30 11433 H 1076.02 2.52955 -1.6807 0
M  V30 11434 H 1073.61 1.2068 -0.880728 0
M  V30 11435 H 1075.49 4.21273 0.103435 0
M  V30 11436 H 1074.16 3.16484 0.679685 0
M  V30 11437 H 1073.07 3.36784 -1.62873 0
M  V30 11438 H 1074.4 4.43957 -2.12516 0
M  V30 11439 N 1076.06 0.894434 1.2976 0
M  V30 11440 C 1077.29 0.532143 1.99629 0
M  V30 11441 C 1077.69 -0.886234 1.6716 0
M  V30 11442 O 1077.04 -1.59573 0.910065 0
M  V30 11443 C 1077.1 0.638335 3.53787 0
M  V30 11444 C 1076.76 2.02273 4.09798 0
M  V30 11445 C 1077.76 2.99327 4.25087 0
M  V30 11446 C 1075.45 2.33069 4.44954 0
M  V30 11447 C 1077.44 4.25304 4.74758 0
M  V30 11448 C 1075.13 3.59289 4.94322 0
M  V30 11449 C 1076.12 4.55222 5.09178 0
M  V30 11450 O 1075.81 5.79202 5.57477 0
M  V30 11451 H 1075.54 0.203326 0.644697 0
M  V30 11452 H 1078.1 1.2043 1.6639 0
M  V30 11453 H 1076.33 -0.0908338 3.86593 0
M  V30 11454 H 1078.02 0.285956 4.04891 0
M  V30 11455 H 1078.78 2.76849 3.9822 0
M  V30 11456 H 1074.66 1.59162 4.32653 0
M  V30 11457 H 1078.21 5.00189 4.86269 0
M  V30 11458 H 1074.1 3.816 5.20626 0
M  V30 11459 H 1074.87 5.81717 5.75802 0
M  V30 11460 N 1077.53 -1.43282 0.656365 0
M  V30 11461 C 1078.76 -2.05826 0.178619 0
M  V30 11462 C 1079.17 -1.493 -1.16216 0
M  V30 11463 O 1078.52 -0.620163 -1.72915 0
M  V30 11464 C 1078.58 -3.59496 0.0164101 0
M  V30 11465 C 1078.24 -4.38621 1.28298 0
M  V30 11466 C 1079.24 -4.70477 2.21241 0
M  V30 11467 C 1076.92 -4.78577 1.52544 0
M  V30 11468 C 1078.92 -5.412 3.36721 0
M  V30 11469 C 1076.6 -5.49044 2.68316 0
M  V30 11470 C 1077.6 -5.80279 3.6023 0
M  V30 11471 O 1077.29 -6.49306 4.7398 0
M  V30 11472 H 1077.02 -0.670158 0.0886814 0
M  V30 11473 H 1079.58 -1.84722 0.89816 0
M  V30 11474 H 1077.81 -3.79188 -0.758532 0
M  V30 11475 H 1079.5 -4.03731 -0.419096 0
M  V30 11476 H 1080.26 -4.40125 2.03753 0
M  V30 11477 H 1076.14 -4.5367 0.818816 0
M  V30 11478 H 1079.68 -5.65497 4.08483 0
M  V30 11479 H 1075.58 -5.78813 2.85738 0
M  V30 11480 H 1076.35 -6.67789 4.73286 0
M  V30 11481 N 1079.01 -0.398486 -1.52479 0
M  V30 11482 C 1080.43 -0.0488635 -1.59525 0
M  V30 11483 C 1080.63 1.43756 -1.41197 0
M  V30 11484 O 1079.69 2.20317 -1.23357 0
M  V30 11485 C 1081 -0.534262 -2.95916 0
M  V30 11486 C 1082.55 -0.491314 -3.0912 0
M  V30 11487 C 1083.02 -0.953049 -4.47974 0
M  V30 11488 N 1084.51 -0.909434 -4.54184 0
M  V30 11489 C 1085.25 -1.23801 -5.59876 0
M  V30 11490 N 1084.74 -1.63752 -6.73169 0
M  V30 11491 N 1086.54 -1.15867 -5.50028 0
M  V30 11492 H 1078.69 -1.36608 -1.62641 0
M  V30 11493 H 1080.95 -0.560515 -0.764544 0
M  V30 11494 H 1080.66 -1.57277 -3.14574 0
M  V30 11495 H 1080.53 0.0617787 -3.77149 0
M  V30 11496 H 1082.92 0.538123 -2.90152 0
M  V30 11497 H 1083 -1.12327 -2.29818 0
M  V30 11498 H 1082.64 -1.98076 -4.67684 0
M  V30 11499 H 1082.57 -0.298007 -5.25756 0
M  V30 11500 H 1085.06 -0.615569 -3.72853 0
M  V30 11501 H 1085.38 -1.87163 -7.49793 0
M  V30 11502 H 1083.72 -1.67647 -6.74477 0
M  V30 11503 H 1086.91 -0.845502 -4.60401 0
M  V30 11504 H 1087.09 -1.41805 -6.32294 0
M  V30 11505 N 1080.49 1.57075 -0.12858 0
M  V30 11506 C 1081.42 2.12907 0.848708 0
M  V30 11507 C 1082.44 1.07406 1.22343 0
M  V30 11508 O 1083.63 1.34746 1.17071 0
M  V30 11509 C 1080.73 2.62167 2.1476 0
M  V30 11510 C 1079.9 3.91871 1.94309 0
M  V30 11511 C 1078.96 4.26629 3.08016 0
M  V30 11512 O 1077.98 4.9528 2.80511 0
M  V30 11513 N 1079.19 3.84721 4.34706 0
M  V30 11514 H 1081.95 2.97387 0.371636 0
M  V30 11515 H 1079.51 1.61805 0.0555574 0
M  V30 11516 H 1081.5 2.82444 2.89841 0
M  V30 11517 H 1080.07 1.82514 2.53786 0
M  V30 11518 H 1079.29 3.80406 1.03367 0
M  V30 11519 H 1080.58 4.76662 1.77962 0
M  V30 11520 H 1079.98 3.2937 4.59926 0
M  V30 11521 H 1078.54 4.10087 5.06628 0
M  V30 11522 N 1081.97 -0.145205 1.5693 0
M  V30 11523 C 1083.39 -0.497905 1.51635 0
M  V30 11524 C 1083.59 -1.8328 0.837301 0
M  V30 11525 O 1082.64 -2.49172 0.408584 0
M  V30 11526 C 1083.95 -0.506557 2.96403 0
M  V30 11527 C 1085.5 -0.591947 3.07352 0
M  V30 11528 C 1085.98 -0.631244 4.53629 0
M  V30 11529 N 1087.47 -0.693417 4.5798 0
M  V30 11530 C 1088.2 -0.744836 5.68542 0
M  V30 11531 N 1087.7 -0.755492 6.88668 0
M  V30 11532 N 1089.49 -0.785854 5.5658 0
M  V30 11533 H 1081.64 0.729779 1.99469 0
M  V30 11534 H 1083.91 0.266295 0.90983 0
M  V30 11535 H 1083.61 0.406127 3.49347 0
M  V30 11536 H 1083.49 -1.34383 3.5245 0
M  V30 11537 H 1085.87 -1.49505 2.54425 0
M  V30 11538 H 1085.95 0.272507 2.54344 0
M  V30 11539 H 1085.6 0.26771 5.07194 0
M  V30 11540 H 1085.53 -1.51221 5.0442 0
M  V30 11541 H 1088.02 -0.692408 3.71503 0
M  V30 11542 H 1088.33 -0.796624 7.68683 0
M  V30 11543 H 1086.68 -0.723339 6.91226 0
M  V30 11544 H 1089.87 -0.774712 4.61645 0
M  V30 11545 H 1090.04 -0.822461 6.42759 0
M  V30 11546 N 1083.45 -1.52049 -0.414609 0
M  V30 11547 C 1084.4 -1.75603 -1.52533 0
M  V30 11548 C 1085.39 -0.622965 -1.57529 0
M  V30 11549 O 1086.6 -0.804886 -1.61002 0
M  V30 11550 H 1082.97 -0.555222 -0.507181 0
M  V30 11551 H 1084.94 -2.68666 -1.2985 0
M  V30 11552 C 1083.69 -1.9188 -2.89961 0
M  V30 11553 H 1083.01 -2.78483 -2.86857 0
M  V30 11554 H 1084.45 -2.12363 -3.66985 0
M  V30 11555 C 1082.91 -0.684453 -3.29874 0
M  V30 11556 O 1083.44 0.150256 -4.01419 0
M  V30 11557 N 1081.65 -0.521936 -2.85874 0
M  V30 11558 H 1081.2 -1.20229 -2.27822 0
M  V30 11559 H 1081.15 0.302655 -3.1294 0
M  V30 11560 N 1084.93 0.6715 -1.42579 0
M  V30 11561 C 1086.17 1.44353 -1.44712 0
M  V30 11562 C 1086.53 1.91898 -0.0626628 0
M  V30 11563 O 1087.73 2.68768 0.0412789 0
M  V30 11564 C 1086 2.60616 -2.44569 0
M  V30 11565 S 1087.56 3.49416 -2.65431 0
M  V30 11566 H 1084.38 0.492985 -0.512334 0
M  V30 11567 H 1086.98 0.781349 -1.79207 0
M  V30 11568 H 1085.68 2.23931 -3.43923 0
M  V30 11569 H 1085.22 3.31703 -2.1151 0
M  V30 11570 H 1087.23 4.56712 -1.9398 0
M  V30 11571 N 1086.4 1.28806 0.908124 0
M  V30 11572 C 1087.35 1.13083 2.03261 0
M  V30 11573 C 1088.35 0.0486094 1.6933 0
M  V30 11574 O 1089.55 0.207794 1.78797 0
M  V30 11575 H 1085.93 0.349057 0.666081 0
M  V30 11576 H 1087.9 2.08304 2.13663 0
M  V30 11577 C 1086.65 0.815339 3.38005 0
M  V30 11578 H 1085.97 1.64007 3.64612 0
M  V30 11579 H 1087.41 0.745311 4.17398 0
M  V30 11580 C 1085.87 -0.48113 3.33447 0
M  V30 11581 O 1086.4 -1.50974 3.7225 0
M  V30 11582 N 1084.6 -0.483912 2.86543 0
M  V30 11583 H 1084.15 0.353593 2.55162 0
M  V30 11584 H 1084.11 -1.35138 2.83875 0
M  V30 11585 N 1087.88 -1.11734 1.11145 0
M  V30 11586 C 1088.81 -2.1976 0.789152 0
M  V30 11587 C 1089.79 -1.68382 -0.241143 0
M  V30 11588 O 1090.98 -1.93914 -0.105292 0
M  V30 11589 C 1088.11 -3.46549 0.228204 0
M  V30 11590 C 1087.06 -4.11123 1.19002 0
M  V30 11591 C 1086.39 -5.32451 0.489928 0
M  V30 11592 C 1087.69 -4.56406 2.53951 0
M  V30 11593 H 1089.38 -2.46978 1.69241 0
M  V30 11594 H 1086.93 -1.18705 0.81517 0
M  V30 11595 H 1088.88 -4.21399 -0.00945908 0
M  V30 11596 H 1087.6 -3.18782 -0.71033 0
M  V30 11597 H 1086.26 -3.38264 1.41326 0
M  V30 11598 H 1085.91 -5.00953 -0.453315 0
M  V30 11599 H 1085.61 -5.76605 1.1314 0
M  V30 11600 H 1087.14 -6.10042 0.260984 0
M  V30 11601 H 1088.55 -5.22592 2.35733 0
M  V30 11602 H 1086.95 -5.11363 3.14051 0
M  V30 11603 H 1088.02 -3.7001 3.13402 0
M  V30 11604 N 1089.36 -0.901303 -1.29284 0
M  V30 11605 C 1090.59 -0.543511 -1.99634 0
M  V30 11606 C 1091 0.872154 -1.67448 0
M  V30 11607 O 1090.36 1.57591 -0.920406 0
M  V30 11608 C 1090.41 -0.728148 -3.54091 0
M  V30 11609 O 1090.13 -2.08809 -3.85137 0
M  V30 11610 C 1091.63 -0.375519 -4.41707 0
M  V30 11611 H 1088.85 -0.208405 -0.637815 0
M  V30 11612 H 1091.4 -1.21109 -1.64781 0
M  V30 11613 H 1089.55 -0.107728 -3.8725 0
M  V30 11614 H 1089.97 -2.11863 -4.79807 0
M  V30 11615 H 1091.44 -0.555538 -5.49197 0
M  V30 11616 H 1091.92 0.687532 -4.33785 0
M  V30 11617 H 1092.52 -0.972949 -4.14021 0
M  V30 11618 N 1090.84 1.42931 -0.663954 0
M  V30 11619 C 1091.77 2.29122 0.0598878 0
M  V30 11620 C 1092.78 1.43094 0.776404 0
M  V30 11621 O 1093.97 1.66923 0.63237 0
M  V30 11622 C 1091.07 3.20268 1.10822 0
M  V30 11623 C 1090.24 4.34892 0.4677 0
M  V30 11624 C 1089.3 5.06836 1.41435 0
M  V30 11625 O 1088.33 5.61735 0.918818 0
M  V30 11626 N 1089.53 5.11336 2.74801 0
M  V30 11627 H 1092.3 2.91885 -0.679945 0
M  V30 11628 H 1089.86 1.53739 -0.507543 0
M  V30 11629 H 1091.85 3.65264 1.74255 0
M  V30 11630 H 1090.42 2.59031 1.7499 0
M  V30 11631 H 1089.64 3.92679 -0.34593 0
M  V30 11632 H 1090.93 5.08796 0.0210237 0
M  V30 11633 H 1090.33 4.68124 3.1761 0
M  V30 11634 H 1088.88 5.60013 3.33509 0
M  V30 11635 N 1092.32 0.406567 1.52266 0
M  V30 11636 C 1093.56 -0.171391 2.00971 0
M  V30 11637 C 1093.88 -1.46443 1.29668 0
M  V30 11638 O 1095.08 -2.12348 1.69176 0
M  V30 11639 C 1093.54 -0.35599 3.58135 0
M  V30 11640 C 1093.15 0.924803 4.38351 0
M  V30 11641 C 1094.89 -0.889378 4.15079 0
M  V30 11642 C 1092.8 0.707534 5.87152 0
M  V30 11643 H 1091.73 -0.0678253 0.750943 0
M  V30 11644 H 1094.38 0.531619 1.7563 0
M  V30 11645 H 1092.76 -1.12127 3.79794 0
M  V30 11646 H 1093.94 1.69603 4.28452 0
M  V30 11647 H 1092.25 1.38442 3.92712 0
M  V30 11648 H 1094.85 -1.06792 5.23927 0
M  V30 11649 H 1095.19 -1.86334 3.7227 0
M  V30 11650 H 1095.72 -0.183224 3.97378 0
M  V30 11651 H 1092.46 1.65299 6.34316 0
M  V30 11652 H 1091.98 -0.024446 5.99795 0
M  V30 11653 H 1093.66 0.348721 6.4606 0
M  V30 11654 N 1093.79 -1.57004 0.136909 0
M  V30 11655 C 1095.04 -1.9541 -0.51569 0
M  V30 11656 C 1095.36 -1.02219 -1.66061 0
M  V30 11657 O 1094.63 -0.0818172 -1.95729 0
M  V30 11658 H 1093.21 -0.721504 -0.193497 0
M  V30 11659 H 1095.88 -1.93765 0.210046 0
M  V30 11660 H 1094.97 -2.98887 -0.898494 0
M  V30 11661 N 1095.27 0.136881 -1.57004 0
M  V30 11662 C 1096.52 0.8461 -1.83536 0
M  V30 11663 C 1096.84 1.81246 -0.71937 0
M  V30 11664 O 1096.11 1.94191 0.258161 0
M  V30 11665 H 1094.69 0.315446 -0.677128 0
M  V30 11666 H 1097.35 0.128469 -1.94476 0
M  V30 11667 H 1096.45 1.40221 -2.78827 0
M  V30 11668 N 1096.75 1.52266 0.40654 0
M  V30 11669 C 1097.68 1.78755 1.50229 0
M  V30 11670 C 1098.66 0.638652 1.57655 0
M  V30 11671 O 1099.85 0.884505 1.72888 0
M  V30 11672 C 1096.98 1.94057 2.88026 0
M  V30 11673 C 1095.93 3.09667 2.95449 0
M  V30 11674 C 1095.26 3.10196 4.35526 0
M  V30 11675 C 1096.56 4.49077 2.66697 0
M  V30 11676 H 1098.25 2.70511 1.28313 0
M  V30 11677 H 1095.8 1.30167 0.615836 0
M  V30 11678 H 1097.75 2.11171 3.64671 0
M  V30 11679 H 1096.47 0.989755 3.11242 0
M  V30 11680 H 1095.13 2.92308 2.2125 0
M  V30 11681 H 1094.78 2.12831 4.55754 0
M  V30 11682 H 1094.48 3.87847 4.41416 0
M  V30 11683 H 1096 3.29443 5.14101 0
M  V30 11684 H 1097.42 4.66628 3.33064 0
M  V30 11685 H 1095.82 5.28665 2.8396 0
M  V30 11686 H 1096.89 4.56995 1.62122 0
M  V30 11687 N 1098.23 -0.663929 1.42933 0
M  V30 11688 C 1099.16 -1.78899 1.50058 0
M  V30 11689 C 1100.14 -1.66329 0.356164 0
M  V30 11690 O 1101.32 -1.85587 0.571944 0
M  V30 11691 C 1098.45 -3.17265 1.41281 0
M  V30 11692 C 1097.41 -3.44584 2.53861 0
M  V30 11693 C 1096.73 -4.82638 2.3014 0
M  V30 11694 C 1098.03 -3.40394 3.96143 0
M  V30 11695 H 1099.73 -1.73194 2.44222 0
M  V30 11696 H 1097.27 -0.83182 1.17545 0
M  V30 11697 H 1099.23 -3.95715 1.44872 0
M  V30 11698 H 1097.95 -3.23675 0.43616 0
M  V30 11699 H 1096.61 -2.685 2.49606 0
M  V30 11700 H 1096.26 -4.85711 1.30743 0
M  V30 11701 H 1095.96 -5.01879 3.056 0
M  V30 11702 H 1097.48 -5.63359 2.35497 0
M  V30 11703 H 1098.9 -4.08796 4.01943 0
M  V30 11704 H 1097.29 -3.7117 4.71543 0
M  V30 11705 H 1098.36 -2.38767 4.22041 0
M  V30 11706 N 1099.71 -1.29285 -0.901281 0
M  V30 11707 C 1100.98 -1.07847 -1.63182 0
M  V30 11708 C 1101.36 0.377927 -2.07689 0
M  V30 11709 O 1100.71 1.36642 -1.83143 0
M  V30 11710 C 1100.92 -2.06457 -2.81383 0
M  V30 11711 C 1102.27 -2.37289 -3.52107 0
M  V30 11712 O 1103.29 -2.0464 -2.91549 0
M  V30 11713 O 1102.15 -2.93067 -4.61274 0
M  V30 11714 H 1099.25 -0.413073 -0.71645 0
M  V30 11715 H 1101.79 -1.40651 -0.949488 0
M  V30 11716 H 1100.56 -3.04561 -2.4568 0
M  V30 11717 H 1100.19 -1.74374 -3.57323 0
M  V30 11718 N 1101.18 1.11143 -1.11736 0
M  V30 11719 C 1102.41 1.86745 -0.890727 0
M  V30 11720 C 1102.83 1.80315 0.55964 0
M  V30 11721 O 1102.18 1.18663 1.38656 0
M  V30 11722 C 1102.24 3.35436 -1.34779 0
M  V30 11723 O 1101.96 3.41738 -2.74129 0
M  V30 11724 C 1103.46 4.27935 -1.15702 0
M  V30 11725 H 1100.68 0.59044 -0.318781 0
M  V30 11726 H 1103.22 1.40549 -1.48547 0
M  V30 11727 H 1101.38 3.79125 -0.796425 0
M  V30 11728 H 1101.79 4.34347 -2.94012 0
M  V30 11729 H 1103.26 5.30494 -1.52579 0
M  V30 11730 H 1103.74 4.39093 -0.0968735 0
M  V30 11731 H 1104.35 3.90042 -1.69551 0
M  V30 11732 N 1102.66 0.908147 1.28804 0
M  V30 11733 C 1103.61 0.390734 2.27468 0
M  V30 11734 C 1104.58 -0.531765 1.57358 0
M  V30 11735 O 1105.76 -0.455177 1.85291 0
M  V30 11736 C 1102.9 -0.368159 3.43131 0
M  V30 11737 C 1102.02 0.586202 4.28004 0
M  V30 11738 C 1101.15 -0.190581 5.30858 0
M  V30 11739 C 1100.19 0.757758 6.07391 0
M  V30 11740 N 1099.33 0.0148488 7.02098 0
M  V30 11741 H 1104.17 1.23717 2.71105 0
M  V30 11742 H 1101.71 0.621382 1.33331 0
M  V30 11743 H 1103.66 -0.824289 4.08976 0
M  V30 11744 H 1102.29 -1.17898 3.00499 0
M  V30 11745 H 1101.35 1.16086 3.62254 0
M  V30 11746 H 1102.66 1.31177 4.81242 0
M  V30 11747 H 1101.81 -0.707528 6.0256 0
M  V30 11748 H 1100.55 -0.949234 4.78373 0
M  V30 11749 H 1099.56 1.28613 5.34545 0
M  V30 11750 H 1100.78 1.51588 6.61965 0
M  V30 11751 H 1098.73 -0.725916 6.51971 0
M  V30 11752 H 1098.64 0.680347 7.52932 0
M  V30 11753 H 1099.91 -0.482086 7.78008 0
M  V30 11754 N 1104.14 -1.42577 0.671525 0
M  V30 11755 C 1105.39 -2.01185 0.192051 0
M  V30 11756 C 1105.71 -1.53349 -1.20454 0
M  V30 11757 O 1104.98 -0.753781 -1.80817 0
M  V30 11758 H 1103.56 -0.743898 0.0680106 0
M  V30 11759 H 1106.22 -1.74539 0.8673 0
M  V30 11760 H 1105.32 -3.11516 0.190796 0
M  V30 11761 N 1105.62 -0.414636 -1.52048 0
M  V30 11762 C 1106.85 0.158456 -2.05991 0
M  V30 11763 C 1107.26 1.38947 -1.28415 0
M  V30 11764 O 1106.6 1.80698 -0.330728 0
M  V30 11765 C 1106.66 0.568392 -3.54978 0
M  V30 11766 C 1106.33 -0.552654 -4.53646 0
M  V30 11767 C 1107.32 -1.41791 -5.00191 0
M  V30 11768 C 1105.01 -0.726917 -4.97012 0
M  V30 11769 C 1107 -2.44234 -5.88752 0
M  V30 11770 C 1104.69 -1.75464 -5.85368 0
M  V30 11771 C 1105.69 -2.61075 -6.31133 0
M  V30 11772 O 1105.37 -3.62087 -7.17738 0
M  V30 11773 H 1105.11 0.0214746 -0.675659 0
M  V30 11774 H 1107.66 -0.585825 -1.96869 0
M  V30 11775 H 1105.89 1.36504 -3.61806 0
M  V30 11776 H 1107.58 1.07003 -3.91542 0
M  V30 11777 H 1108.35 -1.29471 -4.67399 0
M  V30 11778 H 1104.22 -0.0701964 -4.60947 0
M  V30 11779 H 1107.77 -3.1109 -6.24395 0
M  V30 11780 H 1103.67 -1.87813 -6.17573 0
M  V30 11781 H 1104.43 -3.58396 -7.35863 0
M  V30 11782 N 1107.1 1.56929 -0.145233 0
M  V30 11783 C 1108.34 1.95681 0.50532 0
M  V30 11784 C 1108.67 1.03098 1.65516 0
M  V30 11785 O 1107.94 0.0921961 1.95683 0
M  V30 11786 H 1106.52 0.72252 0.189668 0
M  V30 11787 H 1109.18 1.93651 -0.220318 0
M  V30 11788 H 1108.27 2.99359 0.882631 0
M  V30 11789 N 1108.58 -0.128553 1.57075 0
M  V30 11790 C 1109.82 -0.836536 1.83535 0
M  V30 11791 C 1110.14 -1.81491 0.7294 0
M  V30 11792 O 1111.34 -2.56838 0.880128 0
M  V30 11793 C 1109.8 -1.53836 3.25365 0
M  V30 11794 C 1109.41 -0.601454 4.43944 0
M  V30 11795 C 1111.15 -2.23204 3.61082 0
M  V30 11796 C 1109.06 -1.30596 5.768 0
M  V30 11797 H 1107.99 -0.316142 0.684522 0
M  V30 11798 H 1110.64 -0.0892555 1.83283 0
M  V30 11799 H 1109.02 -2.33192 3.20058 0
M  V30 11800 H 1110.2 0.158209 4.60528 0
M  V30 11801 H 1108.51 -0.0152393 4.16397 0
M  V30 11802 H 1111.11 -2.76585 4.57608 0
M  V30 11803 H 1111.45 -3.0056 2.88044 0
M  V30 11804 H 1111.98 -1.50746 3.68131 0
M  V30 11805 H 1108.72 -0.573874 6.52983 0
M  V30 11806 H 1108.24 -2.03787 5.6412 0
M  V30 11807 H 1109.92 -1.8418 6.20231 0
M  V30 11808 N 1110.05 -1.5248 -0.398459 0
M  V30 11809 C 1111.3 -1.66731 -1.14215 0
M  V30 11810 C 1111.62 -0.404957 -1.90749 0
M  V30 11811 O 1110.89 0.580434 -1.87104 0
M  V30 11812 H 1109.47 -0.614577 -0.424622 0
M  V30 11813 H 1112.13 -1.89561 -0.453059 0
M  V30 11814 H 1111.23 -2.51336 -1.85031 0
M  V30 11815 N 1111.53 0.65634 -1.43283 0
M  V30 11816 C 1112.46 1.78122 -1.42646 0
M  V30 11817 C 1113.44 1.60024 -0.288301 0
M  V30 11818 O 1114.63 1.82249 -0.481407 0
M  V30 11819 C 1111.75 3.1538 -1.23505 0
M  V30 11820 C 1110.8 3.52186 -2.40556 0
M  V30 11821 S 1111.63 3.52515 -4.03105 0
M  V30 11822 C 1112.79 4.92435 -3.8634 0
M  V30 11823 H 1113.02 1.78391 -2.37832 0
M  V30 11824 H 1110.55 0.828699 -1.30276 0
M  V30 11825 H 1112.51 3.94598 -1.13148 0
M  V30 11826 H 1111.17 3.12676 -0.298726 0
M  V30 11827 H 1110.37 4.52002 -2.22959 0
M  V30 11828 H 1109.97 2.80373 -2.47522 0
M  V30 11829 H 1112.26 5.81011 -3.48472 0
M  V30 11830 H 1113.2 5.15082 -4.85897 0
M  V30 11831 H 1113.61 4.65823 -3.18857 0
M  V30 11832 N 1113.01 1.29761 0.894412 0
M  V30 11833 C 1114.42 1.16275 1.46072 0
M  V30 11834 C 1114.77 -0.240123 1.94725 0
M  V30 11835 O 1113.9 -1.13606 1.84181 0
M  V30 11836 C 1114.49 2.10471 2.65494 0
M  V30 11837 C 1113.05 2.00992 3.18244 0
M  V30 11838 C 1112.2 2.01094 1.90936 0
M  V30 11839 H 1115.15 1.42169 0.705243 0
M  V30 11840 H 1115.17 1.68003 3.41402 0
M  V30 11841 H 1114.68 3.12566 2.30053 0
M  V30 11842 H 1112.78 1.02005 3.58365 0
M  V30 11843 H 1112.9 2.88916 3.82184 0
M  V30 11844 H 1111.26 1.45764 2.08866 0
M  V30 11845 H 1112.04 3.04902 1.57764 0
M  V30 11846 N 1114.49 -1.10549 1.12324 0
M  V30 11847 C 1115.73 -1.82755 0.879117 0
M  V30 11848 C 1116.07 -1.84905 -0.593604 0
M  V30 11849 O 1115.34 -1.30884 -1.43873 0
M  V30 11850 C 1115.62 -3.29481 1.45308 0
M  V30 11851 C 1115.48 -3.3567 2.99408 0
M  V30 11852 C 1116.8 -4.25828 1.11167 0
M  V30 11853 H 1113.92 -0.663513 0.32081 0
M  V30 11854 H 1116.56 -1.29572 1.38965 0
M  V30 11855 H 1114.71 -3.74902 1.01887 0
M  V30 11856 H 1116.38 -2.98739 3.515 0
M  V30 11857 H 1114.62 -2.75606 3.34998 0
M  V30 11858 H 1115.29 -4.38983 3.34661 0
M  V30 11859 H 1117.77 -3.88635 1.48667 0
M  V30 11860 H 1116.65 -5.26857 1.53991 0
M  V30 11861 H 1116.91 -4.42094 0.0237046 0
M  V30 11862 N 1115.97 -0.914965 -1.28321 0
M  V30 11863 C 1117.21 -0.547665 -1.94538 0
M  V30 11864 C 1117.53 0.911834 -1.72368 0
M  V30 11865 O 1116.8 1.64481 -1.06408 0
M  V30 11866 H 1115.38 -0.199549 -0.719853 0
M  V30 11867 H 1118.05 -1.16459 -1.5628 0
M  V30 11868 H 1117.14 -0.743138 -3.03124 0
M  V30 11869 N 1117.44 1.42219 -0.679077 0
M  V30 11870 C 1118.67 2.06333 -0.210097 0
M  V30 11871 C 1119.09 1.50703 1.12562 0
M  V30 11872 O 1118.45 0.627241 1.70104 0
M  V30 11873 C 1118.5 3.60243 -0.160322 0
M  V30 11874 O 1117.6 4.03122 0.869872 0
M  V30 11875 H 1116.94 0.655362 -0.106754 0
M  V30 11876 H 1119.47 1.82278 -0.929294 0
M  V30 11877 H 1119.48 4.07997 0.014384 0
M  V30 11878 H 1118.16 4.00106 -1.13526 0
M  V30 11879 H 1116.74 3.66907 0.66586 0
M  V30 11880 N 1118.92 0.422693 1.51826 0
M  V30 11881 C 1120.17 -0.148861 2.02253 0
M  V30 11882 C 1120.5 -1.43629 1.30707 0
M  V30 11883 O 1119.78 -1.89967 0.417482 0
M  V30 11884 C 1120.06 -0.382672 3.58061 0
M  V30 11885 C 1119.91 0.922386 4.40241 0
M  V30 11886 C 1121.23 -1.1589 4.24567 0
M  V30 11887 H 1118.35 -0.0526279 0.735119 0
M  V30 11888 H 1120.99 0.558821 1.81596 0
M  V30 11889 H 1119.14 -0.985495 3.75793 0
M  V30 11890 H 1120.81 1.55806 4.34191 0
M  V30 11891 H 1119.06 1.53032 4.05911 0
M  V30 11892 H 1119.73 0.713012 5.47376 0
M  V30 11893 H 1122.2 -0.648415 4.11017 0
M  V30 11894 H 1121.08 -1.29125 5.33496 0
M  V30 11895 H 1121.34 -2.18315 3.84436 0
M  V30 11896 N 1120.4 -1.5685 0.153553 0
M  V30 11897 C 1121.65 -1.96334 -0.495915 0
M  V30 11898 C 1121.97 -1.03873 -1.64441 0
M  V30 11899 O 1121.23 -0.069231 -1.95578 0
M  V30 11900 C 1121.53 -3.42022 -1.0371 0
M  V30 11901 C 1121.19 -4.509 -0.00637049 0
M  V30 11902 C 1119.86 -4.80402 0.276956 0
M  V30 11903 C 1122.21 -5.16556 0.694187 0
M  V30 11904 C 1119.54 -5.72866 1.26653 0
M  V30 11905 C 1121.89 -6.10087 1.67263 0
M  V30 11906 C 1120.55 -6.37965 1.96359 0
M  V30 11907 H 1119.82 -0.718436 -0.181468 0
M  V30 11908 H 1122.47 -1.89968 0.241768 0
M  V30 11909 H 1120.77 -3.45252 -1.85225 0
M  V30 11910 H 1122.47 -3.69903 -1.54831 0
M  V30 11911 H 1119.06 -4.27942 -0.237378 0
M  V30 11912 H 1123.25 -4.9389 0.488496 0
M  V30 11913 H 1118.5 -5.92756 1.49833 0
M  V30 11914 H 1122.68 -6.60036 2.22094 0
M  V30 11915 H 1120.3 -7.09416 2.73189 0
M  V30 11916 N 1121.88 0.120221 -1.57141 0
M  V30 11917 C 1123.29 0.473718 -1.52408 0
M  V30 11918 C 1123.49 1.81925 -0.866354 0
M  V30 11919 O 1122.55 2.48491 -0.448173 0
M  V30 11920 C 1123.86 0.459338 -2.97171 0
M  V30 11921 C 1125.41 0.542975 -3.08254 0
M  V30 11922 C 1125.89 0.558996 -4.54576 0
M  V30 11923 N 1127.38 0.620469 -4.59026 0
M  V30 11924 C 1128.11 0.654292 -5.69655 0
M  V30 11925 N 1127.61 0.645835 -6.89783 0
M  V30 11926 N 1129.4 0.697208 -5.57759 0
M  V30 11927 H 1121.55 -0.76142 -1.98283 0
M  V30 11928 H 1123.81 -0.280736 -0.905479 0
M  V30 11929 H 1123.52 -0.461654 -3.48657 0
M  V30 11930 H 1123.39 1.28759 -3.54543 0
M  V30 11931 H 1125.78 1.45439 -2.56772 0
M  V30 11932 H 1125.86 -0.312936 -2.53879 0
M  V30 11933 H 1125.51 -0.348367 -5.06704 0
M  V30 11934 H 1125.44 1.43177 -5.06762 0
M  V30 11935 H 1127.93 0.633218 -3.72557 0
M  V30 11936 H 1128.24 0.674233 -7.69853 0
M  V30 11937 H 1126.59 0.613279 -6.92289 0
M  V30 11938 H 1129.78 0.70117 -4.62819 0
M  V30 11939 H 1129.95 0.7201 -6.43986 0
M  V30 11940 N 1123.36 1.52689 0.390367 0
M  V30 11941 C 1124.63 1.58246 1.14968 0
M  V30 11942 C 1125.01 0.374808 2.07746 0
M  V30 11943 O 1124.36 -0.636969 2.19442 0
M  V30 11944 C 1124.57 2.92059 1.91056 0
M  V30 11945 C 1125.92 3.45745 2.46466 0
M  V30 11946 O 1126.94 2.93924 2.01214 0
M  V30 11947 O 1125.8 4.3628 3.29122 0
M  V30 11948 H 1122.9 0.638189 0.52597 0
M  V30 11949 H 1125.44 1.65024 0.39563 0
M  V30 11950 H 1124.21 3.71399 1.23201 0
M  V30 11951 H 1123.84 2.8866 2.73425 0
M  V30 11952 N 1124.83 -0.648732 1.43629 0
M  V30 11953 C 1125.74 -1.79046 1.51591 0
M  V30 11954 C 1126.76 -1.69276 0.402697 0
M  V30 11955 O 1127.94 -1.90366 0.657484 0
M  V30 11956 C 1125 -3.15347 1.44073 0
M  V30 11957 C 1124.06 -3.3688 2.66102 0
M  V30 11958 C 1123.3 -4.66679 2.58933 0
M  V30 11959 O 1123.52 -5.46328 1.63956 0
M  V30 11960 O 1122.45 -4.9003 3.49506 0
M  V30 11961 H 1126.28 -1.75283 2.48011 0
M  V30 11962 H 1123.86 -0.807774 1.2568 0
M  V30 11963 H 1125.75 -3.96633 1.42339 0
M  V30 11964 H 1124.42 -3.19691 0.50789 0
M  V30 11965 H 1123.33 -2.55341 2.73407 0
M  V30 11966 H 1124.66 -3.37386 3.58373 0
M  V30 11967 N 1126.31 -1.30234 -0.887518 0
M  V30 11968 C 1127.56 -1.1891 -1.6391 0
M  V30 11969 C 1127.89 0.256749 -1.92798 0
M  V30 11970 O 1127.14 1.20047 -1.54555 0
M  V30 11971 C 1127.44 -1.96046 -2.98832 0
M  V30 11972 C 1127.11 -3.45683 -2.89507 0
M  V30 11973 C 1125.77 -3.86489 -2.8667 0
M  V30 11974 C 1128.12 -4.40983 -2.7782 0
M  V30 11975 C 1125.45 -5.2089 -2.69982 0
M  V30 11976 C 1127.8 -5.75489 -2.6267 0
M  V30 11977 C 1126.47 -6.15537 -2.58207 0
M  V30 11978 H 1125.74 -0.435123 -0.599791 0
M  V30 11979 H 1128.38 -1.61308 -1.03209 0
M  V30 11980 H 1126.69 -1.46275 -3.6347 0
M  V30 11981 H 1128.38 -1.84678 -3.55942 0
M  V30 11982 H 1124.97 -3.13255 -2.92523 0
M  V30 11983 H 1129.16 -4.10401 -2.79079 0
M  V30 11984 H 1124.41 -5.51014 -2.6494 0
M  V30 11985 H 1128.59 -6.48973 -2.526 0
M  V30 11986 H 1126.22 -7.19627 -2.45034 0
M  V30 11987 N 1127.79 1.09952 -1.12909 0
M  V30 11988 C 1129.07 1.78547 -0.798767 0
M  V30 11989 C 1129.45 1.9878 0.710624 0
M  V30 11990 O 1128.8 1.58485 1.64604 0
M  V30 11991 C 1129.01 3.1121 -1.57953 0
M  V30 11992 C 1130.35 3.86006 -1.76874 0
M  V30 11993 O 1131.38 3.20946 -1.54506 0
M  V30 11994 O 1130.24 5.02791 -2.14158 0
M  V30 11995 H 1127.33 0.774084 -0.291072 0
M  V30 11996 H 1129.88 1.16557 -1.2334 0
M  V30 11997 H 1128.65 2.91935 -2.60557 0
M  V30 11998 H 1128.27 3.80922 -1.13948 0
M  V30 11999 N 1129.27 0.921757 1.27833 0
M  V30 12000 C 1130.2 0.433466 2.29441 0
M  V30 12001 C 1131.18 -0.503133 1.62489 0
M  V30 12002 O 1132.36 -0.409156 1.89841 0
M  V30 12003 C 1129.49 -0.320029 3.45822 0
M  V30 12004 C 1128.45 0.528178 4.24728 0
M  V30 12005 C 1127.77 -0.354132 5.33526 0
M  V30 12006 C 1129.07 1.78959 4.90684 0
M  V30 12007 H 1130.77 1.28263 2.70535 0
M  V30 12008 H 1128.31 0.618197 1.30055 0
M  V30 12009 H 1130.27 -0.672526 4.15999 0
M  V30 12010 H 1128.99 -1.20317 3.0363 0
M  V30 12011 H 1127.65 0.863302 3.5629 0
M  V30 12012 H 1127.3 -1.23605 4.87576 0
M  V30 12013 H 1127 0.209855 5.87225 0
M  V30 12014 H 1128.52 -0.702333 6.06547 0
M  V30 12015 H 1129.94 1.50552 5.53179 0
M  V30 12016 H 1128.33 2.29661 5.54415 0
M  V30 12017 H 1129.4 2.51265 4.14721 0
M  V30 12018 N 1130.75 -1.41857 0.686609 0
M  V30 12019 C 1131.71 -2.29187 0.0247022 0
M  V30 12020 C 1132.71 -1.43926 -0.717069 0
M  V30 12021 O 1133.9 -1.65179 -0.5533 0
M  V30 12022 C 1131.03 -3.26644 -0.975537 0
M  V30 12023 H 1132.22 -2.89212 0.793503 0
M  V30 12024 H 1129.78 -1.49694 0.449605 0
M  V30 12025 H 1130.51 -2.7158 -1.77242 0
M  V30 12026 H 1130.3 -3.89545 -0.446892 0
M  V30 12027 H 1131.79 -3.92107 -1.43673 0
M  V30 12028 N 1132.22 -0.430739 -1.51599 0
M  V30 12029 C 1133.47 0.139396 -2.01218 0
M  V30 12030 C 1133.79 1.44361 -1.31982 0
M  V30 12031 O 1134.99 2.0963 -1.72533 0
M  V30 12032 C 1133.45 0.298969 -3.58656 0
M  V30 12033 C 1133.06 -0.994424 -4.36824 0
M  V30 12034 C 1134.8 0.82323 -4.16441 0
M  V30 12035 C 1132.71 -0.800855 -5.85952 0
M  V30 12036 H 1131.64 0.0558698 -0.751927 0
M  V30 12037 H 1134.29 -0.559493 -1.74762 0
M  V30 12038 H 1132.67 1.06071 -3.8153 0
M  V30 12039 H 1133.84 -1.76398 -4.257 0
M  V30 12040 H 1132.16 -1.44672 -3.9046 0
M  V30 12041 H 1134.76 0.984434 -5.2556 0
M  V30 12042 H 1135.1 1.80388 -3.75188 0
M  V30 12043 H 1135.63 0.119982 -3.97619 0
M  V30 12044 H 1132.37 -1.75369 -6.31606 0
M  V30 12045 H 1131.89 -0.0709793 -5.99758 0
M  V30 12046 H 1133.57 -0.451459 -6.45423 0
M  V30 12047 N 1133.7 1.56767 -0.161869 0
M  V30 12048 C 1134.63 2.20511 0.767918 0
M  V30 12049 C 1135.61 1.15783 1.24612 0
M  V30 12050 O 1136.8 1.44179 1.301 0
M  V30 12051 C 1133.93 2.83844 2.00125 0
M  V30 12052 C 1132.88 3.94528 1.65926 0
M  V30 12053 C 1132.21 4.44866 2.96646 0
M  V30 12054 C 1133.51 5.14583 0.894497 0
M  V30 12055 H 1135.2 2.98464 0.236607 0
M  V30 12056 H 1132.75 1.43561 0.112363 0
M  V30 12057 H 1134.7 3.27109 2.65664 0
M  V30 12058 H 1133.43 2.03246 2.55654 0
M  V30 12059 H 1132.08 3.51904 1.02759 0
M  V30 12060 H 1131.73 3.61071 3.50196 0
M  V30 12061 H 1131.43 5.19531 2.74521 0
M  V30 12062 H 1132.96 4.90812 3.6323 0
M  V30 12063 H 1134.37 5.54601 1.45228 0
M  V30 12064 H 1132.77 5.95105 0.772636 0
M  V30 12065 H 1133.84 4.84773 -0.110986 0
M  V30 12066 N 1135.18 -0.111886 1.57202 0
M  V30 12067 C 1136.11 -1.16274 1.97517 0
M  V30 12068 C 1137.13 -1.37259 0.875425 0
M  V30 12069 O 1138.31 -1.36208 1.15367 0
M  V30 12070 C 1135.41 -2.52145 2.26442 0
M  V30 12071 C 1134.59 -2.51666 3.57747 0
M  V30 12072 C 1133.65 -3.69337 3.74802 0
M  V30 12073 O 1132.67 -3.52596 4.46839 0
M  V30 12074 N 1133.87 -4.88177 3.14108 0
M  V30 12075 H 1136.64 -0.819747 2.88271 0
M  V30 12076 H 1134.2 -0.301076 1.59076 0
M  V30 12077 H 1136.19 -3.29437 2.3506 0
M  V30 12078 H 1134.76 -2.78599 1.41779 0
M  V30 12079 H 1133.98 -1.60038 3.60252 0
M  V30 12080 H 1135.27 -2.48408 4.44039 0
M  V30 12081 H 1134.67 -5.04682 2.55564 0
M  V30 12082 H 1133.23 -5.6312 3.28237 0
M  V30 12083 N 1136.66 -1.52894 -0.382264 0
M  V30 12084 C 1137.59 -1.81122 -1.47367 0
M  V30 12085 C 1138.57 -0.663653 -1.56619 0
M  V30 12086 O 1139.75 -0.911898 -1.71459 0
M  V30 12087 C 1136.88 -1.98615 -2.84902 0
M  V30 12088 C 1135.84 -3.14328 -2.90485 0
M  V30 12089 C 1135.16 -3.17086 -4.30535 0
M  V30 12090 C 1136.46 -4.53263 -2.59519 0
M  V30 12091 H 1138.16 -2.72518 -1.23993 0
M  V30 12092 H 1135.7 -1.3113 -0.595049 0
M  V30 12093 H 1137.66 -2.16946 -3.61265 0
M  V30 12094 H 1136.38 -1.03915 -3.09628 0
M  V30 12095 H 1135.04 -2.95791 -2.16572 0
M  V30 12096 H 1134.69 -2.20055 -4.52311 0
M  V30 12097 H 1134.39 -3.94821 -4.3519 0
M  V30 12098 H 1135.91 -3.3758 -5.08795 0
M  V30 12099 H 1137.33 -4.71867 -3.25598 0
M  V30 12100 H 1135.72 -5.33115 -2.75514 0
M  V30 12101 H 1136.79 -4.59516 -1.54831 0
M  V30 12102 N 1138.14 0.641106 -1.43971 0
M  V30 12103 C 1139.07 1.76645 -1.46046 0
M  V30 12104 C 1140.08 1.58881 -0.355049 0
M  V30 12105 O 1141.27 1.67379 -0.620207 0
M  V30 12106 C 1138.37 3.14237 -1.26918 0
M  V30 12107 C 1137.54 3.5855 -2.50521 0
M  V30 12108 C 1136.6 4.74986 -2.26438 0
M  V30 12109 O 1135.63 4.83807 -2.99866 0
M  V30 12110 N 1136.83 5.66016 -1.28866 0
M  V30 12111 H 1139.6 1.75339 -2.43056 0
M  V30 12112 H 1137.16 0.82535 -1.39282 0
M  V30 12113 H 1139.15 3.89837 -1.0867 0
M  V30 12114 H 1137.72 3.10244 -0.383082 0
M  V30 12115 H 1136.94 2.73265 -2.84112 0
M  V30 12116 H 1138.23 3.84906 -3.32754 0
M  V30 12117 H 1137.63 5.61574 -0.682018 0
M  V30 12118 H 1136.18 6.41286 -1.16599 0
M  V30 12119 N 1139.62 1.30703 0.880598 0
M  V30 12120 C 1140.53 1.19389 2.01949 0
M  V30 12121 C 1141.54 0.112868 1.73634 0
M  V30 12122 O 1142.72 0.328643 1.98701 0
M  V30 12123 C 1139.78 0.891004 3.35055 0
M  V30 12124 C 1138.84 2.05784 3.76764 0
M  V30 12125 C 1138.08 1.76931 5.03519 0
M  V30 12126 O 1138.3 0.699326 5.66097 0
M  V30 12127 O 1137.23 2.623 5.4174 0
M  V30 12128 H 1141.06 2.15073 2.14423 0
M  V30 12129 H 1138.64 1.10339 1.00726 0
M  V30 12130 H 1140.53 0.737476 4.14897 0
M  V30 12131 H 1139.2 -0.0358909 3.2368 0
M  V30 12132 H 1138.11 2.26672 2.97608 0
M  V30 12133 H 1139.44 2.96661 3.9275 0
M  V30 12134 N 1141.09 -1.09351 1.1349 0
M  V30 12135 C 1142.04 -2.18099 0.808426 0
M  V30 12136 C 1143.04 -1.68099 -0.209571 0
M  V30 12137 O 1144.24 -1.79877 -0.0666417 0
M  V30 12138 H 1140.62 -0.711432 0.243658 0
M  V30 12139 H 1142.59 -2.42867 1.73373 0
M  V30 12140 C 1141.34 -3.46475 0.291615 0
M  V30 12141 H 1140.66 -3.85319 1.06627 0
M  V30 12142 H 1142.1 -4.23878 0.101616 0
M  V30 12143 C 1140.56 -3.22245 -0.982827 0
M  V30 12144 O 1141.09 -3.44947 -2.0585 0
M  V30 12145 N 1139.29 -2.75845 -0.914218 0
M  V30 12146 H 1138.84 -2.57571 -0.03872 0
M  V30 12147 H 1138.8 -2.60011 -1.76753 0
M  V30 12148 N 1142.57 -0.928524 -1.27343 0
M  V30 12149 C 1143.52 -0.418768 -2.28799 0
M  V30 12150 C 1144.51 0.497334 -1.61935 0
M  V30 12151 O 1145.72 0.376945 -1.76009 0
M  V30 12152 H 1142.09 -0.116855 -0.742865 0
M  V30 12153 H 1144.07 -1.28725 -2.69207 0
M  V30 12154 C 1142.81 0.312422 -3.46294 0
M  V30 12155 H 1142.14 -0.383317 -3.97958 0
M  V30 12156 H 1143.58 0.633514 -4.19241 0
M  V30 12157 C 1142.04 1.5257 -3.00373 0
M  V30 12158 O 1142.57 2.62443 -3.04116 0
M  V30 12159 N 1140.77 1.37782 -2.5586 0
M  V30 12160 H 1140.32 0.483908 -2.53014 0
M  V30 12161 H 1140.28 2.19085 -2.25498 0
M  V30 12162 N 1144.05 1.41491 -0.694123 0
M  V30 12163 C 1145.47 1.55358 -0.365532 0
M  V30 12164 C 1145.67 1.66994 1.12762 0
M  V30 12165 O 1144.72 1.64756 1.91342 0
M  V30 12166 C 1146.03 2.79352 -1.11279 0
M  V30 12167 C 1147.58 2.93147 -1.097 0
M  V30 12168 C 1148.06 4.20027 -1.82597 0
M  V30 12169 N 1149.55 4.26981 -1.7956 0
M  V30 12170 C 1150.28 5.24013 -2.32805 0
M  V30 12171 N 1149.78 6.27083 -2.94515 0
M  V30 12172 N 1151.57 5.15943 -2.23069 0
M  V30 12173 H 1143.72 1.32183 -1.66257 0
M  V30 12174 H 1145.99 0.637624 -0.701527 0
M  V30 12175 H 1145.69 2.76958 -2.16765 0
M  V30 12176 H 1145.57 3.70827 -0.690439 0
M  V30 12177 H 1147.95 2.95057 -0.0504037 0
M  V30 12178 H 1148.03 2.02849 -1.55839 0
M  V30 12179 H 1147.68 4.18878 -2.87235 0
M  V30 12180 H 1147.61 5.09294 -1.33893 0
M  V30 12181 H 1150.1 3.53129 -1.34567 0
M  V30 12182 H 1150.41 6.97511 -3.32714 0
M  V30 12183 H 1148.76 6.27589 -2.98592 0
M  V30 12184 H 1151.95 4.34346 -1.74532 0
M  V30 12185 H 1152.12 5.91396 -2.64868 0
M  V30 12186 N 1145.53 0.438773 1.51369 0
M  V30 12187 C 1146.46 -0.362467 2.3067 0
M  V30 12188 C 1147.44 -1.01973 1.36145 0
M  V30 12189 O 1148.62 -1.0231 1.65065 0
M  V30 12190 C 1145.75 -1.46313 3.14976 0
M  V30 12191 C 1144.71 -0.929272 4.1779 0
M  V30 12192 C 1144.03 -2.12579 4.90627 0
M  V30 12193 C 1145.33 0.0372782 5.22287 0
M  V30 12194 H 1147.03 0.29931 2.979 0
M  V30 12195 H 1144.57 0.14539 1.43264 0
M  V30 12196 H 1146.53 -2.03088 3.69233 0
M  V30 12197 H 1145.25 -2.15321 2.45569 0
M  V30 12198 H 1143.91 -0.383722 3.64586 0
M  V30 12199 H 1143.56 -2.8021 4.17722 0
M  V30 12200 H 1143.26 -1.77496 5.60151 0
M  V30 12201 H 1144.78 -2.69905 5.47708 0
M  V30 12202 H 1146.2 -0.44022 5.71607 0
M  V30 12203 H 1144.59 0.300748 5.99346 0
M  V30 12204 H 1145.66 0.973503 4.75027 0
M  V30 12205 N 1147.01 -1.56678 0.170181 0
M  V30 12206 C 1147.92 -2.21496 -0.773079 0
M  V30 12207 C 1148.93 -1.20626 -1.25401 0
M  V30 12208 O 1150.11 -1.53283 -1.30638 0
M  V30 12209 C 1147.17 -2.8421 -1.98558 0
M  V30 12210 C 1146.23 -4.00278 -1.55164 0
M  V30 12211 C 1145.47 -4.59992 -2.70634 0
M  V30 12212 O 1145.69 -4.18595 -3.87472 0
M  V30 12213 O 1144.62 -5.49881 -2.44775 0
M  V30 12214 H 1148.45 -3.02659 -0.251195 0
M  V30 12215 H 1146.03 -1.49288 -0.0579621 0
M  V30 12216 H 1147.92 -3.2398 -2.69472 0
M  V30 12217 H 1146.59 -2.06045 -2.49654 0
M  V30 12218 H 1145.5 -3.6518 -0.812038 0
M  V30 12219 H 1146.83 -4.80033 -1.0876 0
M  V30 12220 N 1148.48 0.103547 -1.57259 0
M  V30 12221 C 1149.73 0.807231 -1.84842 0
M  V30 12222 C 1150.05 1.80308 -0.758181 0
M  V30 12223 O 1151.25 2.55406 -0.920877 0
M  V30 12224 C 1149.71 1.4864 -3.27771 0
M  V30 12225 C 1149.32 0.53075 -4.44845 0
M  V30 12226 C 1151.06 2.17431 -3.64587 0
M  V30 12227 C 1148.97 1.21403 -5.78805 0
M  V30 12228 H 1147.9 0.305212 -0.689465 0
M  V30 12229 H 1150.55 0.0600855 -1.83402 0
M  V30 12230 H 1148.93 2.28071 -3.23728 0
M  V30 12231 H 1150.1 -0.231455 -4.60218 0
M  V30 12232 H 1148.42 -0.0510078 -4.16369 0
M  V30 12233 H 1151.02 2.6927 -4.6195 0
M  V30 12234 H 1151.36 2.9594 -2.92789 0
M  V30 12235 H 1151.89 1.4487 -3.70483 0
M  V30 12236 H 1148.63 0.469918 -6.53813 0
M  V30 12237 H 1148.15 1.94787 -5.6729 0
M  V30 12238 H 1149.83 1.74289 -6.23083 0
M  V30 12239 N 1149.96 1.53094 0.37415 0
M  V30 12240 C 1150.89 1.81901 1.46404 0
M  V30 12241 C 1151.87 0.671949 1.56265 0
M  V30 12242 O 1153.06 0.920978 1.70973 0
M  V30 12243 C 1150.19 2.00123 2.83845 0
M  V30 12244 C 1149.14 3.15864 2.88814 0
M  V30 12245 C 1148.47 3.19364 4.28848 0
M  V30 12246 C 1149.77 4.54633 2.57112 0
M  V30 12247 H 1151.46 2.73172 1.22546 0
M  V30 12248 H 1149.01 1.31444 0.588087 0
M  V30 12249 H 1150.96 2.18859 3.6011 0
M  V30 12250 H 1149.68 1.05555 3.09072 0
M  V30 12251 H 1148.34 2.96935 2.15 0
M  V30 12252 H 1147.99 2.2245 4.51137 0
M  V30 12253 H 1147.69 3.97123 4.3309 0
M  V30 12254 H 1149.22 3.40273 5.06997 0
M  V30 12255 H 1150.63 4.73587 3.23091 0
M  V30 12256 H 1149.03 5.34569 2.72683 0
M  V30 12257 H 1150.1 4.60331 1.52392 0
M  V30 12258 N 1151.44 -0.633461 1.44309 0
M  V30 12259 C 1152.39 -1.74554 1.50995 0
M  V30 12260 C 1153.36 -1.62199 0.357873 0
M  V30 12261 O 1154.54 -1.82156 0.567787 0
M  V30 12262 C 1151.68 -3.12792 1.45791 0
M  V30 12263 C 1150.79 -3.3614 2.71356 0
M  V30 12264 C 1149.93 -4.64337 2.58002 0
M  V30 12265 C 1148.97 -4.80855 3.78741 0
M  V30 12266 N 1148.11 -6.00327 3.64077 0
M  V30 12267 H 1152.95 -1.68174 2.46011 0
M  V30 12268 H 1150.48 -0.820407 1.22097 0
M  V30 12269 H 1152.44 -3.92735 1.40765 0
M  V30 12270 H 1151.07 -3.18193 0.543445 0
M  V30 12271 H 1150.12 -2.50154 2.86579 0
M  V30 12272 H 1151.43 -3.44226 3.60985 0
M  V30 12273 H 1150.59 -5.52437 2.50795 0
M  V30 12274 H 1149.33 -4.58605 1.65929 0
M  V30 12275 H 1148.33 -3.91185 3.86334 0
M  V30 12276 H 1149.56 -4.88403 4.71847 0
M  V30 12277 H 1147.5 -5.9569 2.74754 0
M  V30 12278 H 1147.42 -6.09459 4.47321 0
M  V30 12279 H 1148.69 -6.90995 3.60758 0
M  V30 12280 N 1152.92 -1.31168 -0.873655 0
M  V30 12281 C 1154.33 -1.09745 -1.1588 0
M  V30 12282 C 1154.53 0.134471 -2.01051 0
M  V30 12283 O 1153.59 0.824857 -2.38647 0
M  V30 12284 C 1154.9 -2.36704 -1.85451 0
M  V30 12285 C 1156.45 -2.42278 -1.98167 0
M  V30 12286 C 1156.93 -3.69108 -2.71152 0
M  V30 12287 N 1158.42 -3.69981 -2.7869 0
M  V30 12288 C 1159.15 -4.64811 -3.35765 0
M  V30 12289 N 1158.65 -5.69995 -3.938 0
M  V30 12290 N 1160.44 -4.52337 -3.33688 0
M  V30 12291 H 1152.59 -2.10184 -0.306021 0
M  V30 12292 H 1154.86 -0.927058 -0.198159 0
M  V30 12293 H 1154.56 -3.26666 -1.30316 0
M  V30 12294 H 1154.44 -2.46219 -2.85755 0
M  V30 12295 H 1156.82 -1.52787 -2.52468 0
M  V30 12296 H 1156.9 -2.3673 -0.969164 0
M  V30 12297 H 1156.55 -4.58963 -2.1752 0
M  V30 12298 H 1156.48 -3.71922 -3.72803 0
M  V30 12299 H 1158.97 -2.93944 -2.37498 0
M  V30 12300 H 1159.28 -6.38438 -4.3545 0
M  V30 12301 H 1157.63 -5.73773 -3.92186 0
M  V30 12302 H 1160.82 -3.69341 -2.87584 0
M  V30 12303 H 1160.99 -5.2642 -3.77871 0
M  V30 12304 N 1154.4 1.08748 -1.14068 0
M  V30 12305 C 1155.34 2.15573 -0.824425 0
M  V30 12306 C 1156.31 1.64683 0.216522 0
M  V30 12307 O 1157.5 1.90601 0.0872193 0
M  V30 12308 C 1154.64 3.43756 -0.30423 0
M  V30 12309 C 1153.75 4.08512 -1.40506 0
M  V30 12310 C 1152.89 5.24477 -0.842479 0
M  V30 12311 C 1151.93 5.81167 -1.92123 0
M  V30 12312 N 1151.06 6.88483 -1.37608 0
M  V30 12313 H 1155.9 2.41968 -1.73941 0
M  V30 12314 H 1153.44 1.18751 -0.868143 0
M  V30 12315 H 1155.4 4.17197 0.0155546 0
M  V30 12316 H 1154.03 3.17658 0.573868 0
M  V30 12317 H 1153.08 3.32866 -1.84131 0
M  V30 12318 H 1154.39 4.46669 -2.2201 0
M  V30 12319 H 1153.55 6.04842 -0.474389 0
M  V30 12320 H 1152.28 4.877 0.00355212 0
M  V30 12321 H 1151.29 4.99458 -2.29831 0
M  V30 12322 H 1152.51 6.20003 -2.77079 0
M  V30 12323 H 1150.46 6.53672 -0.552168 0
M  V30 12324 H 1150.38 7.25446 -2.12752 0
M  V30 12325 H 1151.65 7.72588 -1.03578 0
M  V30 12326 N 1155.87 0.935264 1.26849 0
M  V30 12327 C 1157.12 0.590057 1.94653 0
M  V30 12328 C 1157.48 -0.860481 1.72086 0
M  V30 12329 O 1156.77 -1.60672 1.04379 0
M  V30 12330 C 1156.96 0.861098 3.46872 0
M  V30 12331 C 1156.79 2.33643 3.84241 0
M  V30 12332 C 1155.56 2.99052 4.07303 0
M  V30 12333 C 1157.76 3.3145 3.9325 0
M  V30 12334 N 1155.74 4.36659 4.31511 0
M  V30 12335 C 1157.11 4.54294 4.21921 0
M  V30 12336 C 1159.17 3.26555 3.75854 0
M  V30 12337 C 1157.87 5.72854 4.35006 0
M  V30 12338 C 1159.9 4.44435 3.90168 0
M  V30 12339 C 1159.26 5.66059 4.19233 0
M  V30 12340 H 1155.36 0.266182 0.735303 0
M  V30 12341 H 1157.94 1.20345 1.53053 0
M  V30 12342 H 1156.11 0.276803 3.87412 0
M  V30 12343 H 1157.84 0.477757 4.0187 0
M  V30 12344 H 1154.6 2.49692 4.02431 0
M  V30 12345 H 1155.02 5.07869 4.47658 0
M  V30 12346 H 1159.67 2.33585 3.52417 0
M  V30 12347 H 1157.38 6.66283 4.57266 0
M  V30 12348 H 1160.97 4.42174 3.78119 0
M  V30 12349 H 1159.85 6.55753 4.30068 0
M  V30 12350 N 1157.35 -1.41121 0.701616 0
M  V30 12351 C 1158.6 -2.01928 0.244271 0
M  V30 12352 C 1158.95 -1.54597 -1.14532 0
M  V30 12353 O 1158.25 -0.749972 -1.76312 0
M  V30 12354 C 1158.44 -3.5654 0.247781 0
M  V30 12355 C 1158.27 -4.18879 1.63618 0
M  V30 12356 C 1157.04 -4.52913 2.24048 0
M  V30 12357 C 1159.24 -4.44679 2.5839 0
M  V30 12358 N 1157.22 -5.00571 3.55389 0
M  V30 12359 C 1158.59 -4.94178 3.74418 0
M  V30 12360 C 1160.65 -4.26698 2.56579 0
M  V30 12361 C 1159.35 -5.27584 4.88924 0
M  V30 12362 C 1161.37 -4.61198 3.70203 0
M  V30 12363 C 1160.74 -5.10873 4.84962 0
M  V30 12364 H 1156.84 -0.770275 0.134908 0
M  V30 12365 H 1159.42 -1.71571 0.920402 0
M  V30 12366 H 1157.59 -3.86357 -0.39786 0
M  V30 12367 H 1159.32 -4.04074 -0.224961 0
M  V30 12368 H 1156.08 -4.39572 1.76277 0
M  V30 12369 H 1156.5 -5.28799 4.2273 0
M  V30 12370 H 1161.14 -3.87525 1.69069 0
M  V30 12371 H 1158.86 -5.65678 5.77091 0
M  V30 12372 H 1162.45 -4.48939 3.70061 0
M  V30 12373 H 1161.33 -5.37067 5.71426 0
M  V30 12374 N 1158.83 -0.446794 -1.51134 0
M  V30 12375 C 1159.74 0.36579 -2.31731 0
M  V30 12376 C 1160.76 1.01886 -1.41051 0
M  V30 12377 O 1161.93 1.01216 -1.74119 0
M  V30 12378 C 1159 1.44705 -3.15058 0
M  V30 12379 C 1158.06 0.813129 -4.21529 0
M  V30 12380 C 1157.29 1.84287 -5.00873 0
M  V30 12381 O 1157.51 3.06633 -4.8097 0
M  V30 12382 O 1156.45 1.42816 -5.84711 0
M  V30 12383 H 1160.27 -0.292436 -3.02289 0
M  V30 12384 H 1157.86 -0.209129 -1.47929 0
M  V30 12385 H 1159.74 2.07393 -3.66833 0
M  V30 12386 H 1158.42 2.08919 -2.47254 0
M  V30 12387 H 1157.32 0.147953 -3.73807 0
M  V30 12388 H 1158.66 0.214331 -4.91733 0
M  V30 12389 N 1160.31 1.56586 -0.178487 0
M  V30 12390 C 1161.56 1.96709 0.4637 0
M  V30 12391 C 1161.88 1.06586 1.63292 0
M  V30 12392 O 1161.15 0.133683 1.95443 0
M  V30 12393 H 1159.73 0.726381 0.174299 0
M  V30 12394 H 1162.39 1.9314 -0.261345 0
M  V30 12395 H 1161.49 3.01164 0.818934 0
M  V30 12396 N 1161.79 -0.095206 1.57312 0
M  V30 12397 C 1163.03 -0.797142 1.85715 0
M  V30 12398 C 1163.36 -1.79275 0.767171 0
M  V30 12399 O 1162.63 -1.94808 -0.206584 0
M  V30 12400 H 1161.21 -0.297382 0.685254 0
M  V30 12401 H 1163.87 -0.0768617 1.94748 0
M  V30 12402 H 1162.96 -1.32779 2.82447 0
M  V30 12403 N 1163.26 -1.53291 -0.366026 0
M  V30 12404 C 1164.21 -1.79697 -1.44836 0
M  V30 12405 C 1165.18 -0.641321 -1.5322 0
M  V30 12406 O 1166.37 -0.883453 -1.69115 0
M  V30 12407 C 1163.51 -1.99223 -2.81788 0
M  V30 12408 C 1162.62 -3.26938 -2.82375 0
M  V30 12409 C 1161.75 -3.36654 -4.10898 0
M  V30 12410 C 1160.79 -4.58404 -4.05626 0
M  V30 12411 N 1159.93 -4.65275 -5.25798 0
M  V30 12412 H 1164.77 -2.72053 -1.21619 0
M  V30 12413 H 1162.31 -1.34768 -0.589577 0
M  V30 12414 H 1164.27 -2.0853 -3.61346 0
M  V30 12415 H 1162.9 -1.10204 -3.03406 0
M  V30 12416 H 1161.95 -3.26587 -1.95052 0
M  V30 12417 H 1163.26 -4.16573 -2.74351 0
M  V30 12418 H 1162.41 -3.4527 -4.98872 0
M  V30 12419 H 1161.15 -2.45035 -4.21674 0
M  V30 12420 H 1160.16 -4.49888 -3.16039 0
M  V30 12421 H 1161.38 -5.51364 -3.96453 0
M  V30 12422 H 1159.33 -3.76557 -5.3716 0
M  V30 12423 H 1159.25 -5.48814 -5.19942 0
M  V30 12424 H 1160.51 -4.78175 -6.15605 0
M  V30 12425 N 1164.74 0.6258 -1.44643 0
M  V30 12426 C 1165.98 1.39676 -1.49232 0
M  V30 12427 C 1166.35 1.91601 -0.123682 0
M  V30 12428 O 1167.55 2.68764 -0.0442486 0
M  V30 12429 C 1165.82 2.52704 -2.52736 0
M  V30 12430 S 1167.38 3.40795 -2.76413 0
M  V30 12431 H 1164.2 0.476436 -0.527759 0
M  V30 12432 H 1166.8 0.72394 -1.81602 0
M  V30 12433 H 1165.5 2.12876 -3.50873 0
M  V30 12434 H 1165.03 3.24806 -2.21956 0
M  V30 12435 H 1167.05 4.5031 -2.08412 0
M  V30 12436 N 1166.22 1.31629 0.866686 0
M  V30 12437 C 1167.63 1.19347 1.43573 0
M  V30 12438 C 1167.98 -0.198765 1.95191 0
M  V30 12439 O 1167.11 -1.09674 1.86549 0
M  V30 12440 C 1167.7 2.16055 2.6097 0
M  V30 12441 C 1166.26 2.07697 3.13909 0
M  V30 12442 C 1165.41 2.05099 1.86627 0
M  V30 12443 H 1168.36 1.43633 0.674929 0
M  V30 12444 H 1168.38 1.75207 3.37761 0
M  V30 12445 H 1167.89 3.17375 2.23371 0
M  V30 12446 H 1165.99 1.09583 3.56121 0
M  V30 12447 H 1166.11 2.96958 3.75969 0
M  V30 12448 H 1164.47 1.50162 2.05727 0
M  V30 12449 H 1165.25 3.0818 1.51261 0
M  V30 12450 N 1167.7 -1.08142 1.14644 0
M  V30 12451 C 1168.65 -2.15133 0.835845 0
M  V30 12452 C 1169.62 -1.64795 -0.207785 0
M  V30 12453 O 1170.8 -1.90644 -0.07711 0
M  V30 12454 C 1167.94 -3.4359 0.322456 0
M  V30 12455 C 1167.05 -4.07761 1.42671 0
M  V30 12456 C 1166.19 -5.24022 0.870281 0
M  V30 12457 C 1165.23 -5.8014 1.95202 0
M  V30 12458 N 1164.37 -6.87743 1.41257 0
M  V30 12459 H 1169.21 -2.41042 1.75222 0
M  V30 12460 H 1166.74 -1.18288 0.874428 0
M  V30 12461 H 1168.7 -4.17199 0.00657059 0
M  V30 12462 H 1167.33 -3.17958 -0.557014 0
M  V30 12463 H 1166.38 -3.31885 1.85893 0
M  V30 12464 H 1167.69 -4.45485 2.24375 0
M  V30 12465 H 1166.85 -6.04582 0.506459 0
M  V30 12466 H 1165.59 -4.87695 0.0223118 0
M  V30 12467 H 1164.59 -4.98232 2.32476 0
M  V30 12468 H 1165.82 -6.18525 2.80363 0
M  V30 12469 H 1163.76 -6.5337 0.586826 0
M  V30 12470 H 1163.68 -7.24308 2.16596 0
M  V30 12471 H 1164.95 -7.72028 1.07674 0
M  V30 12472 N 1169.18 -0.941978 -1.26351 0
M  V30 12473 C 1170.09 -0.45833 -2.30079 0
M  V30 12474 C 1171.1 0.468084 -1.67586 0
M  V30 12475 O 1172.28 0.347418 -1.98381 0
M  V30 12476 C 1169.34 0.26797 -3.45663 0
M  V30 12477 C 1168.41 -0.695102 -4.23635 0
M  V30 12478 C 1167.64 -0.003369 -5.337 0
M  V30 12479 O 1167.86 1.21342 -5.57344 0
M  V30 12480 O 1166.8 -0.682476 -5.98018 0
M  V30 12481 H 1170.62 -1.31998 -2.73514 0
M  V30 12482 H 1168.21 -0.707897 -1.31564 0
M  V30 12483 H 1170.09 0.677061 -4.15925 0
M  V30 12484 H 1168.76 1.105 -3.04256 0
M  V30 12485 H 1167.67 -1.15415 -3.55851 0
M  V30 12486 H 1169 -1.49977 -4.68794 0
M  V30 12487 N 1170.66 1.40747 -0.709091 0
M  V30 12488 C 1171.57 2.3454 -0.0532205 0
M  V30 12489 C 1172.58 1.56956 0.751057 0
M  V30 12490 O 1173.76 1.89375 0.685509 0
M  V30 12491 C 1170.82 3.35809 0.862157 0
M  V30 12492 C 1169.88 4.29273 0.0485632 0
M  V30 12493 C 1169.12 5.25705 0.920345 0
M  V30 12494 O 1169.34 5.27933 2.15969 0
M  V30 12495 O 1168.27 6.00806 0.3628 0
M  V30 12496 H 1172.1 2.92232 -0.826698 0
M  V30 12497 H 1169.68 1.4183 -0.469519 0
M  V30 12498 H 1171.57 3.97931 1.38668 0
M  V30 12499 H 1170.24 2.8054 1.61489 0
M  V30 12500 H 1169.15 3.70456 -0.520873 0
M  V30 12501 H 1170.48 4.87676 -0.665807 0
M  V30 12502 N 1172.13 0.454803 1.50895 0
M  V30 12503 C 1173.41 -0.166559 1.9489 0
M  V30 12504 C 1173.79 -1.58492 1.3944 0
M  V30 12505 O 1173.14 -2.20788 0.588622 0
M  V30 12506 C 1173.35 -0.126506 3.48771 0
M  V30 12507 C 1174.7 -0.32347 4.23366 0
M  V30 12508 O 1175.72 -0.203835 3.55616 0
M  V30 12509 O 1174.58 -0.563292 5.43589 0
M  V30 12510 H 1171.67 -0.120523 0.818171 0
M  V30 12511 H 1174.22 0.514037 1.61727 0
M  V30 12512 H 1172.99 0.864407 3.81633 0
M  V30 12513 H 1172.61 -0.849264 3.88424 0
M  V30 12514 N 1173.61 -1.56489 0.186789 0
M  V30 12515 C 1174.56 -2.15311 -0.750024 0
M  V30 12516 C 1175.55 -1.09156 -1.18211 0
M  V30 12517 O 1176.74 -1.3524 -1.14189 0
M  V30 12518 C 1173.87 -2.80952 -1.97284 0
M  V30 12519 C 1172.95 -3.94286 -1.56204 0
M  V30 12520 N 1173.34 -4.98406 -0.861705 0
M  V30 12521 C 1171.64 -4.05733 -1.85194 0
M  V30 12522 C 1172.34 -5.77977 -0.657078 0
M  V30 12523 N 1171.32 -5.30116 -1.20326 0
M  V30 12524 H 1175.12 -2.93176 -0.206148 0
M  V30 12525 H 1172.63 -1.62395 -0.0133163 0
M  V30 12526 H 1174.63 -3.21479 -2.65437 0
M  V30 12527 H 1173.29 -2.04572 -2.52152 0
M  V30 12528 H 1174.3 -5.15302 -0.518067 0
M  V30 12529 H 1170.98 -3.40472 -2.4163 0
M  V30 12530 H 1172.37 -6.71822 -0.102123 0
M  V30 12531 N 1175.09 0.086862 -1.5736 0
M  V30 12532 C 1176.51 0.441284 -1.53378 0
M  V30 12533 C 1176.71 1.80046 -0.904748 0
M  V30 12534 O 1175.76 2.47484 -0.500781 0
M  V30 12535 C 1177.07 0.3962 -2.98078 0
M  V30 12536 C 1178.62 0.477468 -3.09337 0
M  V30 12537 C 1179.1 0.462448 -4.55659 0
M  V30 12538 N 1180.59 0.522963 -4.60238 0
M  V30 12539 C 1181.32 0.533313 -5.70914 0
M  V30 12540 N 1180.82 0.499376 -6.90998 0
M  V30 12541 N 1182.61 0.578742 -5.59113 0
M  V30 12542 H 1174.76 -0.803308 -1.96623 0
M  V30 12543 H 1177.03 -0.299879 -0.89932 0
M  V30 12544 H 1176.73 -0.535505 -3.47599 0
M  V30 12545 H 1176.61 1.21209 -3.57195 0
M  V30 12546 H 1178.99 1.39959 -2.59799 0
M  V30 12547 H 1179.07 -0.366717 -2.53158 0
M  V30 12548 H 1178.72 -0.455768 -5.05851 0
M  V30 12549 H 1178.65 1.32396 -5.09685 0
M  V30 12550 H 1181.14 0.554051 -3.73816 0
M  V30 12551 H 1181.45 0.510784 -7.7111 0
M  V30 12552 H 1179.8 0.466296 -6.93434 0
M  V30 12553 H 1182.99 0.602841 -4.64202 0
M  V30 12554 H 1183.16 0.583339 -6.45369 0
M  V30 12555 N 1176.57 1.53483 0.357892 0
M  V30 12556 C 1177.53 1.79782 1.42166 0
M  V30 12557 C 1178.53 0.668441 1.46248 0
M  V30 12558 O 1179.72 0.936677 1.46874 0
M  V30 12559 C 1176.85 1.92686 2.8122 0
M  V30 12560 H 1178.05 2.74794 1.20117 0
M  V30 12561 H 1175.6 1.44677 0.591468 0
M  V30 12562 H 1176.33 0.997669 3.08573 0
M  V30 12563 H 1176.12 2.74837 2.79655 0
M  V30 12564 H 1177.61 2.14599 3.58242 0
M  V30 12565 N 1178.05 -0.61812 1.44973 0
M  V30 12566 C 1178.99 -1.72942 1.52838 0
M  V30 12567 C 1179.96 -1.6181 0.375056 0
M  V30 12568 O 1181.15 -1.81544 0.587075 0
M  V30 12569 C 1178.29 -3.11228 1.49101 0
M  V30 12570 C 1177.4 -3.33243 2.74906 0
M  V30 12571 C 1176.54 -4.61574 2.62912 0
M  V30 12572 C 1175.57 -4.76811 3.8382 0
M  V30 12573 N 1174.71 -5.96432 3.70424 0
M  V30 12574 H 1179.55 -1.65556 2.47781 0
M  V30 12575 H 1177.09 -0.807411 1.2296 0
M  V30 12576 H 1179.05 -3.9122 1.44923 0
M  V30 12577 H 1177.68 -3.17598 0.577163 0
M  V30 12578 H 1176.73 -2.471 2.89216 0
M  V30 12579 H 1178.04 -3.40377 3.64616 0
M  V30 12580 H 1177.19 -5.49746 2.56641 0
M  V30 12581 H 1175.93 -4.5682 1.70784 0
M  V30 12582 H 1174.94 -3.87066 3.90461 0
M  V30 12583 H 1176.16 -4.83371 4.77001 0
M  V30 12584 H 1174.11 -5.92742 2.81057 0
M  V30 12585 H 1174.03 -6.0468 4.5376 0
M  V30 12586 H 1175.29 -6.8713 3.68067 0
M  V30 12587 N 1179.52 -1.32087 -0.859693 0
M  V30 12588 C 1180.77 -1.22119 -1.61033 0
M  V30 12589 C 1181.09 0.218289 -1.93774 0
M  V30 12590 O 1180.36 1.14172 -1.5919 0
M  V30 12591 H 1178.94 -0.448989 -0.597008 0
M  V30 12592 H 1181.6 -1.65545 -1.02863 0
M  V30 12593 H 1180.7 -1.80023 -2.54947 0
M  V30 12594 N 1181 1.07532 -1.15215 0
M  V30 12595 C 1181.93 2.1668 -0.870171 0
M  V30 12596 C 1182.91 1.69161 0.178483 0
M  V30 12597 O 1184.1 1.94172 0.0332489 0
M  V30 12598 C 1181.23 3.45464 -0.356666 0
M  V30 12599 C 1180.18 4.06424 -1.34179 0
M  V30 12600 C 1179.51 5.30266 -0.687206 0
M  V30 12601 C 1180.81 4.46666 -2.70715 0
M  V30 12602 H 1182.5 2.40526 -1.7829 0
M  V30 12603 H 1180.05 1.15598 -0.858665 0
M  V30 12604 H 1182 4.21144 -0.146947 0
M  V30 12605 H 1180.72 3.21199 0.591527 0
M  V30 12606 H 1179.38 3.32786 -1.53783 0
M  V30 12607 H 1179.03 5.0229 0.267077 0
M  V30 12608 H 1178.73 5.72009 -1.34462 0
M  V30 12609 H 1180.26 6.08653 -0.487218 0
M  V30 12610 H 1181.67 5.13483 -2.54966 0
M  V30 12611 H 1180.07 4.99355 -3.32813 0
M  V30 12612 H 1181.14 3.58123 -3.26919 0
M  V30 12613 N 1182.48 0.948665 1.2585 0
M  V30 12614 C 1183.73 0.59905 1.93018 0
M  V30 12615 C 1184.05 -0.865813 1.74725 0
M  V30 12616 O 1183.32 -1.61602 1.10732 0
M  V30 12617 H 1181.9 0.218565 0.71431 0
M  V30 12618 H 1184.56 1.20561 1.53137 0
M  V30 12619 H 1183.66 0.823244 3.01047 0
M  V30 12620 N 1183.96 -1.40369 0.716545 0
M  V30 12621 C 1184.89 -2.28196 0.013671 0
M  V30 12622 C 1185.87 -1.4339 -0.766685 0
M  V30 12623 O 1187.05 -1.72801 -0.753123 0
M  V30 12624 C 1184.18 -3.23969 -0.988006 0
M  V30 12625 C 1183.23 -4.25455 -0.298345 0
M  V30 12626 S 1184.06 -5.26559 0.974456 0
M  V30 12627 C 1185.22 -6.25895 -0.0250932 0
M  V30 12628 H 1185.45 -2.87461 0.758526 0
M  V30 12629 H 1182.98 -1.45817 0.507606 0
M  V30 12630 H 1184.94 -3.79674 -1.56071 0
M  V30 12631 H 1183.6 -2.63759 -1.70557 0
M  V30 12632 H 1182.79 -4.92821 -1.05561 0
M  V30 12633 H 1182.4 -3.73455 0.201828 0
M  V30 12634 H 1184.69 -6.7187 -0.871615 0
M  V30 12635 H 1185.63 -7.05422 0.615206 0
M  V30 12636 H 1186.04 -5.63156 -0.389248 0
M  V30 12637 N 1185.44 -0.462799 -1.50652 0
M  V30 12638 C 1186.35 0.341191 -2.32106 0
M  V30 12639 C 1187.36 1.00384 -1.42123 0
M  V30 12640 O 1188.54 0.993635 -1.75182 0
M  V30 12641 C 1185.6 1.41356 -3.16575 0
M  V30 12642 C 1184.66 0.768375 -4.22368 0
M  V30 12643 C 1183.9 1.78964 -5.028 0
M  V30 12644 O 1184.12 3.01515 -4.84195 0
M  V30 12645 O 1183.05 1.36606 -5.86193 0
M  V30 12646 H 1186.88 -0.324482 -3.01962 0
M  V30 12647 H 1184.47 -0.224807 -1.47699 0
M  V30 12648 H 1186.35 2.0349 -3.69012 0
M  V30 12649 H 1185.02 2.06285 -2.49456 0
M  V30 12650 H 1183.93 0.108297 -3.73943 0
M  V30 12651 H 1185.26 0.162164 -4.91933 0
M  V30 12652 N 1186.91 1.56388 -0.195085 0
M  V30 12653 C 1187.86 2.20431 0.742484 0
M  V30 12654 C 1188.86 1.17548 1.21979 0
M  V30 12655 O 1190.06 1.35693 1.18269 0
M  V30 12656 H 1186.44 0.706435 0.257786 0
M  V30 12657 H 1188.41 2.97865 0.178624 0
M  V30 12658 C 1187.16 2.87772 1.95147 0
M  V30 12659 H 1186.48 3.66681 1.59326 0
M  V30 12660 H 1187.92 3.36021 2.58585 0
M  V30 12661 C 1186.38 1.88807 2.79022 0
M  V30 12662 O 1186.91 1.38836 3.76945 0
M  V30 12663 N 1185.12 1.57037 2.44515 0
M  V30 12664 H 1184.66 1.97868 1.64943 0
M  V30 12665 H 1184.62 0.910776 3.00919 0
M  V30 12666 N 1188.39 -0.0785156 1.57404 0
M  V30 12667 C 1189.64 -0.777722 1.86103 0
M  V30 12668 C 1189.95 -1.79079 0.786771 0
M  V30 12669 O 1191.16 -2.53908 0.961393 0
M  V30 12670 C 1189.62 -1.43407 3.30095 0
M  V30 12671 C 1189.22 -0.459912 4.45633 0
M  V30 12672 C 1190.97 -2.11603 3.68 0
M  V30 12673 C 1188.88 -1.12179 5.80663 0
M  V30 12674 H 1187.81 -0.294205 0.694233 0
M  V30 12675 H 1190.46 -0.0309003 1.83474 0
M  V30 12676 H 1188.84 -2.22892 3.27315 0
M  V30 12677 H 1190.01 0.304642 4.59792 0
M  V30 12678 H 1188.33 0.117242 4.16235 0
M  V30 12679 H 1190.92 -2.61887 4.66175 0
M  V30 12680 H 1191.27 -2.91244 2.9746 0
M  V30 12681 H 1191.8 -1.38958 3.72741 0
M  V30 12682 H 1188.54 -0.365842 6.54478 0
M  V30 12683 H 1188.06 -1.85737 5.70317 0
M  V30 12684 H 1189.74 -1.64355 6.25777 0
M  V30 12685 N 1189.87 -1.5367 -0.349747 0
M  V30 12686 C 1191.12 -1.70281 -1.08853 0
M  V30 12687 C 1191.44 -0.465438 -1.89364 0
M  V30 12688 O 1190.71 0.520615 -1.88856 0
M  V30 12689 H 1189.29 -0.627775 -0.404854 0
M  V30 12690 H 1191.95 -1.90906 -0.392523 0
M  V30 12691 H 1191.05 -2.57096 -1.76941 0
M  V30 12692 N 1191.35 0.610423 -1.45298 0
M  V30 12693 C 1192.6 1.3668 -1.48872 0
M  V30 12694 C 1192.92 1.94562 -0.130686 0
M  V30 12695 O 1192.19 1.76996 0.839607 0
M  V30 12696 H 1190.77 0.507393 -0.548235 0
M  V30 12697 H 1193.43 0.716997 -1.81232 0
M  V30 12698 H 1192.53 2.18766 -2.22593 0
M  V30 12699 N 1192.83 1.32541 0.852676 0
M  V30 12700 C 1194.08 1.22567 1.60188 0
M  V30 12701 C 1194.39 -0.210594 1.94463 0
M  V30 12702 O 1195.59 -0.432214 2.68038 0
M  V30 12703 C 1194.05 2.14678 2.88862 0
M  V30 12704 C 1193.66 3.63398 2.62004 0
M  V30 12705 C 1195.4 2.13545 3.66877 0
M  V30 12706 C 1193.31 4.47464 3.86691 0
M  V30 12707 H 1192.24 0.455184 0.601102 0
M  V30 12708 H 1194.89 1.57515 0.941347 0
M  V30 12709 H 1193.27 1.72647 3.56383 0
M  V30 12710 H 1194.45 4.13783 2.02782 0
M  V30 12711 H 1192.76 3.66681 1.97316 0
M  V30 12712 H 1195.36 2.73589 4.59405 0
M  V30 12713 H 1195.7 1.12694 4.00756 0
M  V30 12714 H 1196.23 2.53866 3.06263 0
M  V30 12715 H 1192.97 5.49136 3.57952 0
M  V30 12716 H 1192.49 4.01829 4.45302 0
M  V30 12717 H 1194.17 4.60565 4.5441 0
M  V30 12718 N 1194.3 -1.0692 1.15784 0
M  V30 12719 C 1195.55 -1.796 0.935429 0
M  V30 12720 C 1195.88 -1.86935 -0.537173 0
M  V30 12721 O 1195.13 -1.35244 -1.41448 0
M  V30 12722 C 1195.43 -3.24389 1.50022 0
M  V30 12723 C 1195.1 -3.37145 2.99406 0
M  V30 12724 C 1193.76 -3.40334 3.40186 0
M  V30 12725 C 1196.11 -3.39584 3.95389 0
M  V30 12726 C 1193.44 -3.43569 4.75581 0
M  V30 12727 C 1195.79 -3.44356 5.30661 0
M  V30 12728 C 1194.46 -3.45824 5.70931 0
M  V30 12729 H 1193.73 -0.657201 0.342298 0
M  V30 12730 H 1196.37 -1.25784 1.44397 0
M  V30 12731 H 1194.68 -3.81015 0.91297 0
M  V30 12732 H 1196.38 -3.79209 1.30389 0
M  V30 12733 H 1192.97 -3.35365 2.66887 0
M  V30 12734 H 1197.15 -3.36337 3.64954 0
M  V30 12735 H 1192.41 -3.43006 5.06119 0
M  V30 12736 H 1196.58 -3.4519 6.04828 0
M  V30 12737 H 1194.21 -3.48084 6.75826 0
M  V30 12738 N 1195.78 -0.955326 -1.25345 0
M  V30 12739 C 1197.03 -0.611388 -1.93365 0
M  V30 12740 C 1197.36 0.84953 -1.74633 0
M  V30 12741 O 1196.64 1.60962 -1.09185 0
M  V30 12742 C 1196.92 -0.971732 -3.46741 0
M  V30 12743 C 1196.77 -2.48843 -3.74696 0
M  V30 12744 C 1198.09 -0.497295 -4.37281 0
M  V30 12745 H 1195.21 -0.223591 -0.702265 0
M  V30 12746 H 1197.85 -1.1921 -1.47949 0
M  V30 12747 H 1196 -0.477568 -3.85554 0
M  V30 12748 H 1197.67 -3.05641 -3.45516 0
M  V30 12749 H 1195.92 -2.92582 -3.20278 0
M  V30 12750 H 1196.59 -2.69107 -4.8196 0
M  V30 12751 H 1199.06 -0.921196 -4.05775 0
M  V30 12752 H 1197.94 -0.778113 -5.43357 0
M  V30 12753 H 1198.2 0.602743 -4.37972 0
M  V30 12754 N 1197.26 1.39987 -0.723979 0
M  V30 12755 C 1198.51 2.01028 -0.267511 0
M  V30 12756 C 1198.84 1.57295 1.13894 0
M  V30 12757 O 1198.12 0.796805 1.7743 0
M  V30 12758 C 1198.4 3.58326 -0.356971 0
M  V30 12759 C 1198.25 4.12109 -1.8024 0
M  V30 12760 C 1199.57 4.39289 0.267003 0
M  V30 12761 H 1196.69 0.730364 -0.0986775 0
M  V30 12762 H 1199.33 1.66348 -0.91806 0
M  V30 12763 H 1197.48 3.88001 0.196908 0
M  V30 12764 H 1199.15 3.93199 -2.41231 0
M  V30 12765 H 1197.4 3.66082 -2.32737 0
M  V30 12766 H 1198.07 5.21261 -1.81634 0
M  V30 12767 H 1200.54 4.15595 -0.20503 0
M  V30 12768 H 1199.42 5.48624 0.174004 0
M  V30 12769 H 1199.68 4.20931 1.35164 0
M  V30 12770 N 1198.74 0.470782 1.50404 0
M  V30 12771 C 1199.67 -0.313458 2.31386 0
M  V30 12772 C 1200.65 -0.990623 1.38278 0
M  V30 12773 O 1201.84 -0.987854 1.67198 0
M  V30 12774 C 1198.97 -1.39599 3.18009 0
M  V30 12775 C 1197.92 -0.840443 4.19667 0
M  V30 12776 C 1197.25 -2.02124 4.95025 0
M  V30 12777 C 1198.55 0.148055 5.2209 0
M  V30 12778 H 1200.24 0.362432 2.97198 0
M  V30 12779 H 1197.79 0.175745 1.42924 0
M  V30 12780 H 1199.74 -1.9521 3.73458 0
M  V30 12781 H 1198.46 -2.10064 2.50081 0
M  V30 12782 H 1197.12 -0.306302 3.65318 0
M  V30 12783 H 1196.77 -2.71286 4.23571 0
M  V30 12784 H 1196.47 -1.65574 5.6379 0
M  V30 12785 H 1197.99 -2.58226 5.5331 0
M  V30 12786 H 1199.41 -0.318874 5.72413 0
M  V30 12787 H 1197.8 0.427811 5.98573 0
M  V30 12788 H 1198.87 1.07404 4.72855 0
M  V30 12789 N 1200.22 -1.56282 0.203376 0
M  V30 12790 C 1201.47 -1.96987 -0.433461 0
M  V30 12791 C 1201.78 -1.09344 -1.62183 0
M  V30 12792 O 1202.99 -1.39868 -2.327 0
M  V30 12793 C 1201.44 -3.50374 -0.82257 0
M  V30 12794 C 1201.05 -4.46693 0.341969 0
M  V30 12795 C 1202.79 -3.99831 -1.42603 0
M  V30 12796 C 1200.7 -5.9136 -0.0685608 0
M  V30 12797 H 1199.63 -0.735564 -0.165717 0
M  V30 12798 H 1202.28 -1.81085 0.296708 0
M  V30 12799 H 1200.66 -3.6181 -1.60964 0
M  V30 12800 H 1201.84 -4.46994 1.11952 0
M  V30 12801 H 1200.15 -4.07476 0.857463 0
M  V30 12802 H 1202.75 -5.05398 -1.74577 0
M  V30 12803 H 1203.09 -3.4462 -2.33544 0
M  V30 12804 H 1203.63 -3.91543 -0.702758 0
M  V30 12805 H 1200.36 -6.50515 0.80688 0
M  V30 12806 H 1199.88 -5.94295 -0.810798 0
M  V30 12807 H 1201.56 -6.45053 -0.501525 0
M  V30 12808 N 1201.7 0.070167 -1.57444 0
M  V30 12809 C 1202.94 0.774338 -1.89165 0
M  V30 12810 C 1203.3 1.7466 -0.797353 0
M  V30 12811 O 1204.5 2.49599 -0.997682 0
M  V30 12812 C 1202.77 1.46235 -3.26114 0
M  V30 12813 S 1204.33 2.20136 -3.79586 0
M  V30 12814 H 1201.15 0.257464 -0.662747 0
M  V30 12815 H 1203.75 0.0303734 -1.95476 0
M  V30 12816 H 1202.45 0.740942 -4.03656 0
M  V30 12817 H 1201.99 2.24571 -3.23004 0
M  V30 12818 H 1204 3.4668 -3.55003 0
M  V30 12819 N 1203.17 1.53854 0.341593 0
M  V30 12820 C 1204.42 1.70856 1.07948 0
M  V30 12821 C 1204.74 0.475474 1.89114 0
M  V30 12822 O 1204.01 -0.510592 1.89129 0
M  V30 12823 H 1202.59 0.629914 0.401519 0
M  V30 12824 H 1205.25 1.91112 0.382393 0
M  V30 12825 H 1204.35 2.5803 1.75575 0
M  V30 12826 N 1204.65 -0.602709 1.4562 0
M  V30 12827 C 1205.58 -1.72374 1.5751 0
M  V30 12828 C 1206.56 -1.64669 0.426389 0
M  V30 12829 O 1207.75 -1.82994 0.650143 0
M  V30 12830 C 1204.88 -3.10987 1.5461 0
M  V30 12831 C 1203.83 -3.33507 2.68248 0
M  V30 12832 C 1203.16 -4.72443 2.50403 0
M  V30 12833 C 1204.46 -3.23285 4.10224 0
M  V30 12834 H 1206.15 -1.62679 2.51348 0
M  V30 12835 H 1203.7 -0.781217 1.20967 0
M  V30 12836 H 1205.65 -3.89214 1.61525 0
M  V30 12837 H 1204.37 -3.21533 0.573049 0
M  V30 12838 H 1203.03 -2.57672 2.60769 0
M  V30 12839 H 1202.68 -4.79729 1.51226 0
M  V30 12840 H 1202.38 -4.88466 3.26611 0
M  V30 12841 H 1203.91 -5.52864 2.59179 0
M  V30 12842 H 1205.32 -3.91381 4.1892 0
M  V30 12843 H 1203.72 -3.50837 4.86861 0
M  V30 12844 H 1204.79 -2.20652 4.31788 0
M  V30 12845 N 1206.13 -1.32992 -0.845635 0
M  V30 12846 C 1207.38 -1.23415 -1.59536 0
M  V30 12847 C 1207.69 0.200278 -1.94572 0
M  V30 12848 O 1208.9 0.417993 -2.68263 0
M  V30 12849 C 1207.35 -2.16207 -2.8772 0
M  V30 12850 C 1206.96 -3.64782 -2.60073 0
M  V30 12851 C 1208.71 -2.15488 -3.65739 0
M  V30 12852 C 1206.61 -4.49508 -3.84313 0
M  V30 12853 H 1205.54 -0.458366 -0.598679 0
M  V30 12854 H 1208.19 -1.58012 -0.932981 0
M  V30 12855 H 1206.58 -1.74535 -3.55462 0
M  V30 12856 H 1207.75 -4.14852 -2.00585 0
M  V30 12857 H 1206.06 -3.67723 -1.95369 0
M  V30 12858 H 1208.66 -2.76021 -4.57948 0
M  V30 12859 H 1209 -1.14818 -4.00153 0
M  V30 12860 H 1209.54 -2.55487 -3.04912 0
M  V30 12861 H 1206.28 -5.51027 -3.55035 0
M  V30 12862 H 1205.8 -4.04185 -4.43165 0
M  V30 12863 H 1207.48 -4.62969 -4.51961 0
M  V30 12864 N 1207.61 1.06304 -1.1635 0
M  V30 12865 C 1208.85 1.79366 -0.94634 0
M  V30 12866 C 1209.19 1.86981 0.524569 0
M  V30 12867 O 1208.46 1.36134 1.38917 0
M  V30 12868 C 1208.74 3.23861 -1.57436 0
M  V30 12869 C 1208.6 3.24327 -3.1166 0
M  V30 12870 C 1209.92 4.21409 -1.26895 0
M  V30 12871 H 1207.04 0.65115 -0.345215 0
M  V30 12872 H 1209.68 1.24325 -1.43678 0
M  V30 12873 H 1207.83 3.70862 -1.15731 0
M  V30 12874 H 1209.5 2.85488 -3.62346 0
M  V30 12875 H 1207.74 2.62983 -3.44997 0
M  V30 12876 H 1208.41 4.2626 -3.50723 0
M  V30 12877 H 1210.89 3.8285 -1.62989 0
M  V30 12878 H 1209.77 5.20778 -1.73439 0
M  V30 12879 H 1210.03 4.41701 -0.187768 0
M  V30 12880 N 1209.09 0.96196 1.24836 0
M  V30 12881 C 1210.05 0.492443 2.23847 0
M  V30 12882 C 1211.05 -0.40788 1.55541 0
M  V30 12883 O 1212.24 -0.204143 1.73 0
M  V30 12884 C 1209.37 -0.287578 3.39685 0
M  V30 12885 H 1210.56 1.36767 2.66899 0
M  V30 12886 H 1208.12 0.745967 1.3735 0
M  V30 12887 H 1208.85 -1.18015 3.02064 0
M  V30 12888 H 1208.64 0.358431 3.90458 0
M  V30 12889 H 1210.13 -0.605297 4.1319 0
M  V30 12890 N 1210.56 -1.39601 0.731392 0
M  V30 12891 C 1211.81 -1.99821 0.274661 0
M  V30 12892 C 1212.13 -1.58693 -1.1435 0
M  V30 12893 O 1213.33 -2.11724 -1.69957 0
M  V30 12894 C 1211.79 -3.57199 0.440124 0
M  V30 12895 C 1211.4 -4.07292 1.86594 0
M  V30 12896 C 1213.14 -4.24476 0.0449851 0
M  V30 12897 C 1211.05 -5.57229 1.98115 0
M  V30 12898 H 1209.98 -0.747481 0.0989383 0
M  V30 12899 H 1212.63 -1.59645 0.904755 0
M  V30 12900 H 1211.01 -3.95153 -0.25881 0
M  V30 12901 H 1212.18 -3.80679 2.59654 0
M  V30 12902 H 1210.5 -3.52665 2.21397 0
M  V30 12903 H 1213.1 -5.34587 0.110126 0
M  V30 12904 H 1213.44 -4.04129 -0.999269 0
M  V30 12905 H 1213.97 -3.91683 0.694942 0
M  V30 12906 H 1210.71 -5.82452 3.00716 0
M  V30 12907 H 1210.23 -5.85656 1.29487 0
M  V30 12908 H 1211.91 -6.22584 1.76063 0
M  V30 12909 N 1212.04 -0.478751 -1.50152 0
M  V30 12910 C 1213.29 0.073585 -2.02366 0
M  V30 12911 C 1213.62 1.3903 -1.36018 0
M  V30 12912 O 1212.87 1.89787 -0.477435 0
M  V30 12913 C 1213.17 0.297535 -3.56159 0
M  V30 12914 C 1212.84 -0.938419 -4.41027 0
M  V30 12915 C 1211.5 -1.27727 -4.63939 0
M  V30 12916 C 1213.85 -1.76098 -4.9055 0
M  V30 12917 C 1211.18 -2.4386 -5.33619 0
M  V30 12918 C 1213.53 -2.91366 -5.61506 0
M  V30 12919 C 1212.2 -3.25657 -5.8267 0
M  V30 12920 H 1211.47 0.0269267 -0.740511 0
M  V30 12921 H 1214.11 -0.63439 -1.80687 0
M  V30 12922 H 1212.42 1.08783 -3.76395 0
M  V30 12923 H 1214.11 0.73899 -3.94132 0
M  V30 12924 H 1210.7 -0.664441 -4.23418 0
M  V30 12925 H 1214.89 -1.51237 -4.72696 0
M  V30 12926 H 1210.14 -2.70692 -5.48211 0
M  V30 12927 H 1214.32 -3.55445 -5.98859 0
M  V30 12928 H 1211.95 -4.15751 -6.36439 0
M  V30 12929 N 1213.52 1.56172 -0.211661 0
M  V30 12930 C 1214.45 2.15791 0.74225 0
M  V30 12931 C 1215.43 1.0994 1.198 0
M  V30 12932 O 1216.62 1.38143 1.28253 0
M  V30 12933 C 1213.74 2.73021 2.00443 0
M  V30 12934 C 1212.79 3.91611 1.68946 0
M  V30 12935 S 1213.62 5.29139 0.822949 0
M  V30 12936 C 1214.78 5.898 2.09491 0
M  V30 12937 H 1215.01 2.96366 0.235482 0
M  V30 12938 H 1212.54 1.544 0.0035357 0
M  V30 12939 H 1214.5 3.06635 2.7292 0
M  V30 12940 H 1213.16 1.92457 2.48232 0
M  V30 12941 H 1212.36 4.30122 2.62699 0
M  V30 12942 H 1211.96 3.59093 1.04539 0
M  V30 12943 H 1214.25 6.05172 3.04587 0
M  V30 12944 H 1215.19 6.86036 1.75386 0
M  V30 12945 H 1215.6 5.18546 2.23093 0
M  V30 12946 N 1215 -0.0618163 1.57479 0
M  V30 12947 C 1215.96 -1.05684 2.0338 0
M  V30 12948 C 1216.96 -1.31006 0.932423 0
M  V30 12949 O 1218.15 -1.26559 1.19702 0
M  V30 12950 C 1215.28 -2.39805 2.42294 0
M  V30 12951 H 1216.48 -0.661006 2.92525 0
M  V30 12952 H 1214.03 -0.307814 1.53239 0
M  V30 12953 H 1214.76 -2.84201 1.56207 0
M  V30 12954 H 1214.55 -2.22764 3.22674 0
M  V30 12955 H 1216.04 -3.11307 2.78349 0
M  V30 12956 N 1216.48 -1.54033 -0.333429 0
M  V30 12957 C 1217.41 -1.7756 -1.43345 0
M  V30 12958 C 1218.39 -0.625126 -1.50103 0
M  V30 12959 O 1219.57 -0.861444 -1.67665 0
M  V30 12960 C 1216.7 -1.88332 -2.81511 0
M  V30 12961 C 1215.74 -3.10556 -2.92331 0
M  V30 12962 S 1216.58 -4.69385 -2.57755 0
M  V30 12963 C 1217.73 -4.8305 -3.98011 0
M  V30 12964 H 1217.97 -2.70584 -1.23172 0
M  V30 12965 H 1215.5 -1.4503 -0.529691 0
M  V30 12966 H 1217.46 -1.95224 -3.61106 0
M  V30 12967 H 1216.12 -0.963031 -2.98972 0
M  V30 12968 H 1215.31 -3.14798 -3.93596 0
M  V30 12969 H 1214.91 -3.01943 -2.20696 0
M  V30 12970 H 1217.21 -4.65081 -4.92652 0
M  V30 12971 H 1218.15 -5.85148 -3.98757 0
M  V30 12972 H 1218.56 -4.11427 -3.86507 0
M  V30 12973 N 1217.95 0.594978 -1.45938 0
M  V30 12974 C 1218.88 1.71536 -1.58422 0
M  V30 12975 C 1219.87 1.64441 -0.435116 0
M  V30 12976 O 1221.05 1.82647 -0.659839 0
M  V30 12977 C 1218.18 3.10163 -1.56257 0
M  V30 12978 C 1217.13 3.3208 -2.70013 0
M  V30 12979 C 1216.46 4.71108 -2.52905 0
M  V30 12980 C 1217.76 3.21105 -4.11933 0
M  V30 12981 H 1219.45 1.61344 -2.52207 0
M  V30 12982 H 1217 0.774791 -1.2138 0
M  V30 12983 H 1218.95 3.88352 -1.63587 0
M  V30 12984 H 1217.68 3.21225 -0.590093 0
M  V30 12985 H 1216.34 2.56286 -2.62132 0
M  V30 12986 H 1215.98 4.7892 -1.53768 0
M  V30 12987 H 1215.68 4.86727 -3.29197 0
M  V30 12988 H 1217.21 5.51482 -2.62107 0
M  V30 12989 H 1218.62 3.89153 -4.2099 0
M  V30 12990 H 1217.02 3.4825 -4.88715 0
M  V30 12991 H 1218.09 2.18359 -4.32952 0
M  V30 12992 N 1219.43 1.33438 0.838571 0
M  V30 12993 C 1220.34 1.25753 1.98049 0
M  V30 12994 C 1221.36 0.168051 1.73187 0
M  V30 12995 O 1222.53 0.391691 1.97554 0
M  V30 12996 C 1219.6 0.997148 3.32051 0
M  V30 12997 C 1218.66 2.17667 3.70027 0
M  V30 12998 C 1217.89 1.92861 4.97635 0
M  V30 12999 O 1218.12 0.879072 5.63585 0
M  V30 13000 O 1217.05 2.79402 5.33121 0
M  V30 13001 H 1220.88 2.21786 2.07472 0
M  V30 13002 H 1218.46 1.13488 0.971645 0
M  V30 13003 H 1220.34 0.869099 4.1234 0
M  V30 13004 H 1219.02 0.0671036 3.2363 0
M  V30 13005 H 1217.93 2.36025 2.90246 0
M  V30 13006 H 1219.26 3.09006 3.83114 0
M  V30 13007 N 1220.91 -1.05686 1.16912 0
M  V30 13008 C 1222.16 -1.78597 0.954425 0
M  V30 13009 C 1222.49 -1.87494 -0.517315 0
M  V30 13010 O 1221.74 -1.36736 -1.40006 0
M  V30 13011 C 1222.04 -3.22779 1.53455 0
M  V30 13012 C 1221.71 -3.3395 3.02965 0
M  V30 13013 C 1220.37 -3.36706 3.43777 0
M  V30 13014 C 1222.72 -3.35371 3.98969 0
M  V30 13015 C 1220.05 -3.38506 4.79198 0
M  V30 13016 C 1222.4 -3.38708 5.34284 0
M  V30 13017 C 1221.06 -3.39749 5.74567 0
M  V30 13018 H 1220.33 -0.653534 0.349249 0
M  V30 13019 H 1222.98 -1.24245 1.45723 0
M  V30 13020 H 1221.29 -3.80025 0.953331 0
M  V30 13021 H 1222.98 -3.77805 1.34404 0
M  V30 13022 H 1219.57 -3.32515 2.70429 0
M  V30 13023 H 1223.76 -3.32447 3.685 0
M  V30 13024 H 1219.01 -3.37619 5.09729 0
M  V30 13025 H 1223.19 -3.38755 6.08455 0
M  V30 13026 H 1220.81 -3.40897 6.7948 0
M  V30 13027 N 1222.39 -0.968567 -1.24324 0
M  V30 13028 C 1223.32 -0.518323 -2.27674 0
M  V30 13029 C 1224.3 0.442479 -1.64244 0
M  V30 13030 O 1225.48 0.338416 -1.91229 0
M  V30 13031 C 1222.61 0.191459 -3.46772 0
M  V30 13032 C 1221.57 -0.685449 -4.22476 0
M  V30 13033 C 1220.89 0.155873 -5.34473 0
M  V30 13034 C 1222.19 -1.97047 -4.83704 0
M  V30 13035 H 1223.89 -1.38215 -2.65588 0
M  V30 13036 H 1221.43 -0.66604 -1.27671 0
M  V30 13037 H 1223.39 0.517667 -4.18208 0
M  V30 13038 H 1222.11 1.08965 -3.07887 0
M  V30 13039 H 1220.77 -0.994942 -3.52841 0
M  V30 13040 H 1220.42 1.05424 -4.91828 0
M  V30 13041 H 1220.12 -0.427655 -5.86042 0
M  V30 13042 H 1221.64 0.476733 -6.08736 0
M  V30 13043 H 1223.06 -1.70979 -5.4721 0
M  V30 13044 H 1221.45 -2.50079 -5.45509 0
M  V30 13045 H 1222.52 -2.66484 -4.0511 0
M  V30 13046 N 1223.87 1.39211 -0.738786 0
M  V30 13047 C 1225.11 2.01209 -0.297722 0
M  V30 13048 C 1225.47 1.57579 1.10393 0
M  V30 13049 O 1224.76 0.796454 1.74262 0
M  V30 13050 C 1224.95 3.55758 -0.342224 0
M  V30 13051 C 1224.78 4.14393 -1.74666 0
M  V30 13052 C 1223.55 4.46814 -2.35978 0
M  V30 13053 C 1225.75 4.37672 -2.70089 0
M  V30 13054 N 1223.73 4.90973 -3.68536 0
M  V30 13055 C 1225.1 4.84077 -3.87388 0
M  V30 13056 C 1227.16 4.19746 -2.67802 0
M  V30 13057 C 1225.86 5.14436 -5.02741 0
M  V30 13058 C 1227.89 4.51221 -3.82301 0
M  V30 13059 C 1227.25 4.97836 -4.98336 0
M  V30 13060 H 1223.35 0.766427 -0.155283 0
M  V30 13061 H 1225.93 1.69071 -0.965568 0
M  V30 13062 H 1224.1 3.87276 0.295285 0
M  V30 13063 H 1225.84 4.04529 0.117748 0
M  V30 13064 H 1222.59 4.34744 -1.87869 0
M  V30 13065 H 1223.02 5.17405 -4.36602 0
M  V30 13066 H 1227.66 3.82906 -1.79284 0
M  V30 13067 H 1225.38 5.50179 -5.91886 0
M  V30 13068 H 1228.96 4.3897 -3.81834 0
M  V30 13069 H 1227.84 5.21728 -5.85465 0
M  V30 13070 N 1225.34 0.486708 1.49896 0
M  V30 13071 C 1226.57 -0.0600816 2.06813 0
M  V30 13072 C 1226.99 -1.32112 1.34877 0
M  V30 13073 O 1226.34 -1.77537 0.422725 0
M  V30 13074 C 1226.4 -0.332266 3.5997 0
M  V30 13075 O 1226.12 0.878771 4.29196 0
M  V30 13076 C 1227.62 -0.924289 4.33557 0
M  V30 13077 H 1224.84 0.0140611 0.670853 0
M  V30 13078 H 1227.38 0.67997 1.92864 0
M  V30 13079 H 1225.54 -1.02227 3.73669 0
M  V30 13080 H 1225.95 0.632873 5.20668 0
M  V30 13081 H 1227.42 -1.06441 5.4164 0
M  V30 13082 H 1227.9 -1.91844 3.95085 0
M  V30 13083 H 1228.51 -0.272189 4.24428 0
M  V30 13084 N 1226.82 -1.56058 0.219941 0
M  V30 13085 C 1227.75 -2.2321 -0.685547 0
M  V30 13086 C 1228.73 -1.20328 -1.20229 0
M  V30 13087 O 1229.92 -1.48909 -1.24659 0
M  V30 13088 C 1227.05 -2.91076 -1.89452 0
M  V30 13089 C 1226 -4.00415 -1.51169 0
M  V30 13090 C 1225.33 -4.55569 -2.79931 0
M  V30 13091 C 1226.63 -5.17549 -0.702896 0
M  V30 13092 H 1228.32 -2.99136 -0.125671 0
M  V30 13093 H 1225.87 -1.43879 -0.0590043 0
M  V30 13094 H 1227.82 -3.36744 -2.53341 0
M  V30 13095 H 1226.55 -2.12594 -2.47934 0
M  V30 13096 H 1225.21 -3.55475 -0.896275 0
M  V30 13097 H 1224.85 -3.73819 -3.36553 0
M  V30 13098 H 1224.55 -5.29361 -2.55049 0
M  V30 13099 H 1226.08 -5.03955 -3.44764 0
M  V30 13100 H 1227.49 -5.59608 -1.24544 0
M  V30 13101 H 1225.89 -5.97563 -0.551234 0
M  V30 13102 H 1226.96 -4.84027 0.29083 0
M  V30 13103 N 1228.3 0.053464 -1.57509 0
M  V30 13104 C 1229.72 0.408651 -1.5428 0
M  V30 13105 C 1229.92 1.78086 -0.942735 0
M  V30 13106 O 1228.97 2.46366 -0.553163 0
M  V30 13107 C 1230.29 0.332884 -2.98852 0
M  V30 13108 C 1231.83 0.411745 -3.1028 0
M  V30 13109 C 1232.31 0.365691 -4.56538 0
M  V30 13110 N 1233.8 0.425222 -4.61244 0
M  V30 13111 C 1234.54 0.412093 -5.71917 0
M  V30 13112 N 1234.03 0.352693 -6.91902 0
M  V30 13113 N 1235.82 0.460016 -5.60214 0
M  V30 13114 H 1227.98 -0.844834 -1.94875 0
M  V30 13115 H 1230.24 -0.318888 -0.892757 0
M  V30 13116 H 1229.94 -0.609116 -3.46385 0
M  V30 13117 H 1229.82 1.13605 -3.59686 0
M  V30 13118 H 1232.21 1.34417 -2.62709 0
M  V30 13119 H 1232.29 -0.420333 -2.52323 0
M  V30 13120 H 1231.93 -0.562963 -5.0477 0
M  V30 13121 H 1231.86 1.21555 -5.12379 0
M  V30 13122 H 1234.35 0.474634 -3.74908 0
M  V30 13123 H 1234.66 0.347105 -7.7202 0
M  V30 13124 H 1233.01 0.319104 -6.94267 0
M  V30 13125 H 1236.2 0.504242 -4.65376 0
M  V30 13126 H 1236.37 0.446315 -6.46461 0
M  V30 13127 N 1229.78 1.54207 0.325255 0
M  V30 13128 C 1230.73 1.79856 1.40128 0
M  V30 13129 C 1231.71 0.654503 1.46987 0
M  V30 13130 O 1232.91 0.914453 1.51548 0
M  V30 13131 C 1230.03 2.02786 2.77007 0
M  V30 13132 C 1229.12 3.23309 2.74467 0
M  V30 13133 N 1229.51 4.44396 2.41549 0
M  V30 13134 C 1227.81 3.24848 3.05598 0
M  V30 13135 C 1228.51 5.26325 2.47703 0
M  V30 13136 N 1227.49 4.63468 2.84074 0
M  V30 13137 H 1231.29 2.71056 1.13603 0
M  V30 13138 H 1228.8 1.53379 0.533728 0
M  V30 13139 H 1230.8 2.19301 3.5456 0
M  V30 13140 H 1229.46 1.12839 3.04463 0
M  V30 13141 H 1230.47 4.71426 2.14425 0
M  V30 13142 H 1227.15 2.44929 3.38107 0
M  V30 13143 H 1228.54 6.33016 2.25257 0
M  V30 13144 N 1231.26 -0.58723 1.46251 0
M  V30 13145 C 1232.48 -1.37661 1.55126 0
M  V30 13146 C 1232.91 -1.87123 0.191489 0
M  V30 13147 O 1232.27 -1.6131 -0.827576 0
M  V30 13148 C 1232.31 -2.54324 2.5564 0
M  V30 13149 O 1231.42 -3.55617 2.0883 0
M  V30 13150 H 1230.76 -0.410154 0.522178 0
M  V30 13151 H 1233.29 -0.712738 1.91784 0
M  V30 13152 H 1233.3 -3.01301 2.75103 0
M  V30 13153 H 1231.97 -2.17675 3.54387 0
M  V30 13154 H 1230.55 -3.15151 1.99335 0
M  V30 13155 N 1232.74 -1.33881 -0.831482 0
M  V30 13156 C 1233.65 -1.26802 -1.97379 0
M  V30 13157 C 1234.66 -0.177233 -1.73095 0
M  V30 13158 O 1235.84 -0.402163 -1.97344 0
M  V30 13159 C 1232.9 -1.01474 -3.31517 0
M  V30 13160 C 1231.96 -2.19626 -3.68867 0
M  V30 13161 C 1231.2 -1.95497 -4.96605 0
M  V30 13162 O 1231.42 -0.908948 -5.63111 0
M  V30 13163 O 1230.35 -2.82226 -5.31632 0
M  V30 13164 H 1234.18 -2.22883 -2.06293 0
M  V30 13165 H 1231.76 -1.14001 -0.965613 0
M  V30 13166 H 1233.65 -0.890954 -4.11874 0
M  V30 13167 H 1232.32 -0.0842656 -3.2359 0
M  V30 13168 H 1231.23 -2.37561 -2.88991 0
M  V30 13169 H 1232.56 -3.11034 -3.81469 0
M  V30 13170 N 1234.21 1.05064 -1.1747 0
M  V30 13171 C 1235.18 2.1101 -0.89485 0
M  V30 13172 C 1236.18 1.60384 0.11553 0
M  V30 13173 O 1237.37 1.73808 -0.116785 0
M  V30 13174 C 1234.5 3.39194 -0.340642 0
M  V30 13175 H 1235.69 2.37269 -1.83421 0
M  V30 13176 H 1233.24 1.21329 -0.985343 0
M  V30 13177 H 1233.98 3.18591 0.605808 0
M  V30 13178 H 1233.76 3.77251 -1.06885 0
M  V30 13179 H 1235.25 4.17281 -0.163204 0
M  V30 13180 N 1235.69 0.975146 1.23809 0
M  V30 13181 C 1236.92 0.658978 1.96125 0
M  V30 13182 C 1237.33 -0.773044 1.72248 0
M  V30 13183 O 1236.69 -1.51956 1.01072 0
M  V30 13184 C 1236.74 0.933355 3.49243 0
M  V30 13185 O 1236.46 2.30909 3.72307 0
M  V30 13186 C 1237.96 0.632408 4.38766 0
M  V30 13187 H 1235.18 0.245237 0.62458 0
M  V30 13188 H 1237.73 1.3051 1.5744 0
M  V30 13189 H 1235.88 0.333323 3.85963 0
M  V30 13190 H 1236.3 2.39476 4.66638 0
M  V30 13191 H 1237.77 0.874791 5.45024 0
M  V30 13192 H 1238.25 -0.433453 4.37056 0
M  V30 13193 H 1238.85 1.21268 4.07645 0
M  V30 13194 N 1237.17 -1.38817 0.746158 0
M  V30 13195 C 1238.08 -2.34316 0.115386 0
M  V30 13196 C 1239.1 -1.58892 -0.709179 0
M  V30 13197 O 1240.27 -1.91126 -0.635059 0
M  V30 13198 C 1237.34 -3.37977 -0.772821 0
M  V30 13199 C 1236.4 -4.2925 0.0652679 0
M  V30 13200 C 1235.63 -5.2796 -0.78064 0
M  V30 13201 O 1235.85 -5.33474 -2.01896 0
M  V30 13202 O 1234.79 -6.01556 -0.20338 0
M  V30 13203 H 1238.61 -2.89937 0.903887 0
M  V30 13204 H 1236.2 -1.40536 0.506958 0
M  V30 13205 H 1238.08 -4.01468 -1.28068 0
M  V30 13206 H 1236.76 -2.84723 -1.53994 0
M  V30 13207 H 1235.66 -3.68945 0.61891 0
M  V30 13208 H 1237 -4.85739 0.794871 0
M  V30 13209 N 1238.65 -0.49465 -1.49636 0
M  V30 13210 C 1239.89 0.0521945 -2.02733 0
M  V30 13211 C 1240.23 1.3723 -1.37411 0
M  V30 13212 O 1239.5 1.87758 -0.507642 0
M  V30 13213 C 1239.78 0.2114 -3.59479 0
M  V30 13214 C 1239.64 -1.13138 -4.35339 0
M  V30 13215 C 1240.96 0.955015 -4.29613 0
M  V30 13216 H 1238.08 0.0174946 -0.736792 0
M  V30 13217 H 1240.72 -0.644827 -1.78723 0
M  V30 13218 H 1238.87 0.805078 -3.80067 0
M  V30 13219 H 1240.54 -1.76345 -4.26263 0
M  V30 13220 H 1238.78 -1.72224 -3.98147 0
M  V30 13221 H 1239.45 -0.97336 -5.4335 0
M  V30 13222 H 1241.93 0.451575 -4.13642 0
M  V30 13223 H 1240.81 1.03524 -5.39049 0
M  V30 13224 H 1241.07 1.99724 -3.94414 0
M  V30 13225 N 1240.13 1.55939 -0.228214 0
M  V30 13226 C 1241.35 2.0332 0.409364 0
M  V30 13227 C 1241.78 1.10683 1.52088 0
M  V30 13228 O 1241.13 0.0962484 1.81044 0
M  V30 13229 C 1241.18 3.48877 0.911981 0
M  V30 13230 O 1240.29 3.59378 2.02289 0
M  V30 13231 H 1239.63 0.657625 0.0917909 0
M  V30 13232 H 1242.16 2.01605 -0.348802 0
M  V30 13233 H 1242.17 3.89331 1.22007 0
M  V30 13234 H 1240.84 4.15783 0.0984902 0
M  V30 13235 H 1239.42 3.30815 1.72093 0
M  V30 13236 N 1241.6 -0.0451101 1.57535 0
M  V30 13237 C 1242.85 -0.740209 1.88809 0
M  V30 13238 C 1243.18 -1.75854 0.823956 0
M  V30 13239 O 1242.46 -1.93817 -0.16286 0
M  V30 13240 C 1242.74 -1.42424 3.30737 0
M  V30 13241 C 1242.59 -0.42052 4.4783 0
M  V30 13242 C 1243.91 -2.36241 3.7132 0
M  V30 13243 H 1241.03 -0.267628 0.686691 0
M  V30 13244 H 1243.67 -0.00309149 1.9 0
M  V30 13245 H 1241.82 -2.05254 3.29853 0
M  V30 13246 H 1243.5 0.204625 4.60846 0
M  V30 13247 H 1241.74 0.261739 4.3301 0
M  V30 13248 H 1242.41 -0.937298 5.43984 0
M  V30 13249 H 1244.89 -1.83468 3.73468 0
M  V30 13250 H 1243.76 -2.81091 4.71465 0
M  V30 13251 H 1244.02 -3.2222 3.02699 0
M  V30 13252 N 1243.08 -1.54377 -0.317073 0
M  V30 13253 C 1244.32 -1.74621 -1.06239 0
M  V30 13254 C 1244.69 -0.512542 -1.85032 0
M  V30 13255 O 1245.89 -0.592438 -2.6219 0
M  V30 13256 C 1244.16 -2.99036 -1.95735 0
M  V30 13257 S 1245.72 -3.40212 -2.77131 0
M  V30 13258 H 1242.54 -0.613969 -0.358557 0
M  V30 13259 H 1245.14 -1.92562 -0.33763 0
M  V30 13260 H 1243.84 -3.86965 -1.36697 0
M  V30 13261 H 1243.37 -2.83636 -2.72606 0
M  V30 13262 H 1245.39 -2.9602 -3.98229 0
M  V30 13263 N 1244.56 0.579466 -1.4656 0
M  V30 13264 C 1245.49 1.70291 -1.53406 0
M  V30 13265 C 1246.51 1.57232 -0.422116 0
M  V30 13266 O 1247.69 1.64598 -0.69064 0
M  V30 13267 C 1244.79 3.08572 -1.40131 0
M  V30 13268 C 1243.97 3.47602 -2.65502 0
M  V30 13269 C 1243.03 4.64955 -2.4638 0
M  V30 13270 O 1242.05 4.70653 -3.20116 0
M  V30 13271 N 1243.25 5.60041 -1.52756 0
M  V30 13272 H 1246.02 1.64873 -2.50274 0
M  V30 13273 H 1243.58 0.765533 -1.42658 0
M  V30 13274 H 1245.57 3.84877 -1.25106 0
M  V30 13275 H 1244.14 3.0834 -0.514322 0
M  V30 13276 H 1243.36 2.60969 -2.95446 0
M  V30 13277 H 1244.65 3.70446 -3.48779 0
M  V30 13278 H 1244.05 5.58176 -0.919587 0
M  V30 13279 H 1242.61 6.35764 -1.43693 0
M  V30 13280 N 1246.04 1.3432 0.824371 0
M  V30 13281 C 1246.95 1.27847 1.96704 0
M  V30 13282 C 1247.96 0.18641 1.72999 0
M  V30 13283 O 1249.14 0.412623 1.97128 0
M  V30 13284 C 1246.21 1.03231 3.30975 0
M  V30 13285 C 1245.27 2.21579 3.67697 0
M  V30 13286 C 1244.5 1.98128 4.95561 0
M  V30 13287 O 1244.72 0.938798 5.62621 0
M  V30 13288 O 1243.66 2.85041 5.30128 0
M  V30 13289 H 1247.48 2.23974 2.05108 0
M  V30 13290 H 1245.07 1.14512 0.959554 0
M  V30 13291 H 1246.95 0.912784 4.11395 0
M  V30 13292 H 1245.62 0.101425 3.23541 0
M  V30 13293 H 1244.53 2.3909 2.87727 0
M  V30 13294 H 1245.86 3.13052 3.79815 0
M  V30 13295 N 1247.52 -1.0444 1.18026 0
M  V30 13296 C 1248.45 -2.11888 0.847277 0
M  V30 13297 C 1249.43 -1.61496 -0.189171 0
M  V30 13298 O 1250.61 -1.88374 -0.0689859 0
M  V30 13299 C 1247.74 -3.3766 0.26525 0
M  V30 13300 C 1246.78 -4.06893 1.27829 0
M  V30 13301 S 1247.62 -4.54445 2.83267 0
M  V30 13302 C 1248.77 -5.83454 2.26565 0
M  V30 13303 H 1249.01 -2.39806 1.75727 0
M  V30 13304 H 1246.54 -1.17152 1.00572 0
M  V30 13305 H 1248.5 -4.1045 -0.0640578 0
M  V30 13306 H 1247.16 -3.07864 -0.622806 0
M  V30 13307 H 1246.35 -4.97287 0.819849 0
M  V30 13308 H 1245.95 -3.40203 1.55364 0
M  V30 13309 H 1248.25 -6.57203 1.64591 0
M  V30 13310 H 1249.19 -6.34056 3.15244 0
M  V30 13311 H 1249.6 -5.3838 1.69728 0
M  V30 13312 N 1248.99 -0.981699 -1.2329 0
M  V30 13313 C 1250.24 -0.652266 -1.92024 0
M  V30 13314 C 1250.57 0.812297 -1.76396 0
M  V30 13315 O 1249.85 1.5861 -1.12575 0
M  V30 13316 C 1250.13 -1.04506 -3.44602 0
M  V30 13317 C 1249.98 -2.56735 -3.69333 0
M  V30 13318 C 1251.3 -0.589937 -4.36128 0
M  V30 13319 H 1248.42 -0.238437 -0.697364 0
M  V30 13320 H 1251.06 -1.22322 -1.45387 0
M  V30 13321 H 1249.21 -0.559242 -3.84454 0
M  V30 13322 H 1250.89 -3.12901 -3.38955 0
M  V30 13323 H 1249.13 -2.9931 -3.14 0
M  V30 13324 H 1249.8 -2.79269 -4.76144 0
M  V30 13325 H 1252.28 -1.00706 -4.0373 0
M  V30 13326 H 1251.15 -0.893192 -5.41584 0
M  V30 13327 H 1251.41 0.509707 -4.39152 0
M  V30 13328 N 1250.47 1.3842 -0.753509 0
M  V30 13329 C 1251.7 2.04403 -0.320449 0
M  V30 13330 C 1252.12 1.5683 1.05118 0
M  V30 13331 O 1251.47 0.741335 1.66765 0
M  V30 13332 C 1251.52 3.59954 -0.333937 0
M  V30 13333 O 1251.24 4.05782 -1.65144 0
M  V30 13334 C 1252.75 4.43156 0.112997 0
M  V30 13335 H 1249.97 0.656881 -0.136927 0
M  V30 13336 H 1252.51 1.77112 -1.02234 0
M  V30 13337 H 1250.66 3.86083 0.319215 0
M  V30 13338 H 1251.08 5.00213 -1.57757 0
M  V30 13339 H 1252.55 5.51975 0.0523995 0
M  V30 13340 H 1253.03 4.23581 1.16087 0
M  V30 13341 H 1253.64 4.22216 -0.511278 0
M  V30 13342 N 1251.95 0.502579 1.49372 0
M  V30 13343 C 1252.86 -0.279532 2.32929 0
M  V30 13344 C 1253.88 -0.965806 1.44735 0
M  V30 13345 O 1255.05 -0.946839 1.77755 0
M  V30 13346 C 1252.12 -1.32913 3.20211 0
M  V30 13347 C 1251.18 -0.656121 4.24256 0
M  V30 13348 C 1250.41 -1.65571 5.07368 0
M  V30 13349 O 1250.63 -2.88571 4.92019 0
M  V30 13350 O 1249.57 -1.21016 5.89609 0
M  V30 13351 H 1253.39 0.404427 3.00995 0
M  V30 13352 H 1250.98 0.263888 1.47051 0
M  V30 13353 H 1252.86 -1.93635 3.74277 0
M  V30 13354 H 1251.54 -1.99598 2.54837 0
M  V30 13355 H 1250.44 -0.00911489 3.74099 0
M  V30 13356 H 1251.78 -0.0316802 4.9219 0
M  V30 13357 N 1253.43 -1.55816 0.23648 0
M  V30 13358 C 1254.36 -2.23924 -0.661834 0
M  V30 13359 C 1255.34 -1.21597 -1.18946 0
M  V30 13360 O 1256.52 -1.50222 -1.23073 0
M  V30 13361 C 1253.65 -2.93069 -1.86355 0
M  V30 13362 C 1252.61 -4.01996 -1.46913 0
M  V30 13363 C 1251.93 -4.58512 -2.75083 0
M  V30 13364 C 1253.23 -5.18265 -0.647964 0
M  V30 13365 H 1254.93 -2.99253 -0.0939368 0
M  V30 13366 H 1252.47 -1.43934 -0.0437407 0
M  V30 13367 H 1254.43 -3.39412 -2.49755 0
M  V30 13368 H 1253.15 -2.15212 -2.45665 0
M  V30 13369 H 1251.81 -3.56406 -0.858522 0
M  V30 13370 H 1251.46 -3.77368 -3.3257 0
M  V30 13371 H 1251.16 -5.32037 -2.49421 0
M  V30 13372 H 1252.68 -5.07583 -3.39399 0
M  V30 13373 H 1254.1 -5.60898 -1.18602 0
M  V30 13374 H 1252.49 -5.98114 -0.487823 0
M  V30 13375 H 1253.56 -4.83691 0.342151 0
M  V30 13376 N 1254.91 0.036755 -1.57557 0
M  V30 13377 C 1256.32 0.392264 -1.54704 0
M  V30 13378 C 1256.52 1.77076 -0.96157 0
M  V30 13379 O 1255.58 2.45766 -0.579263 0
M  V30 13380 C 1256.89 0.301168 -2.99188 0
M  V30 13381 C 1258.44 0.378813 -3.10699 0
M  V30 13382 C 1258.91 0.317249 -4.569 0
M  V30 13383 N 1260.41 0.376277 -4.61669 0
M  V30 13384 C 1261.14 0.351411 -5.72322 0
M  V30 13385 N 1260.64 0.279288 -6.92237 0
M  V30 13386 N 1262.43 0.400571 -5.60671 0
M  V30 13387 H 1254.58 -0.865455 -1.93968 0
M  V30 13388 H 1256.84 -0.328339 -0.889324 0
M  V30 13389 H 1256.55 -0.64582 -3.4572 0
M  V30 13390 H 1256.42 1.09784 -3.6087 0
M  V30 13391 H 1258.81 1.31623 -2.6412 0
M  V30 13392 H 1258.89 -0.447072 -2.51863 0
M  V30 13393 H 1258.54 -0.616469 -5.04145 0
M  V30 13394 H 1258.47 1.16114 -5.13639 0
M  V30 13395 H 1260.96 0.434843 -3.7539 0
M  V30 13396 H 1261.27 0.265202 -7.72345 0
M  V30 13397 H 1259.61 0.24545 -6.94566 0
M  V30 13398 H 1262.81 0.454854 -4.65885 0
M  V30 13399 H 1262.98 0.377724 -6.46898 0
M  V30 13400 N 1256.39 1.54543 0.308881 0
M  V30 13401 C 1257.61 1.77753 1.06857 0
M  V30 13402 C 1258.04 0.531616 1.80431 0
M  V30 13403 O 1257.39 -0.517513 1.73757 0
M  V30 13404 C 1257.44 2.97968 2.03094 0
M  V30 13405 O 1256.55 2.70541 3.11257 0
M  V30 13406 H 1255.89 0.588576 0.307368 0
M  V30 13407 H 1258.42 2.01607 0.348703 0
M  V30 13408 H 1258.43 3.25722 2.45702 0
M  V30 13409 H 1257.1 3.88314 1.48948 0
M  V30 13410 H 1255.68 2.53781 2.7322 0
M  V30 13411 N 1257.86 -0.571685 1.46866 0
M  V30 13412 C 1259.11 -1.32574 1.5201 0
M  V30 13413 C 1259.43 -1.94762 0.180838 0
M  V30 13414 O 1260.63 -2.71276 0.110158 0
M  V30 13415 C 1259.09 -2.40331 2.67897 0
M  V30 13416 C 1258.7 -1.84398 4.08291 0
M  V30 13417 C 1260.44 -3.17009 2.82321 0
M  V30 13418 C 1258.35 -2.89849 5.15501 0
M  V30 13419 H 1257.28 -0.498428 0.565761 0
M  V30 13420 H 1259.93 -0.608853 1.73105 0
M  V30 13421 H 1258.31 -3.14869 2.40153 0
M  V30 13422 H 1259.48 -1.16329 4.45875 0
M  V30 13423 H 1257.8 -1.20351 3.98628 0
M  V30 13424 H 1260.4 -3.95729 3.59587 0
M  V30 13425 H 1260.74 -3.70292 1.90236 0
M  V30 13426 H 1261.27 -2.4958 3.09765 0
M  V30 13427 H 1258.01 -2.4144 6.09415 0
M  V30 13428 H 1257.53 -3.56372 4.82451 0
M  V30 13429 H 1259.21 -3.53603 5.41825 0
M  V30 13430 N 1259.34 -1.34755 -0.817236 0
M  V30 13431 C 1260.59 -1.26771 -1.56882 0
M  V30 13432 C 1260.9 0.158962 -1.94953 0
M  V30 13433 O 1262.11 0.360996 -2.69089 0
M  V30 13434 C 1260.57 -2.22261 -2.83069 0
M  V30 13435 C 1260.17 -3.70216 -2.52277 0
M  V30 13436 C 1261.92 -2.23197 -3.61086 0
M  V30 13437 C 1259.82 -4.57559 -3.74691 0
M  V30 13438 H 1258.75 -0.470961 -0.588822 0
M  V30 13439 H 1261.41 -1.59955 -0.899254 0
M  V30 13440 H 1259.79 -1.82036 -3.5168 0
M  V30 13441 H 1260.96 -4.19014 -1.9174 0
M  V30 13442 H 1259.28 -3.71784 -1.87525 0
M  V30 13443 H 1261.87 -2.85673 -4.5199 0
M  V30 13444 H 1262.22 -1.2328 -3.97628 0
M  V30 13445 H 1262.75 -2.61897 -2.99424 0
M  V30 13446 H 1259.49 -5.58434 -3.43267 0
M  V30 13447 H 1259.01 -4.13494 -4.34491 0
M  V30 13448 H 1260.69 -4.72451 -4.42039 0
M  V30 13449 N 1260.82 1.03812 -1.18578 0
M  V30 13450 C 1261.75 2.13802 -0.938665 0
M  V30 13451 C 1262.73 1.69643 0.124575 0
M  V30 13452 O 1263.92 1.94179 -0.0285421 0
M  V30 13453 C 1261.05 3.44154 -0.466392 0
M  V30 13454 C 1260 4.01949 -1.47041 0
M  V30 13455 C 1259.33 5.27811 -0.855558 0
M  V30 13456 C 1260.63 4.37827 -2.84789 0
M  V30 13457 H 1262.32 2.34732 -1.85852 0
M  V30 13458 H 1259.87 1.12808 -0.895007 0
M  V30 13459 H 1261.82 4.20463 -0.280856 0
M  V30 13460 H 1260.54 3.22918 0.489041 0
M  V30 13461 H 1259.2 3.27725 -1.64293 0
M  V30 13462 H 1258.85 5.02886 0.107142 0
M  V30 13463 H 1258.55 5.67441 -1.52592 0
M  V30 13464 H 1260.07 6.06795 -0.680609 0
M  V30 13465 H 1261.49 5.05112 -2.71173 0
M  V30 13466 H 1259.88 4.88514 -3.48532 0
M  V30 13467 H 1260.95 3.47541 -3.38147 0
M  V30 13468 N 1262.3 0.988223 1.22768 0
M  V30 13469 C 1263.54 0.669599 1.93121 0
M  V30 13470 C 1263.9 -0.783331 1.75294 0
M  V30 13471 O 1265.1 -1.21315 2.39867 0
M  V30 13472 C 1263.37 1.05876 3.41358 0
M  V30 13473 S 1264.93 0.857797 4.30334 0
M  V30 13474 H 1261.75 0.244972 0.667465 0
M  V30 13475 H 1264.35 1.26952 1.48673 0
M  V30 13476 H 1263.06 2.11267 3.51844 0
M  V30 13477 H 1262.59 0.450453 3.90813 0
M  V30 13478 H 1264.6 -0.254171 4.95549 0
M  V30 13479 N 1263.78 -1.38018 0.760839 0
M  V30 13480 C 1264.71 -2.2899 0.0980916 0
M  V30 13481 C 1265.72 -1.48102 -0.675985 0
M  V30 13482 O 1266.91 -1.70883 -0.515878 0
M  V30 13483 C 1264.01 -3.27142 -0.884959 0
M  V30 13484 C 1263.18 -4.37081 -0.167 0
M  V30 13485 C 1262.24 -5.15375 -1.06184 0
M  V30 13486 O 1261.27 -5.6673 -0.529667 0
M  V30 13487 N 1262.47 -5.29052 -2.38924 0
M  V30 13488 H 1265.23 -2.86508 0.879403 0
M  V30 13489 H 1262.8 -1.49877 0.612245 0
M  V30 13490 H 1264.79 -3.764 -1.48678 0
M  V30 13491 H 1263.36 -2.70471 -1.5673 0
M  V30 13492 H 1262.58 -3.89363 0.615617 0
M  V30 13493 H 1263.87 -5.07732 0.329525 0
M  V30 13494 H 1263.26 -4.88892 -2.84607 0
M  V30 13495 H 1261.82 -5.81658 -2.94139 0
M  V30 13496 N 1265.25 -0.510493 -1.49103 0
M  V30 13497 C 1266.53 0.0941122 -1.95373 0
M  V30 13498 C 1266.91 1.53207 -1.45227 0
M  V30 13499 O 1266.26 2.18452 -0.670161 0
M  V30 13500 C 1266.47 -0.00302507 -3.49 0
M  V30 13501 C 1267.82 0.166117 -4.24275 0
M  V30 13502 O 1268.84 0.0717097 -3.56128 0
M  V30 13503 O 1267.7 0.361155 -5.45305 0
M  V30 13504 H 1264.79 0.0900741 -0.82208 0
M  V30 13505 H 1267.34 -0.573707 -1.59708 0
M  V30 13506 H 1266.11 -1.00545 -3.78162 0
M  V30 13507 H 1265.73 0.704518 -3.91308 0
M  V30 13508 N 1266.73 1.55688 -0.24474 0
M  V30 13509 C 1267.96 2.03743 0.387776 0
M  V30 13510 C 1268.38 1.1229 1.50906 0
M  V30 13511 O 1267.74 0.115445 1.80932 0
M  V30 13512 C 1267.79 3.49825 0.874927 0
M  V30 13513 O 1266.89 3.61504 1.98466 0
M  V30 13514 H 1266.23 0.658561 0.0848107 0
M  V30 13515 H 1268.76 2.01224 -0.370165 0
M  V30 13516 H 1268.77 3.90603 1.17871 0
M  V30 13517 H 1267.45 4.15864 0.0543852 0
M  V30 13518 H 1266.02 3.32622 1.68574 0
M  V30 13519 N 1268.21 -0.0283989 1.57574 0
M  V30 13520 C 1269.46 -0.718121 1.88483 0
M  V30 13521 C 1269.77 -1.76485 0.843345 0
M  V30 13522 O 1270.98 -2.50721 1.04169 0
M  V30 13523 C 1269.43 -1.32832 3.3449 0
M  V30 13524 C 1269.04 -0.317905 4.46871 0
M  V30 13525 C 1270.79 -1.99788 3.74546 0
M  V30 13526 C 1268.69 -0.936489 5.83938 0
M  V30 13527 H 1267.62 -0.271969 0.703242 0
M  V30 13528 H 1270.27 0.0274862 1.83479 0
M  V30 13529 H 1268.66 -2.12366 3.34241 0
M  V30 13530 H 1269.83 0.450767 4.5859 0
M  V30 13531 H 1268.14 0.249605 4.15651 0
M  V30 13532 H 1270.74 -2.46923 4.74271 0
M  V30 13533 H 1271.08 -2.81633 3.06575 0
M  V30 13534 H 1271.62 -1.27029 3.76973 0
M  V30 13535 H 1268.36 -0.15744 6.55311 0
M  V30 13536 H 1267.88 -1.67499 5.75938 0
M  V30 13537 H 1269.56 -1.44363 6.30689 0
M  V30 13538 N 1269.69 -1.54705 -0.300681 0
M  V30 13539 C 1270.64 -1.82062 -1.37249 0
M  V30 13540 C 1271.62 -0.677804 -1.45927 0
M  V30 13541 O 1272.81 -0.938447 -1.50074 0
M  V30 13542 C 1269.94 -2.07168 -2.73745 0
M  V30 13543 C 1269.03 -3.27634 -2.69289 0
M  V30 13544 N 1269.42 -4.48182 -2.34449 0
M  V30 13545 C 1267.72 -3.29668 -3.00391 0
M  V30 13546 C 1268.42 -5.30199 -2.39298 0
M  V30 13547 N 1267.39 -4.67929 -2.76665 0
M  V30 13548 H 1271.2 -2.72829 -1.09277 0
M  V30 13549 H 1268.71 -1.54209 -0.509259 0
M  V30 13550 H 1270.71 -2.24914 -3.51026 0
M  V30 13551 H 1269.37 -1.17668 -3.02629 0
M  V30 13552 H 1270.38 -4.74778 -2.06898 0
M  V30 13553 H 1267.06 -2.50276 -3.34168 0
M  V30 13554 H 1268.45 -6.36519 -2.15157 0
M  V30 13555 N 1271.17 0.563888 -1.47167 0
M  V30 13556 C 1272.58 1.14603 -1.47388 0
M  V30 13557 C 1272.93 1.94907 -0.224916 0
M  V30 13558 O 1272.05 2.05745 0.670672 0
M  V30 13559 C 1272.65 2.08501 -2.67044 0
M  V30 13560 C 1271.21 2.62 -2.70246 0
M  V30 13561 C 1270.35 1.38244 -2.40383 0
M  V30 13562 H 1273.31 0.350833 -1.54774 0
M  V30 13563 H 1273.33 2.92272 -2.43634 0
M  V30 13564 H 1272.84 1.50027 -3.57929 0
M  V30 13565 H 1270.94 3.24292 -1.83482 0
M  V30 13566 H 1271.05 3.0345 -3.70749 0
M  V30 13567 H 1269.42 1.68692 -1.90827 0
M  V30 13568 H 1270.2 0.815726 -3.33468 0
M  V30 13569 N 1272.64 1.35187 0.810078 0
M  V30 13570 C 1274.06 1.15149 1.10512 0
M  V30 13571 C 1274.26 -0.038394 2.01463 0
M  V30 13572 O 1273.32 -0.710056 2.42311 0
M  V30 13573 C 1274.63 2.45282 1.73946 0
M  V30 13574 C 1276.18 2.51457 1.86382 0
M  V30 13575 C 1276.65 3.81625 2.53232 0
M  V30 13576 N 1278.14 3.82856 2.6072 0
M  V30 13577 C 1278.88 4.80302 3.13206 0
M  V30 13578 N 1278.37 5.88134 3.66156 0
M  V30 13579 N 1280.17 4.67743 3.11726 0
M  V30 13580 H 1272.32 2.11405 0.205391 0
M  V30 13581 H 1274.58 0.935457 0.153702 0
M  V30 13582 H 1274.29 3.32512 1.14582 0
M  V30 13583 H 1274.16 2.59573 2.73682 0
M  V30 13584 H 1276.55 1.64659 2.44891 0
M  V30 13585 H 1276.63 2.41084 0.855113 0
M  V30 13586 H 1276.27 4.68819 1.95375 0
M  V30 13587 H 1276.2 3.89285 3.54633 0
M  V30 13588 H 1278.69 3.04941 2.23203 0
M  V30 13589 H 1279.01 6.58487 4.04494 0
M  V30 13590 H 1277.35 5.91831 3.64364 0
M  V30 13591 H 1280.54 3.82642 2.69635 0
M  V30 13592 H 1280.72 5.43849 3.52324 0
M  V30 13593 N 1274.12 -1.03182 1.19127 0
M  V30 13594 C 1275.54 -1.28773 0.942854 0
M  V30 13595 C 1275.74 -1.97759 -0.386483 0
M  V30 13596 O 1274.79 -2.26365 -1.1187 0
M  V30 13597 C 1276.11 -2.13771 2.11476 0
M  V30 13598 C 1277.66 -2.27089 2.15406 0
M  V30 13599 C 1278.13 -3.15458 3.32039 0
M  V30 13600 N 1279.62 -3.23046 3.31957 0
M  V30 13601 C 1280.36 -3.91604 4.18848 0
M  V30 13602 N 1279.85 -4.62418 5.15889 0
M  V30 13603 N 1281.65 -3.87974 4.06734 0
M  V30 13604 H 1273.8 -0.568165 2.0466 0
M  V30 13605 H 1276.06 -0.31328 0.89474 0
M  V30 13606 H 1275.77 -1.704 3.07663 0
M  V30 13607 H 1275.64 -3.14476 2.0829 0
M  V30 13608 H 1278.03 -2.69693 1.19791 0
M  V30 13609 H 1278.11 -1.25945 2.22647 0
M  V30 13610 H 1277.75 -2.73564 4.27931 0
M  V30 13611 H 1277.68 -4.16654 3.22035 0
M  V30 13612 H 1280.17 -2.7261 2.6171 0
M  V30 13613 H 1280.49 -5.12353 5.78545 0
M  V30 13614 H 1278.83 -4.61293 5.1984 0
M  V30 13615 H 1282.02 -3.31789 3.30202 0
M  V30 13616 H 1282.19 -4.4113 4.74666 0
M  V30 13617 N 1275.6 -0.99472 -1.22242 0
M  V30 13618 C 1277.02 -0.705762 -1.43147 0
M  V30 13619 C 1277.22 0.722908 -1.88086 0
M  V30 13620 O 1276.27 1.49359 -2.03588 0
M  V30 13621 C 1277.59 -1.71288 -2.47145 0
M  V30 13622 C 1279.13 -1.72853 -2.60942 0
M  V30 13623 C 1279.61 -2.72433 -3.68163 0
M  V30 13624 N 1281.1 -2.71039 -3.75623 0
M  V30 13625 C 1281.83 -3.44753 -4.58184 0
M  V30 13626 N 1281.33 -4.28075 -5.44724 0
M  V30 13627 N 1283.12 -3.33451 -4.52512 0
M  V30 13628 H 1275.27 -1.91738 -0.913792 0
M  V30 13629 H 1277.54 -0.82702 -0.463403 0
M  V30 13630 H 1277.24 -2.7353 -2.21075 0
M  V30 13631 H 1277.12 -1.50721 -3.45779 0
M  V30 13632 H 1279.5 -0.713085 -2.86355 0
M  V30 13633 H 1279.59 -1.9749 -1.62577 0
M  V30 13634 H 1279.23 -3.74129 -3.43497 0
M  V30 13635 H 1279.16 -2.45066 -4.66101 0
M  V30 13636 H 1281.65 -2.10581 -3.1379 0
M  V30 13637 H 1281.96 -4.81143 -6.04749 0
M  V30 13638 H 1280.31 -4.32161 -5.44299 0
M  V30 13639 H 1283.5 -2.67797 -3.8393 0
M  V30 13640 H 1283.67 -3.91158 -5.16623 0
M  V30 13641 N 1277.08 1.37613 -0.768148 0
M  V30 13642 C 1278.49 1.53202 -0.44737 0
M  V30 13643 C 1278.69 1.72736 1.03752 0
M  V30 13644 O 1277.75 1.74667 1.8234 0
M  V30 13645 C 1279.06 2.7306 -1.25931 0
M  V30 13646 C 1280.61 2.8692 -1.25084 0
M  V30 13647 C 1281.09 4.09757 -2.04605 0
M  V30 13648 N 1282.58 4.16862 -2.0194 0
M  V30 13649 C 1283.31 5.10936 -2.60254 0
M  V30 13650 N 1282.81 6.1059 -3.27341 0
M  V30 13651 N 1284.6 5.03393 -2.50104 0
M  V30 13652 H 1276.75 1.23184 -1.7303 0
M  V30 13653 H 1279.02 0.599541 -0.73434 0
M  V30 13654 H 1278.72 2.65078 -2.31141 0
M  V30 13655 H 1278.6 3.66646 -0.886036 0
M  V30 13656 H 1280.98 2.94375 -0.206736 0
M  V30 13657 H 1281.06 1.94303 -1.66373 0
M  V30 13658 H 1280.71 4.03063 -3.09035 0
M  V30 13659 H 1280.64 5.01481 -1.60701 0
M  V30 13660 H 1283.13 3.455 -1.53096 0
M  V30 13661 H 1283.44 6.78893 -3.6922 0
M  V30 13662 H 1281.79 6.10879 -3.31439 0
M  V30 13663 H 1284.98 4.24483 -1.9731 0
M  V30 13664 H 1285.15 5.76524 -2.95844 0
M  V30 13665 N 1278.56 0.518393 1.4883 0
M  V30 13666 C 1279.52 -0.23983 2.27942 0
M  V30 13667 C 1280.52 -0.878302 1.34694 0
M  V30 13668 O 1281.71 -0.740142 1.57694 0
M  V30 13669 C 1278.84 -1.34581 3.1321 0
M  V30 13670 H 1280.03 0.454599 2.96434 0
M  V30 13671 H 1277.59 0.273932 1.53881 0
M  V30 13672 H 1278.32 -2.07385 2.49323 0
M  V30 13673 H 1278.11 -0.893251 3.8179 0
M  V30 13674 H 1279.6 -1.87944 3.72917 0
M  V30 13675 N 1280.03 -1.55556 0.252993 0
M  V30 13676 C 1281 -2.20351 -0.630705 0
M  V30 13677 C 1282 -1.17461 -1.09816 0
M  V30 13678 O 1283.19 -1.42505 -1.00189 0
M  V30 13679 C 1280.32 -2.85192 -1.86757 0
M  V30 13680 H 1281.51 -2.99829 -0.0652939 0
M  V30 13681 H 1279.07 -1.563 0.00347982 0
M  V30 13682 H 1279.8 -2.09669 -2.47406 0
M  V30 13683 H 1279.59 -3.60569 -1.54053 0
M  V30 13684 H 1281.08 -3.34762 -2.49648 0
M  V30 13685 N 1281.51 0.0200419 -1.57587 0
M  V30 13686 C 1282.76 0.710078 -1.89962 0
M  V30 13687 C 1283.09 1.74521 -0.851829 0
M  V30 13688 O 1282.37 1.94052 0.132005 0
M  V30 13689 C 1282.65 1.37145 -3.32961 0
M  V30 13690 C 1282.5 0.349221 -4.48442 0
M  V30 13691 C 1283.82 2.30304 -3.75031 0
M  V30 13692 H 1280.94 0.25667 -0.690862 0
M  V30 13693 H 1283.58 -0.0271362 -1.89981 0
M  V30 13694 H 1281.73 1.99981 -3.33076 0
M  V30 13695 H 1283.4 -0.277916 -4.60462 0
M  V30 13696 H 1281.65 -0.330594 -4.32538 0
M  V30 13697 H 1282.32 0.850636 -5.45406 0
M  V30 13698 H 1284.79 1.77503 -3.7634 0
M  V30 13699 H 1283.67 2.73555 -4.75877 0
M  V30 13700 H 1283.93 3.17364 -3.07786 0
M  V30 13701 N 1282.99 1.54862 0.292472 0
M  V30 13702 C 1284.4 1.65459 0.864891 0
M  V30 13703 C 1284.75 0.568808 1.87774 0
M  V30 13704 O 1283.88 -0.293107 2.14406 0
M  V30 13705 C 1284.47 2.99939 1.5755 0
M  V30 13706 C 1283.03 3.12628 2.09621 0
M  V30 13707 C 1282.18 2.61179 0.931713 0
M  V30 13708 H 1285.13 1.58549 0.0692679 0
M  V30 13709 H 1285.15 2.91839 2.44152 0
M  V30 13710 H 1284.66 3.78943 0.838088 0
M  V30 13711 H 1282.76 2.3836 2.86383 0
M  V30 13712 H 1282.88 4.18911 2.32488 0
M  V30 13713 H 1281.24 2.17846 1.31967 0
M  V30 13714 H 1282.02 3.42669 0.208121 0
M  V30 13715 N 1284.47 -0.556076 1.47464 0
M  V30 13716 C 1285.88 -1.1382 1.47993 0
M  V30 13717 C 1286.23 -1.94785 0.235249 0
M  V30 13718 O 1285.36 -2.06098 -0.659752 0
M  V30 13719 C 1285.95 -2.07082 2.68146 0
M  V30 13720 C 1284.51 -2.60564 2.71631 0
M  V30 13721 C 1283.66 -1.36967 2.41113 0
M  V30 13722 H 1286.61 -0.34262 1.54957 0
M  V30 13723 H 1286.63 -2.90975 2.45181 0
M  V30 13724 H 1286.14 -1.48127 3.5872 0
M  V30 13725 H 1284.24 -3.23314 1.852 0
M  V30 13726 H 1284.35 -3.0148 3.72353 0
M  V30 13727 H 1282.72 -1.67678 1.91719 0
M  V30 13728 H 1283.5 -0.79803 3.33896 0
M  V30 13729 N 1285.95 -1.35615 -0.802897 0
M  V30 13730 C 1287.36 -1.26062 -1.37715 0
M  V30 13731 C 1287.71 0.105411 -1.95917 0
M  V30 13732 O 1286.83 1.00648 -1.91569 0
M  V30 13733 C 1287.43 -2.28261 -2.50365 0
M  V30 13734 C 1285.99 -2.22437 -3.03642 0
M  V30 13735 C 1285.14 -2.1377 -1.76629 0
M  V30 13736 H 1288.09 -1.46689 -0.605631 0
M  V30 13737 H 1288.11 -1.91122 -3.29017 0
M  V30 13738 H 1287.62 -3.27671 -2.07975 0
M  V30 13739 H 1285.72 -1.2645 -3.50487 0
M  V30 13740 H 1285.83 -3.14558 -3.61373 0
M  V30 13741 H 1284.2 -1.59806 -1.98328 0
M  V30 13742 H 1284.98 -3.15046 -1.36385 0
M  V30 13743 N 1287.43 1.02549 -1.19673 0
M  V30 13744 C 1288.84 1.28271 -0.94967 0
M  V30 13745 C 1289.04 1.97961 0.37599 0
M  V30 13746 O 1288.1 2.26955 1.10668 0
M  V30 13747 C 1289.41 2.12647 -2.12607 0
M  V30 13748 C 1290.96 2.25943 -2.16607 0
M  V30 13749 C 1291.43 3.13693 -3.33708 0
M  V30 13750 N 1292.92 3.21281 -3.33665 0
M  V30 13751 C 1293.66 3.89377 -4.20919 0
M  V30 13752 N 1293.16 4.59675 -5.18334 0
M  V30 13753 N 1294.95 3.85811 -4.08786 0
M  V30 13754 H 1287.1 0.557304 -2.04958 0
M  V30 13755 H 1289.36 0.308531 -0.896389 0
M  V30 13756 H 1289.07 1.68766 -3.08563 0
M  V30 13757 H 1288.94 3.13367 -2.09955 0
M  V30 13758 H 1291.33 2.69053 -1.2122 0
M  V30 13759 H 1291.41 1.24762 -2.23311 0
M  V30 13760 H 1291.05 2.7129 -4.29376 0
M  V30 13761 H 1290.98 4.14941 -3.2424 0
M  V30 13762 H 1293.48 2.71218 -2.63152 0
M  V30 13763 H 1293.79 5.09277 -5.81254 0
M  V30 13764 H 1292.13 4.58529 -5.22279 0
M  V30 13765 H 1295.32 3.30033 -3.31957 0
M  V30 13766 H 1295.5 4.38607 -4.76999 0
M  V30 13767 N 1288.9 1.00119 1.21713 0
M  V30 13768 C 1290.31 0.715611 1.72441 0
M  V30 13769 C 1290.67 -0.767 1.80587 0
M  V30 13770 O 1289.79 -1.59928 1.45781 0
M  V30 13771 C 1290.39 1.29234 3.13184 0
M  V30 13772 C 1288.94 1.05597 3.61284 0
M  V30 13773 C 1288.09 1.40749 2.38925 0
M  V30 13774 H 1291.04 1.17255 1.06943 0
M  V30 13775 H 1291.06 0.67507 3.74464 0
M  V30 13776 H 1290.58 2.37141 3.07223 0
M  V30 13777 H 1288.68 -0.00610816 3.72599 0
M  V30 13778 H 1288.79 1.72517 4.46961 0
M  V30 13779 H 1287.15 0.826207 2.40927 0
M  V30 13780 H 1287.94 2.49678 2.35618 0
M  V30 13781 N 1290.38 -1.37203 0.775435 0
M  V30 13782 C 1291.79 -1.82224 0.406372 0
M  V30 13783 C 1292.14 -1.64587 -1.06796 0
M  V30 13784 O 1291.27 -1.15903 -1.82744 0
M  V30 13785 C 1291.86 -3.30824 0.730819 0
M  V30 13786 C 1290.42 -3.74108 0.414766 0
M  V30 13787 C 1289.57 -2.59679 0.972747 0
M  V30 13788 H 1292.52 -1.25623 0.969775 0
M  V30 13789 H 1292.54 -3.80496 0.0168066 0
M  V30 13790 H 1292.05 -3.43628 1.80392 0
M  V30 13791 H 1290.15 -3.66871 -0.650866 0
M  V30 13792 H 1290.27 -4.70074 0.925595 0
M  V30 13793 H 1288.63 -2.51591 0.396772 0
M  V30 13794 H 1289.41 -2.75274 2.05132 0
M  V30 13795 N 1291.86 -0.526279 -1.48553 0
M  V30 13796 C 1293.11 0.0111473 -2.01697 0
M  V30 13797 C 1293.42 1.35675 -1.40895 0
M  V30 13798 O 1294.63 1.98233 -1.85515 0
M  V30 13799 C 1293.08 0.0702721 -3.59831 0
M  V30 13800 C 1292.69 -1.27022 -4.29616 0
M  V30 13801 C 1294.44 0.556722 -4.20834 0
M  V30 13802 C 1292.34 -1.17188 -5.79673 0
M  V30 13803 H 1291.27 0.00793697 -0.753958 0
M  V30 13804 H 1293.92 -0.669503 -1.70851 0
M  V30 13805 H 1292.31 0.81592 -3.87503 0
M  V30 13806 H 1293.48 -2.03114 -4.1362 0
M  V30 13807 H 1291.79 -1.69211 -3.80469 0
M  V30 13808 H 1294.39 0.648205 -5.30756 0
M  V30 13809 H 1294.73 1.56163 -3.859 0
M  V30 13810 H 1295.27 -0.133132 -3.97577 0
M  V30 13811 H 1292.01 -2.15182 -6.19174 0
M  V30 13812 H 1291.53 -0.452259 -5.98093 0
M  V30 13813 H 1293.21 -0.861011 -6.41245 0
M  V30 13814 N 1293.34 1.5542 -0.261239 0
M  V30 13815 C 1294.75 1.85161 0.239195 0
M  V30 13816 C 1295.1 1.18319 1.56509 0
M  V30 13817 O 1294.22 0.4666 2.1131 0
M  V30 13818 C 1294.82 3.3592 0.440781 0
M  V30 13819 C 1293.38 3.65837 0.885461 0
M  V30 13820 C 1292.53 2.77285 -0.0291982 0
M  V30 13821 H 1295.48 1.51158 -0.483417 0
M  V30 13822 H 1295.5 3.58276 1.28136 0
M  V30 13823 H 1295.01 3.84541 -0.524382 0
M  V30 13824 H 1293.11 3.22705 1.86259 0
M  V30 13825 H 1293.22 4.73469 0.732394 0
M  V30 13826 H 1291.59 2.50045 0.484701 0
M  V30 13827 H 1292.37 3.28716 -0.989992 0
M  V30 13828 N 1294.82 -0.0116844 1.57596 0
M  V30 13829 C 1295.73 -1.02342 2.111 0
M  V30 13830 C 1296.74 -1.38478 1.05355 0
M  V30 13831 O 1297.92 -1.47447 1.37191 0
M  V30 13832 C 1294.98 -2.30016 2.5941 0
M  V30 13833 C 1294.04 -2.003 3.79708 0
M  V30 13834 C 1293.28 -3.21888 4.25704 0
M  V30 13835 O 1293.5 -4.33171 3.71106 0
M  V30 13836 O 1292.43 -3.0657 5.17975 0
M  V30 13837 H 1296.26 -0.598637 2.97742 0
M  V30 13838 H 1293.84 -0.229779 1.47622 0
M  V30 13839 H 1295.73 -3.05044 2.90733 0
M  V30 13840 H 1294.4 -2.71755 1.75871 0
M  V30 13841 H 1293.31 -1.22785 3.53376 0
M  V30 13842 H 1294.64 -1.63406 4.64284 0
M  V30 13843 N 1296.29 -1.55015 -0.284256 0
M  V30 13844 C 1297.2 -1.90203 -1.37332 0
M  V30 13845 C 1298.22 -0.797994 -1.54622 0
M  V30 13846 O 1299.4 -1.09602 -1.68965 0
M  V30 13847 C 1296.46 -2.15687 -2.71441 0
M  V30 13848 C 1295.52 -3.39313 -2.62993 0
M  V30 13849 C 1294.75 -3.63571 -3.90707 0
M  V30 13850 O 1294.98 -2.90538 -4.9086 0
M  V30 13851 O 1293.91 -4.57102 -3.91589 0
M  V30 13852 H 1297.74 -2.82888 -1.1049 0
M  V30 13853 H 1295.32 -1.41418 -0.481798 0
M  V30 13854 H 1297.2 -2.33553 -3.50758 0
M  V30 13855 H 1295.88 -1.26185 -2.98092 0
M  V30 13856 H 1294.79 -3.26793 -1.82091 0
M  V30 13857 H 1296.12 -4.28997 -2.41293 0
M  V30 13858 N 1297.77 0.548248 -1.47757 0
M  V30 13859 C 1299.19 0.875048 -1.33473 0
M  V30 13860 C 1299.39 1.98747 -0.331952 0
M  V30 13861 O 1298.44 2.51226 0.253348 0
M  V30 13862 C 1299.76 1.25982 -2.73037 0
M  V30 13863 C 1301.3 1.37074 -2.81389 0
M  V30 13864 C 1301.78 1.78902 -4.21613 0
M  V30 13865 N 1303.27 1.86037 -4.24198 0
M  V30 13866 C 1304.01 2.1975 -5.2962 0
M  V30 13867 N 1303.5 2.52013 -6.45338 0
M  V30 13868 N 1305.29 2.206 -5.17003 0
M  V30 13869 H 1297.45 -0.186033 -2.11584 0
M  V30 13870 H 1299.71 -0.0205687 -0.947777 0
M  V30 13871 H 1299.41 0.516188 -3.47891 0
M  V30 13872 H 1299.29 2.21402 -3.05387 0
M  V30 13873 H 1301.68 2.10517 -2.06801 0
M  V30 13874 H 1301.76 0.398193 -2.52682 0
M  V30 13875 H 1301.4 1.06026 -4.9671 0
M  V30 13876 H 1301.33 2.77176 -4.47751 0
M  V30 13877 H 1303.82 1.63455 -3.40721 0
M  V30 13878 H 1304.13 2.7679 -7.21531 0
M  V30 13879 H 1302.48 2.49573 -6.48643 0
M  V30 13880 H 1305.67 1.9484 -4.25623 0
M  V30 13881 H 1305.84 2.46543 -5.99267 0
M  V30 13882 N 1299.25 1.36039 0.795694 0
M  V30 13883 C 1300.67 1.16315 1.09284 0
M  V30 13884 C 1300.87 -0.017024 2.01493 0
M  V30 13885 O 1299.92 -0.684316 2.4305 0
M  V30 13886 C 1301.23 2.47113 1.71335 0
M  V30 13887 C 1302.78 2.5342 1.83705 0
M  V30 13888 C 1303.26 3.84289 2.49171 0
M  V30 13889 N 1304.75 3.856 2.56645 0
M  V30 13890 C 1305.48 4.83597 3.08094 0
M  V30 13891 N 1304.98 5.91985 3.59897 0
M  V30 13892 N 1306.77 4.71023 3.06748 0
M  V30 13893 H 1298.92 2.11611 0.182957 0
M  V30 13894 H 1301.19 0.937035 0.143771 0
M  V30 13895 H 1300.89 3.33708 1.11049 0
M  V30 13896 H 1300.77 2.62461 2.70914 0
M  V30 13897 H 1303.15 1.67247 2.43131 0
M  V30 13898 H 1303.23 2.41977 0.829495 0
M  V30 13899 H 1302.88 4.70865 1.90391 0
M  V30 13900 H 1302.81 3.93025 3.50484 0
M  V30 13901 H 1305.3 3.07291 2.19956 0
M  V30 13902 H 1305.61 6.6274 3.97487 0
M  V30 13903 H 1303.96 5.95662 3.58066 0
M  V30 13904 H 1307.15 3.8548 2.65561 0
M  V30 13905 H 1307.32 5.47555 3.46536 0
M  V30 13906 N 1300.73 -1.01913 1.20215 0
M  V30 13907 C 1302.14 -1.5692 1.01159 0
M  V30 13908 C 1302.49 -1.91368 -0.432746 0
M  V30 13909 O 1301.62 -1.71959 -1.31374 0
M  V30 13910 C 1302.21 -2.85125 1.83001 0
M  V30 13911 C 1300.77 -3.36669 1.68318 0
M  V30 13912 C 1299.92 -2.10003 1.81091 0
M  V30 13913 H 1302.87 -0.843246 1.34443 0
M  V30 13914 H 1302.89 -3.56428 1.33188 0
M  V30 13915 H 1302.4 -2.60021 2.88116 0
M  V30 13916 H 1300.5 -3.66739 0.658292 0
M  V30 13917 H 1300.61 -4.09042 2.49442 0
M  V30 13918 H 1298.98 -2.22337 1.24252 0
M  V30 13919 H 1299.76 -1.87329 2.87685 0
M  V30 13920 N 1302.21 -1.00763 -1.2118 0
M  V30 13921 C 1303.62 -0.720905 -1.42391 0
M  V30 13922 C 1303.82 0.702918 -1.88842 0
M  V30 13923 O 1302.88 1.47191 -2.05161 0
M  V30 13924 C 1304.19 -1.739 -2.45315 0
M  V30 13925 C 1305.74 -1.75611 -2.59094 0
M  V30 13926 C 1306.21 -2.76323 -3.65253 0
M  V30 13927 N 1307.71 -2.75007 -3.72727 0
M  V30 13928 C 1308.44 -3.49594 -4.54502 0
M  V30 13929 N 1307.94 -4.33828 -5.40153 0
M  V30 13930 N 1309.73 -3.38232 -4.4895 0
M  V30 13931 H 1301.88 -1.92697 -0.893404 0
M  V30 13932 H 1304.14 -0.831888 -0.454606 0
M  V30 13933 H 1303.85 -2.75859 -2.18162 0
M  V30 13934 H 1303.72 -1.5438 -3.44161 0
M  V30 13935 H 1306.11 -0.743416 -2.85582 0
M  V30 13936 H 1306.19 -1.99203 -1.60474 0
M  V30 13937 H 1305.84 -3.77751 -3.39509 0
M  V30 13938 H 1305.77 -2.49996 -4.63476 0
M  V30 13939 H 1308.26 -2.13897 -3.11539 0
M  V30 13940 H 1308.57 -4.8753 -5.99612 0
M  V30 13941 H 1306.91 -4.3791 -5.39685 0
M  V30 13942 H 1310.11 -2.71855 -3.81068 0
M  V30 13943 H 1310.28 -3.96615 -5.12445 0
M  V30 13944 N 1303.68 1.3679 -0.7827 0
M  V30 13945 C 1304.93 1.99023 -0.351316 0
M  V30 13946 C 1305.25 1.62436 1.07887 0
M  V30 13947 O 1304.52 0.895084 1.74256 0
M  V30 13948 H 1303.1 0.736141 -0.126909 0
M  V30 13949 H 1305.77 1.67095 -1.00325 0
M  V30 13950 H 1304.86 3.09015 -0.43774 0
M  V30 13951 N 1305.16 0.53415 1.48272 0
M  V30 13952 C 1306.39 0.00574475 2.06899 0
M  V30 13953 C 1306.81 -1.27754 1.39012 0
M  V30 13954 O 1306.16 -1.76102 0.478993 0
M  V30 13955 C 1306.21 -0.217576 3.60845 0
M  V30 13956 O 1305.93 1.01487 4.26183 0
M  V30 13957 C 1307.44 -0.785888 4.36278 0
M  V30 13958 H 1304.66 0.0353967 0.670066 0
M  V30 13959 H 1307.2 0.740984 1.90603 0
M  V30 13960 H 1305.35 -0.902875 3.76732 0
M  V30 13961 H 1305.77 0.7982 5.18391 0
M  V30 13962 H 1307.24 -0.891551 5.44753 0
M  V30 13963 H 1307.72 -1.79178 4.00989 0
M  V30 13964 H 1308.33 -0.137022 4.25079 0
M  V30 13965 N 1306.64 -1.55279 0.269478 0
M  V30 13966 C 1307.6 -2.21008 -0.607299 0
M  V30 13967 C 1308.6 -1.18619 -1.08564 0
M  V30 13968 O 1309.79 -1.4356 -0.986721 0
M  V30 13969 C 1306.93 -2.87157 -1.83721 0
M  V30 13970 H 1308.12 -2.99881 -0.0334894 0
M  V30 13971 H 1305.67 -1.56287 0.0200573 0
M  V30 13972 H 1306.41 -2.12281 -2.45168 0
M  V30 13973 H 1306.19 -3.62183 -1.5022 0
M  V30 13974 H 1307.68 -3.37391 -2.46083 0
M  V30 13975 N 1308.12 0.00332656 -1.576 0
M  V30 13976 C 1309.35 0.699945 -1.94701 0
M  V30 13977 C 1309.76 1.67492 -0.871312 0
M  V30 13978 O 1309.12 1.81882 0.150054 0
M  V30 13979 C 1309.17 1.43471 -3.31811 0
M  V30 13980 O 1308.89 0.498835 -4.35251 0
M  V30 13981 C 1310.39 2.22614 -3.83351 0
M  V30 13982 H 1307.61 0.195158 -0.641993 0
M  V30 13983 H 1310.16 -0.0468044 -2.04446 0
M  V30 13984 H 1308.31 2.13311 -3.23384 0
M  V30 13985 H 1308.72 1.01688 -5.14548 0
M  V30 13986 H 1310.2 2.69527 -4.81725 0
M  V30 13987 H 1310.68 3.05146 -3.15883 0
M  V30 13988 H 1311.28 1.57796 -3.94944 0
M  V30 13989 N 1309.6 1.55164 0.276031 0
M  V30 13990 C 1310.53 1.90844 1.34539 0
M  V30 13991 C 1311.51 0.769968 1.51676 0
M  V30 13992 O 1312.69 1.02785 1.64769 0
M  V30 13993 C 1309.82 2.17769 2.70543 0
M  V30 13994 C 1308.78 3.33592 2.68142 0
M  V30 13995 C 1308.1 3.45991 4.07669 0
M  V30 13996 C 1309.4 4.70064 2.27678 0
M  V30 13997 H 1311.1 2.80412 1.04926 0
M  V30 13998 H 1308.64 1.34918 0.503303 0
M  V30 13999 H 1310.6 2.41317 3.45462 0
M  V30 14000 H 1309.32 1.24997 3.01734 0
M  V30 14001 H 1307.98 3.10007 1.95681 0
M  V30 14002 H 1307.63 2.50691 4.36077 0
M  V30 14003 H 1307.33 4.23862 4.06958 0
M  V30 14004 H 1308.85 3.71828 4.84331 0
M  V30 14005 H 1310.26 4.93176 2.92319 0
M  V30 14006 H 1308.66 5.50829 2.38134 0
M  V30 14007 H 1309.73 4.69091 1.22808 0
M  V30 14008 N 1311.07 -0.540404 1.48045 0
M  V30 14009 C 1312.3 -1.32656 1.59427 0
M  V30 14010 C 1312.72 -1.86419 0.250924 0
M  V30 14011 O 1312.08 -1.63861 -0.775838 0
M  V30 14012 C 1312.13 -2.46062 2.63602 0
M  V30 14013 O 1311.23 -3.48794 2.20038 0
M  V30 14014 H 1310.58 -0.393334 0.534962 0
M  V30 14015 H 1313.11 -0.651363 1.93955 0
M  V30 14016 H 1313.12 -2.92396 2.84549 0
M  V30 14017 H 1311.79 -2.06291 3.61133 0
M  V30 14018 H 1310.37 -3.0865 2.0926 0
M  V30 14019 N 1312.55 -1.36459 -0.788468 0
M  V30 14020 C 1313.5 -1.30924 -1.92254 0
M  V30 14021 C 1314.49 -0.200866 -1.68205 0
M  V30 14022 O 1315.7 -0.367927 -1.762 0
M  V30 14023 H 1312.08 -0.407609 -0.631949 0
M  V30 14024 H 1314.05 -2.26695 -1.94041 0
M  V30 14025 C 1312.8 -1.11635 -3.29292 0
M  V30 14026 H 1312.12 -1.96168 -3.48365 0
M  V30 14027 H 1313.56 -1.11808 -4.08993 0
M  V30 14028 C 1312.02 0.178963 -3.36424 0
M  V30 14029 O 1312.55 1.16846 -3.8433 0
M  V30 14030 N 1310.75 0.223962 -2.89736 0
M  V30 14031 H 1310.3 -0.581888 -2.50942 0
M  V30 14032 H 1310.26 1.0903 -2.94889 0
M  V30 14033 N 1314.03 1.01274 -1.20754 0
M  V30 14034 C 1315.28 1.74586 -1.01804 0
M  V30 14035 C 1315.6 1.89727 0.450419 0
M  V30 14036 O 1314.87 1.44257 1.32539 0
M  V30 14037 H 1313.45 0.646804 -0.373702 0
M  V30 14038 H 1316.11 1.22079 -1.5193 0
M  V30 14039 H 1315.21 2.748 -1.47958 0
M  V30 14040 N 1315.51 1.01404 1.20644 0
M  V30 14041 C 1316.46 0.582109 2.23339 0
M  V30 14042 C 1317.43 -0.39649 1.61298 0
M  V30 14043 O 1318.61 -0.296504 1.88482 0
M  V30 14044 C 1315.75 -0.076029 3.45016 0
M  V30 14045 C 1314.86 0.946829 4.21496 0
M  V30 14046 C 1314 0.26001 5.30563 0
M  V30 14047 C 1313.04 1.2698 5.98784 0
M  V30 14048 N 1312.18 0.609827 6.99447 0
M  V30 14049 H 1317.02 1.46248 2.59645 0
M  V30 14050 H 1314.55 0.732145 1.27585 0
M  V30 14051 H 1316.51 -0.474714 4.1449 0
M  V30 14052 H 1315.14 -0.920062 3.0941 0
M  V30 14053 H 1314.19 1.4637 3.51113 0
M  V30 14054 H 1315.5 1.71491 4.68393 0
M  V30 14055 H 1314.66 -0.19431 6.06389 0
M  V30 14056 H 1313.4 -0.540395 4.84697 0
M  V30 14057 H 1312.4 1.73453 5.21722 0
M  V30 14058 H 1313.63 2.07144 6.46737 0
M  V30 14059 H 1311.57 -0.170756 6.55778 0
M  V30 14060 H 1311.49 1.31601 7.44458 0
M  V30 14061 H 1312.76 0.179014 7.79294 0
M  V30 14062 N 1316.99 -1.36373 0.789944 0
M  V30 14063 C 1317.92 -2.32616 0.202944 0
M  V30 14064 C 1318.9 -1.56674 -0.662364 0
M  V30 14065 O 1320.08 -1.84826 -0.596078 0
M  V30 14066 C 1317.21 -3.4092 -0.662646 0
M  V30 14067 C 1316.17 -4.27877 0.102811 0
M  V30 14068 C 1315.49 -5.27352 -0.883407 0
M  V30 14069 C 1316.79 -5.0606 1.29231 0
M  V30 14070 H 1318.49 -2.81958 1.00699 0
M  V30 14071 H 1316.03 -1.35562 0.48568 0
M  V30 14072 H 1317.99 -4.07239 -1.08324 0
M  V30 14073 H 1316.71 -2.90147 -1.4994 0
M  V30 14074 H 1315.37 -3.63114 0.504389 0
M  V30 14075 H 1315.02 -4.72853 -1.71521 0
M  V30 14076 H 1314.72 -5.86398 -0.375669 0
M  V30 14077 H 1316.24 -5.96545 -1.30256 0
M  V30 14078 H 1317.66 -5.65417 0.947446 0
M  V30 14079 H 1316.05 -5.74521 1.73338 0
M  V30 14080 H 1317.12 -4.37671 2.08739 0
M  V30 14081 N 1318.47 -0.542005 -1.47987 0
M  V30 14082 C 1319.71 -0.0144711 -2.04395 0
M  V30 14083 C 1320.07 1.30441 -1.40887 0
M  V30 14084 O 1321.27 1.91872 -1.88252 0
M  V30 14085 C 1319.54 0.0926282 -3.5728 0
M  V30 14086 S 1321.1 0.568487 -4.35102 0
M  V30 14087 H 1317.92 -0.0178299 -0.710776 0
M  V30 14088 H 1320.52 -0.725294 -1.81548 0
M  V30 14089 H 1319.22 -0.871888 -4.01032 0
M  V30 14090 H 1318.76 0.827468 -3.84599 0
M  V30 14091 H 1320.77 1.83092 -4.61185 0
M  V30 14092 N 1319.94 1.55134 -0.277709 0
M  V30 14093 C 1321.19 1.99259 0.337662 0
M  V30 14094 C 1321.51 1.16755 1.56183 0
M  V30 14095 O 1320.78 0.257707 1.94198 0
M  V30 14096 H 1319.36 0.735995 0.127751 0
M  V30 14097 H 1322.02 1.91087 -0.383646 0
M  V30 14098 H 1321.12 3.05763 0.625747 0
M  V30 14099 N 1321.42 0.00503138 1.57599 0
M  V30 14100 C 1322.38 -0.969628 2.0768 0
M  V30 14101 C 1323.38 -1.26933 0.987148 0
M  V30 14102 O 1324.57 -1.21368 1.24962 0
M  V30 14103 C 1321.71 -2.29312 2.52247 0
M  V30 14104 H 1322.9 -0.536342 2.95065 0
M  V30 14105 H 1320.45 -0.242543 1.54407 0
M  V30 14106 H 1321.19 -2.7732 1.6812 0
M  V30 14107 H 1320.97 -2.08878 3.31832 0
M  V30 14108 H 1322.46 -2.99221 2.91302 0
M  V30 14109 N 1322.9 -1.55308 -0.267798 0
M  V30 14110 C 1324.15 -1.75811 -0.996734 0
M  V30 14111 C 1324.47 -0.565161 -1.8663 0
M  V30 14112 O 1323.74 0.419775 -1.9135 0
M  V30 14113 H 1322.32 -0.648353 -0.371008 0
M  V30 14114 H 1324.98 -1.92719 -0.290775 0
M  V30 14115 H 1324.08 -2.66113 -1.63064 0
M  V30 14116 N 1324.38 0.532545 -1.4833 0
M  V30 14117 C 1325.29 1.66433 -1.65339 0
M  V30 14118 C 1326.3 1.65541 -0.535939 0
M  V30 14119 O 1327.48 1.84539 -0.806679 0
M  V30 14120 C 1324.54 3.02901 -1.68676 0
M  V30 14121 C 1323.61 3.14669 -2.92031 0
M  V30 14122 C 1322.84 4.44627 -2.95199 0
M  V30 14123 O 1323.06 5.31572 -2.06851 0
M  V30 14124 O 1322 4.60707 -3.87341 0
M  V30 14125 H 1325.82 1.5502 -2.61156 0
M  V30 14126 H 1323.41 0.705348 -1.31701 0
M  V30 14127 H 1325.29 3.84068 -1.73407 0
M  V30 14128 H 1323.96 3.14644 -0.760327 0
M  V30 14129 H 1322.87 2.32807 -2.92834 0
M  V30 14130 H 1324.2 3.07841 -3.8405 0
M  V30 14131 N 1325.86 1.36875 0.78122 0
M  V30 14132 C 1327.27 1.28236 1.35692 0
M  V30 14133 C 1327.62 -0.0742286 1.9606 0
M  V30 14134 O 1326.74 -0.97588 1.93146 0
M  V30 14135 C 1327.34 2.32215 2.46702 0
M  V30 14136 C 1325.9 2.2724 3.00065 0
M  V30 14137 C 1325.04 2.16553 1.73206 0
M  V30 14138 H 1327.99 1.47634 0.582217 0
M  V30 14139 H 1328.02 1.96333 3.25935 0
M  V30 14140 H 1327.53 3.30938 2.02735 0
M  V30 14141 H 1325.63 1.3201 3.48431 0
M  V30 14142 H 1325.74 3.20267 3.56323 0
M  V30 14143 H 1324.11 1.62941 1.95761 0
M  V30 14144 H 1324.89 3.17176 1.31356 0
M  V30 14145 N 1327.33 -1.00632 1.21289 0
M  V30 14146 C 1328.61 -1.71635 0.938124 0
M  V30 14147 C 1328.99 -2.03798 -0.550416 0
M  V30 14148 O 1328.34 -1.71065 -1.5149 0
M  V30 14149 C 1328.55 -2.97674 1.82184 0
M  V30 14150 C 1329.9 -3.7073 2.06989 0
M  V30 14151 O 1330.92 -3.07653 1.79522 0
M  V30 14152 O 1329.78 -4.84183 2.53435 0
M  V30 14153 H 1326.87 -0.748506 0.351664 0
M  V30 14154 H 1329.42 -1.06387 1.32212 0
M  V30 14155 H 1328.19 -2.70306 2.82931 0
M  V30 14156 H 1327.81 -3.70663 1.43858 0
M  V30 14157 N 1328.81 -1.02043 -1.20104 0
M  V30 14158 C 1329.74 -0.552093 -2.22451 0
M  V30 14159 C 1330.76 0.367547 -1.58597 0
M  V30 14160 O 1331.95 0.165285 -1.77733 0
M  V30 14161 C 1329.05 0.215833 -3.38212 0
M  V30 14162 C 1328.22 -0.70666 -4.31654 0
M  V30 14163 C 1327.28 0.0143628 -5.26198 0
M  V30 14164 O 1326.3 -0.609413 -5.65928 0
M  V30 14165 N 1327.51 1.28794 -5.66032 0
M  V30 14166 H 1330.27 -1.43229 -2.6326 0
M  V30 14167 H 1327.83 -0.89842 -1.34685 0
M  V30 14168 H 1329.82 0.707523 -3.98467 0
M  V30 14169 H 1328.39 0.997358 -2.96263 0
M  V30 14170 H 1327.61 -1.37859 -3.69308 0
M  V30 14171 H 1328.9 -1.33392 -4.91003 0
M  V30 14172 H 1328.3 1.8156 -5.35773 0
M  V30 14173 H 1326.86 1.72429 -6.28579 0
M  V30 14174 N 1330.29 1.35952 -0.797165 0
M  V30 14175 C 1331.22 2.32506 -0.215277 0
M  V30 14176 C 1332.2 1.57023 0.654046 0
M  V30 14177 O 1333.39 1.85139 0.586268 0
M  V30 14178 C 1330.52 3.41266 0.644557 0
M  V30 14179 C 1329.47 4.27816 -0.125501 0
M  V30 14180 C 1328.8 5.27813 0.855428 0
M  V30 14181 C 1330.1 5.05367 -1.31913 0
M  V30 14182 H 1331.79 2.8142 -1.02193 0
M  V30 14183 H 1329.34 1.35303 -0.492862 0
M  V30 14184 H 1331.29 4.07808 1.06163 0
M  V30 14185 H 1330.01 2.90938 1.484 0
M  V30 14186 H 1328.67 3.62841 -0.523639 0
M  V30 14187 H 1328.32 4.73755 1.69011 0
M  V30 14188 H 1328.02 5.86589 0.344566 0
M  V30 14189 H 1329.54 5.97227 1.2709 0
M  V30 14190 H 1330.96 5.64907 -0.977418 0
M  V30 14191 H 1329.36 5.73593 -1.76382 0
M  V30 14192 H 1330.43 4.36558 -2.11057 0
M  V30 14193 N 1331.77 0.549846 1.47697 0
M  V30 14194 C 1332.73 -0.191427 2.28399 0
M  V30 14195 C 1333.73 -0.849533 1.36527 0
M  V30 14196 O 1334.92 -0.706526 1.59229 0
M  V30 14197 C 1332.05 -1.27907 3.15995 0
M  V30 14198 H 1333.25 0.517375 2.95404 0
M  V30 14199 H 1330.8 0.30651 1.53265 0
M  V30 14200 H 1331.53 -2.0205 2.53665 0
M  V30 14201 H 1331.32 -0.812066 3.83599 0
M  V30 14202 H 1332.81 -1.79992 3.76819 0
M  V30 14203 N 1333.25 -1.54984 0.285932 0
M  V30 14204 C 1334.18 -2.20365 -0.630236 0
M  V30 14205 C 1335.19 -1.19168 -1.10918 0
M  V30 14206 O 1336.38 -1.45839 -1.02923 0
M  V30 14207 C 1333.48 -2.8244 -1.87299 0
M  V30 14208 C 1332.65 -4.09429 -1.53905 0
M  V30 14209 C 1331.71 -4.55449 -2.63538 0
M  V30 14210 O 1330.74 -5.20985 -2.29267 0
M  V30 14211 N 1331.94 -4.26498 -3.93802 0
M  V30 14212 H 1334.71 -2.99617 -0.0706044 0
M  V30 14213 H 1332.27 -1.61543 0.107486 0
M  V30 14214 H 1334.26 -3.10167 -2.59959 0
M  V30 14215 H 1332.83 -2.07117 -2.34139 0
M  V30 14216 H 1332.05 -3.88875 -0.645774 0
M  V30 14217 H 1333.34 -4.92146 -1.29111 0
M  V30 14218 H 1332.73 -3.73964 -4.24461 0
M  V30 14219 H 1331.29 -4.5897 -4.62807 0
M  V30 14220 N 1334.72 -0.0133892 -1.57594 0
M  V30 14221 C 1336.14 0.342848 -1.55874 0
M  V30 14222 C 1336.34 1.73928 -1.01742 0
M  V30 14223 O 1335.4 2.43798 -0.657158 0
M  V30 14224 C 1336.71 0.205831 -2.99995 0
M  V30 14225 C 1338.26 0.279774 -3.11747 0
M  V30 14226 C 1338.73 0.171729 -4.57678 0
M  V30 14227 N 1340.22 0.22921 -4.62633 0
M  V30 14228 C 1340.96 0.169153 -5.7315 0
M  V30 14229 N 1340.45 0.0589166 -6.92775 0
M  V30 14230 N 1342.25 0.221995 -5.61661 0
M  V30 14231 H 1334.4 -0.926727 -1.91117 0
M  V30 14232 H 1336.66 -0.356466 -0.878428 0
M  V30 14233 H 1336.37 -0.755482 -3.4349 0
M  V30 14234 H 1336.24 0.982476 -3.6418 0
M  V30 14235 H 1338.63 1.23154 -2.68174 0
M  V30 14236 H 1338.71 -0.526974 -2.50313 0
M  V30 14237 H 1338.35 -0.776547 -5.01928 0
M  V30 14238 H 1338.28 0.997138 -5.17073 0
M  V30 14239 H 1340.77 0.315196 -3.76583 0
M  V30 14240 H 1341.09 0.0193526 -7.72798 0
M  V30 14241 H 1339.43 0.0243543 -6.94996 0
M  V30 14242 H 1342.62 0.306406 -4.67096 0
M  V30 14243 H 1342.8 0.171727 -6.47772 0
M  V30 14244 N 1336.2 1.55448 0.259558 0
M  V30 14245 C 1337.13 1.9226 1.32508 0
M  V30 14246 C 1338.11 0.786012 1.5085 0
M  V30 14247 O 1339.3 1.04526 1.6367 0
M  V30 14248 C 1336.43 2.20627 2.68218 0
M  V30 14249 C 1335.38 3.36418 2.64589 0
M  V30 14250 C 1334.71 3.50295 4.03977 0
M  V30 14251 C 1336.01 4.72452 2.2268 0
M  V30 14252 H 1337.7 2.81509 1.01945 0
M  V30 14253 H 1335.25 1.35444 0.488965 0
M  V30 14254 H 1337.2 2.44968 3.42883 0
M  V30 14255 H 1335.93 1.28191 3.00391 0
M  V30 14256 H 1334.58 3.12065 1.92382 0
M  V30 14257 H 1334.23 2.55302 4.33394 0
M  V30 14258 H 1333.93 4.28155 4.02439 0
M  V30 14259 H 1335.46 3.76944 4.8036 0
M  V30 14260 H 1336.87 4.96249 2.87071 0
M  V30 14261 H 1335.27 5.53323 2.32279 0
M  V30 14262 H 1336.34 4.70367 1.17826 0
M  V30 14263 N 1337.68 -0.524672 1.4861 0
M  V30 14264 C 1338.64 -1.61092 1.63039 0
M  V30 14265 C 1339.64 -1.52718 0.503387 0
M  V30 14266 O 1340.83 -1.56293 0.769304 0
M  V30 14267 C 1337.97 -3.00722 1.60558 0
M  V30 14268 H 1339.16 -1.49636 2.59902 0
M  V30 14269 H 1336.71 -0.747135 1.37287 0
M  V30 14270 H 1337.45 -3.1768 0.651926 0
M  V30 14271 H 1337.23 -3.0821 2.42382 0
M  V30 14272 H 1338.72 -3.79688 1.73859 0
M  V30 14273 N 1339.16 -1.37287 -0.77395 0
M  V30 14274 C 1340.09 -1.28746 -1.89624 0
M  V30 14275 C 1341.1 -0.203715 -1.6152 0
M  V30 14276 O 1342.29 -0.459684 -1.72479 0
M  V30 14277 C 1339.39 -0.967342 -3.24801 0
M  V30 14278 C 1338.57 -2.1561 -3.80567 0
M  V30 14279 C 1337.62 -1.80661 -4.94215 0
M  V30 14280 O 1336.65 -2.5293 -5.09917 0
M  V30 14281 N 1337.85 -0.749424 -5.75642 0
M  V30 14282 H 1340.62 -2.25447 -1.97468 0
M  V30 14283 H 1338.18 -1.30883 -0.952956 0
M  V30 14284 H 1340.17 -0.714421 -3.98344 0
M  V30 14285 H 1338.74 -0.0889573 -3.12473 0
M  V30 14286 H 1337.96 -2.57091 -2.98828 0
M  V30 14287 H 1339.25 -2.94993 -4.14556 0
M  V30 14288 H 1338.65 -0.149673 -5.65502 0
M  V30 14289 H 1337.2 -0.556358 -6.49421 0
M  V30 14290 N 1340.64 0.999871 -1.21821 0
M  V30 14291 C 1341.55 2.12303 -0.99823 0
M  V30 14292 C 1342.56 1.73924 0.0512923 0
M  V30 14293 O 1343.74 2.00914 -0.139895 0
M  V30 14294 C 1340.8 3.41962 -0.571232 0
M  V30 14295 C 1339.86 3.94483 -1.69356 0
M  V30 14296 C 1339.1 5.17954 -1.28685 0
M  V30 14297 O 1339.32 5.70168 -0.162641 0
M  V30 14298 O 1338.25 5.64051 -2.10071 0
M  V30 14299 H 1342.08 2.3374 -1.93905 0
M  V30 14300 H 1339.67 1.10677 -1.00354 0
M  V30 14301 H 1341.55 4.20001 -0.343134 0
M  V30 14302 H 1340.22 3.21901 0.340814 0
M  V30 14303 H 1339.13 3.17648 -1.97612 0
M  V30 14304 H 1340.46 4.18964 -2.58322 0
M  V30 14305 N 1342.11 1.02678 1.19562 0
M  V30 14306 C 1343.08 0.610407 2.20922 0
M  V30 14307 C 1344.08 -0.324858 1.57484 0
M  V30 14308 O 1345.27 -0.112153 1.73839 0
M  V30 14309 C 1342.4 -0.107115 3.40732 0
M  V30 14310 H 1343.59 1.50722 2.59274 0
M  V30 14311 H 1341.15 0.817725 1.33203 0
M  V30 14312 H 1341.88 -1.01837 3.07896 0
M  V30 14313 H 1341.67 0.564901 3.88009 0
M  V30 14314 H 1343.16 -0.385423 4.15818 0
M  V30 14315 N 1343.59 -1.35528 0.804364 0
M  V30 14316 C 1344.56 -2.28153 0.21885 0
M  V30 14317 C 1345.56 -1.49486 -0.592511 0
M  V30 14318 O 1346.75 -1.69274 -0.411319 0
M  V30 14319 C 1343.88 -3.33736 -0.695195 0
M  V30 14320 H 1345.07 -2.81446 1.03576 0
M  V30 14321 H 1342.62 -1.45345 0.574854 0
M  V30 14322 H 1343.36 -2.85625 -1.53587 0
M  V30 14323 H 1343.14 -3.91931 -0.115143 0
M  V30 14324 H 1344.63 -4.02872 -1.09925 0
M  V30 14325 N 1345.07 -0.557671 -1.47404 0
M  V30 14326 C 1346 0.178019 -2.3282 0
M  V30 14327 C 1346.98 0.908318 -1.43818 0
M  V30 14328 O 1348.17 0.888693 -1.72673 0
M  V30 14329 C 1345.3 1.2082 -3.25607 0
M  V30 14330 C 1344.25 0.594335 -4.23853 0
M  V30 14331 C 1343.58 1.72919 -5.05968 0
M  V30 14332 C 1344.88 -0.452196 -5.20339 0
M  V30 14333 H 1346.57 -0.535091 -2.9458 0
M  V30 14334 H 1344.12 -0.258775 -1.41656 0
M  V30 14335 H 1346.07 1.73104 -3.84204 0
M  V30 14336 H 1344.79 1.95126 -2.61903 0
M  V30 14337 H 1343.45 0.0927898 -3.66483 0
M  V30 14338 H 1343.1 2.4613 -4.38668 0
M  V30 14339 H 1342.8 1.32422 -5.72484 0
M  V30 14340 H 1344.33 2.25527 -5.67424 0
M  V30 14341 H 1345.74 -0.0154011 -5.73298 0
M  V30 14342 H 1344.14 -0.776068 -5.95061 0
M  V30 14343 H 1345.21 -1.34791 -4.65789 0
M  V30 14344 N 1346.55 1.54831 -0.294147 0
M  V30 14345 C 1347.8 2.00298 0.317605 0
M  V30 14346 C 1348.13 1.18228 1.54064 0
M  V30 14347 O 1347.4 0.257034 1.92794 0
M  V30 14348 C 1347.69 3.53602 0.680991 0
M  V30 14349 C 1347.54 4.46416 -0.550711 0
M  V30 14350 C 1348.86 4.13379 1.51016 0
M  V30 14351 H 1345.98 0.728135 0.113965 0
M  V30 14352 H 1348.62 1.85636 -0.404883 0
M  V30 14353 H 1346.77 3.66227 1.29654 0
M  V30 14354 H 1348.44 4.45707 -1.18922 0
M  V30 14355 H 1346.68 4.17294 -1.18524 0
M  V30 14356 H 1347.36 5.51423 -0.252412 0
M  V30 14357 H 1349.83 4.04148 0.99012 0
M  V30 14358 H 1348.71 5.20818 1.73321 0
M  V30 14359 H 1348.97 3.64817 2.49722 0
M  V30 14360 N 1348.03 0.0217466 1.57585 0
M  V30 14361 C 1348.99 -0.947546 2.08696 0
M  V30 14362 C 1349.99 -1.25879 1.00055 0
M  V30 14363 O 1351.18 -1.20035 1.26242 0
M  V30 14364 C 1348.31 -2.26624 2.54665 0
M  V30 14365 H 1349.51 -0.505016 2.95617 0
M  V30 14366 H 1347.06 -0.226152 1.54655 0
M  V30 14367 H 1347.79 -2.75521 1.71052 0
M  V30 14368 H 1347.58 -2.05347 3.34028 0
M  V30 14369 H 1349.07 -2.96114 2.94459 0
M  V30 14370 N 1349.51 -1.55583 -0.251311 0
M  V30 14371 C 1350.92 -1.47908 -0.599606 0
M  V30 14372 C 1351.12 -0.711061 -1.88537 0
M  V30 14373 O 1350.18 -0.238639 -2.5137 0
M  V30 14374 C 1351.49 -2.92284 -0.706429 0
M  V30 14375 C 1353.04 -3.02629 -0.799049 0
M  V30 14376 C 1353.51 -4.48303 -0.93747 0
M  V30 14377 N 1355 -4.52222 -1.00245 0
M  V30 14378 C 1355.74 -5.62181 -1.12874 0
M  V30 14379 N 1355.24 -6.81958 -1.22085 0
M  V30 14380 N 1357.03 -5.49968 -1.16155 0
M  V30 14381 H 1349.18 -2.0396 0.592806 0
M  V30 14382 H 1351.44 -0.925797 0.203971 0
M  V30 14383 H 1351.15 -3.51297 0.168243 0
M  V30 14384 H 1351.02 -3.42524 -1.57979 0
M  V30 14385 H 1353.41 -2.43699 -1.66418 0
M  V30 14386 H 1353.49 -2.55607 0.099367 0
M  V30 14387 H 1353.13 -5.07842 -0.0769166 0
M  V30 14388 H 1353.06 -4.93002 -1.85086 0
M  V30 14389 H 1355.56 -3.65951 -0.94279 0
M  V30 14390 H 1355.87 -7.6151 -1.31616 0
M  V30 14391 H 1354.21 -6.84728 -1.1905 0
M  V30 14392 H 1357.4 -4.55327 -1.08604 0
M  V30 14393 H 1357.58 -6.35701 -1.25653 0
M  V30 14394 N 1350.98 0.516783 -1.48886 0
M  V30 14395 C 1352.23 1.26936 -1.57263 0
M  V30 14396 C 1352.55 1.93337 -0.254156 0
M  V30 14397 O 1351.82 1.81977 0.725345 0
M  V30 14398 H 1350.4 0.4715 -0.579393 0
M  V30 14399 H 1353.06 0.600289 -1.85425 0
M  V30 14400 H 1352.16 2.04167 -2.36055 0
M  V30 14401 N 1352.46 1.37696 0.766659 0
M  V30 14402 C 1353.7 1.34588 1.53836 0
M  V30 14403 C 1354.07 -0.0676384 1.91881 0
M  V30 14404 O 1355.27 -0.223479 2.67869 0
M  V30 14405 C 1353.54 2.26329 2.76604 0
M  V30 14406 S 1355.1 2.4112 3.66615 0
M  V30 14407 H 1351.91 0.477717 0.5266 0
M  V30 14408 H 1354.52 1.73495 0.901099 0
M  V30 14409 H 1353.22 3.27943 2.46742 0
M  V30 14410 H 1352.75 1.88525 3.45285 0
M  V30 14411 H 1354.77 1.62556 4.68818 0
M  V30 14412 N 1353.94 -0.993397 1.22349 0
M  V30 14413 C 1355.17 -1.76838 1.07406 0
M  V30 14414 C 1355.58 -1.8503 -0.37542 0
M  V30 14415 O 1354.94 -1.32008 -1.26016 0
M  V30 14416 C 1354.99 -3.20177 1.67837 0
M  V30 14417 O 1354.71 -3.12429 3.07115 0
M  V30 14418 C 1356.21 -4.14125 1.58161 0
M  V30 14419 H 1353.43 -0.555379 0.376557 0
M  V30 14420 H 1355.98 -1.24893 1.61932 0
M  V30 14421 H 1354.13 -3.69191 1.17375 0
M  V30 14422 H 1354.55 -4.02568 3.36213 0
M  V30 14423 H 1356.02 -5.12455 2.05169 0
M  V30 14424 H 1356.5 -4.35892 0.538073 0
M  V30 14425 H 1357.1 -3.71008 2.07926 0
M  V30 14426 N 1355.42 -1.03311 -1.19015 0
M  V30 14427 C 1356.37 -0.588076 -2.20285 0
M  V30 14428 C 1357.35 0.365442 -1.56695 0
M  V30 14429 O 1358.54 0.185725 -1.76023 0
M  V30 14430 C 1355.67 0.0553478 -3.43255 0
M  V30 14431 C 1354.76 -0.920863 -4.13982 0
M  V30 14432 N 1355.15 -2.08495 -4.60829 0
M  V30 14433 C 1353.45 -0.74522 -4.3973 0
M  V30 14434 C 1354.15 -2.701 -5.1519 0
M  V30 14435 N 1353.12 -1.98031 -5.06246 0
M  V30 14436 H 1356.93 -1.47529 -2.54189 0
M  V30 14437 H 1354.44 -0.900663 -1.35136 0
M  V30 14438 H 1356.44 0.39182 -4.15055 0
M  V30 14439 H 1355.1 0.938199 -3.1085 0
M  V30 14440 H 1356.11 -2.46418 -4.5552 0
M  V30 14441 H 1352.79 0.088182 -4.17407 0
M  V30 14442 H 1354.18 -3.6871 -5.61696 0
M  V30 14443 N 1356.9 1.35099 -0.81154 0
M  V30 14444 C 1358.14 1.9788 -0.390695 0
M  V30 14445 C 1358.46 1.6509 1.04903 0
M  V30 14446 O 1359.66 2.21273 1.57324 0
M  V30 14447 C 1358.12 3.54025 -0.647632 0
M  V30 14448 C 1357.73 3.9572 -2.10023 0
M  V30 14449 C 1359.47 4.23492 -0.29239 0
M  V30 14450 C 1357.38 5.44731 -2.30266 0
M  V30 14451 H 1356.31 0.740441 -0.14235 0
M  V30 14452 H 1358.96 1.54098 -0.996294 0
M  V30 14453 H 1357.34 3.9599 0.0279838 0
M  V30 14454 H 1358.52 3.64893 -2.81407 0
M  V30 14455 H 1356.83 3.39157 -2.41581 0
M  V30 14456 H 1359.43 5.33035 -0.421618 0
M  V30 14457 H 1359.77 4.09268 0.76195 0
M  V30 14458 H 1360.3 3.86965 -0.922122 0
M  V30 14459 H 1357.04 5.63928 -3.34163 0
M  V30 14460 H 1356.56 5.7711 -1.63413 0
M  V30 14461 H 1358.24 6.1126 -2.12062 0
M  V30 14462 N 1358.37 0.56548 1.47106 0
M  V30 14463 C 1359.79 0.225855 1.57994 0
M  V30 14464 C 1359.99 -1.27173 1.56299 0
M  V30 14465 O 1359.05 -2.05242 1.47078 0
M  V30 14466 C 1360.36 0.859829 2.88145 0
M  V30 14467 C 1361.91 0.831821 3.01744 0
M  V30 14468 C 1362.38 1.44502 4.34607 0
M  V30 14469 N 1363.87 1.40857 4.41263 0
M  V30 14470 C 1364.61 1.85258 5.42648 0
M  V30 14471 N 1364.1 2.37553 6.508 0
M  V30 14472 N 1365.9 1.76279 5.33744 0
M  V30 14473 H 1358.05 1.53837 1.46451 0
M  V30 14474 H 1360.31 0.642013 0.697512 0
M  V30 14475 H 1360.02 1.91264 2.95146 0
M  V30 14476 H 1359.89 0.357762 3.755 0
M  V30 14477 H 1362.28 -0.212319 2.94335 0
M  V30 14478 H 1362.36 1.37173 2.1591 0
M  V30 14479 H 1362 2.48827 4.42773 0
M  V30 14480 H 1361.93 0.880479 5.19187 0
M  V30 14481 H 1364.42 1.02614 3.63702 0
M  V30 14482 H 1364.74 2.69335 7.24347 0
M  V30 14483 H 1363.08 2.41569 6.51667 0
M  V30 14484 H 1366.27 1.35195 4.48152 0
M  V30 14485 H 1366.45 2.11199 6.12616 0
M  V30 14486 N 1359.85 -1.54672 0.302354 0
M  V30 14487 C 1361.1 -2.00463 -0.306978 0
M  V30 14488 C 1361.43 -1.19043 -1.53435 0
M  V30 14489 O 1360.71 -0.267255 -1.92655 0
M  V30 14490 C 1360.99 -3.53958 -0.662229 0
M  V30 14491 C 1360.84 -4.46118 0.574378 0
M  V30 14492 C 1362.16 -4.14174 -1.48821 0
M  V30 14493 H 1359.28 -0.728729 -0.110102 0
M  V30 14494 H 1361.92 -1.85419 0.414722 0
M  V30 14495 H 1360.07 -3.66909 -1.2771 0
M  V30 14496 H 1361.74 -4.45071 1.21284 0
M  V30 14497 H 1359.99 -4.1666 1.20736 0
M  V30 14498 H 1360.66 -5.51281 0.281651 0
M  V30 14499 H 1363.13 -4.04668 -0.968674 0
M  V30 14500 H 1362.01 -5.2173 -1.70556 0
M  V30 14501 H 1362.27 -3.66136 -2.47784 0
M  V30 14502 N 1361.33 -0.0301034 -1.57571 0
M  V30 14503 C 1362.57 0.652469 -1.93706 0
M  V30 14504 C 1362.93 1.69236 -0.906817 0
M  V30 14505 O 1364.14 2.42749 -1.1544 0
M  V30 14506 C 1362.41 1.25199 -3.34753 0
M  V30 14507 S 1363.97 1.9555 -3.92817 0
M  V30 14508 H 1360.78 0.214795 -0.677779 0
M  V30 14509 H 1363.39 -0.0940038 -1.95274 0
M  V30 14510 H 1362.09 0.482732 -4.07551 0
M  V30 14511 H 1361.62 2.03575 -3.36632 0
M  V30 14512 H 1363.64 3.23401 -3.76332 0
M  V30 14513 N 1362.81 1.55714 0.243056 0
M  V30 14514 C 1364.22 1.68126 0.811814 0
M  V30 14515 C 1364.57 0.628259 1.85869 0
M  V30 14516 O 1363.7 -0.224747 2.1523 0
M  V30 14517 C 1364.29 3.048 1.47928 0
M  V30 14518 C 1362.85 3.19138 1.99569 0
M  V30 14519 C 1362 2.64011 0.848149 0
M  V30 14520 H 1364.95 1.58689 0.0187918 0
M  V30 14521 H 1364.97 2.99459 2.34743 0
M  V30 14522 H 1364.48 3.81417 0.717106 0
M  V30 14523 H 1362.58 2.4735 2.78655 0
M  V30 14524 H 1362.69 4.26095 2.19043 0
M  V30 14525 H 1361.06 2.21934 1.2497 0
M  V30 14526 H 1361.84 3.43157 0.0989987 0
M  V30 14527 N 1364.29 -0.50888 1.49158 0
M  V30 14528 C 1365.2 -1.63782 1.67966 0
M  V30 14529 C 1366.21 -1.64667 0.562207 0
M  V30 14530 O 1367.39 -1.83232 0.835935 0
M  V30 14531 C 1364.45 -3.00179 1.73474 0
M  V30 14532 C 1363.51 -3.09983 2.97 0
M  V30 14533 C 1362.75 -4.39875 3.02235 0
M  V30 14534 O 1362.97 -5.28214 2.15282 0
M  V30 14535 O 1361.9 -4.54486 3.94621 0
M  V30 14536 H 1365.73 -1.50846 2.63589 0
M  V30 14537 H 1363.32 -0.684306 1.32807 0
M  V30 14538 H 1365.2 -3.8126 1.79495 0
M  V30 14539 H 1363.87 -3.13394 0.810287 0
M  V30 14540 H 1362.78 -2.28119 2.965 0
M  V30 14541 H 1364.11 -3.01693 3.88899 0
M  V30 14542 N 1365.76 -1.381 -0.759346 0
M  V30 14543 C 1367 -1.35402 -1.5312 0
M  V30 14544 C 1367.37 0.0574616 -1.91914 0
M  V30 14545 O 1368.57 0.20927 -2.67984 0
M  V30 14546 C 1366.84 -2.27793 -2.754 0
M  V30 14547 S 1368.4 -2.43061 -3.65331 0
M  V30 14548 H 1365.22 -0.480503 -0.524059 0
M  V30 14549 H 1367.82 -1.7397 -0.891886 0
M  V30 14550 H 1366.52 -3.29247 -2.45 0
M  V30 14551 H 1366.05 -1.90353 -3.44281 0
M  V30 14552 H 1368.07 -1.6504 -4.67949 0
M  V30 14553 N 1367.24 0.986894 -1.22875 0
M  V30 14554 C 1368.66 1.25185 -0.989997 0
M  V30 14555 C 1368.86 1.99057 0.31282 0
M  V30 14556 O 1367.91 2.30361 1.03392 0
M  V30 14557 C 1369.23 2.05775 -2.19265 0
M  V30 14558 C 1370.78 2.18938 -2.23686 0
M  V30 14559 C 1371.25 3.02917 -3.43519 0
M  V30 14560 N 1372.74 3.10503 -3.43718 0
M  V30 14561 C 1373.48 3.75789 -4.33094 0
M  V30 14562 N 1372.97 4.42952 -5.32696 0
M  V30 14563 N 1374.77 3.72611 -4.20854 0
M  V30 14564 H 1366.92 0.491816 -2.06628 0
M  V30 14565 H 1369.18 0.279856 -0.905751 0
M  V30 14566 H 1368.89 1.58864 -3.13776 0
M  V30 14567 H 1368.76 3.06529 -2.19818 0
M  V30 14568 H 1371.15 2.65061 -1.29718 0
M  V30 14569 H 1371.23 1.17595 -2.27168 0
M  V30 14570 H 1370.87 2.57493 -4.3779 0
M  V30 14571 H 1370.8 4.04415 -3.37277 0
M  V30 14572 H 1373.29 2.62709 -2.71647 0
M  V30 14573 H 1373.61 4.90527 -5.97162 0
M  V30 14574 H 1371.95 4.41681 -5.36603 0
M  V30 14575 H 1375.14 3.19305 -3.42289 0
M  V30 14576 H 1375.31 4.2321 -4.90711 0
M  V30 14577 N 1368.72 1.0394 1.18466 0
M  V30 14578 C 1370.14 0.758404 1.40429 0
M  V30 14579 C 1370.34 -0.652603 1.90639 0
M  V30 14580 O 1369.39 -1.417 2.08991 0
M  V30 14581 C 1370.71 1.80343 2.40618 0
M  V30 14582 C 1372.25 1.82419 2.54347 0
M  V30 14583 C 1372.73 2.8591 3.57798 0
M  V30 14584 N 1374.22 2.84793 3.65304 0
M  V30 14585 C 1374.95 3.61521 4.45073 0
M  V30 14586 N 1374.45 4.47997 5.28461 0
M  V30 14587 N 1376.24 3.50016 4.39824 0
M  V30 14588 H 1368.39 1.94998 0.842 0
M  V30 14589 H 1370.66 0.843649 0.43239 0
M  V30 14590 H 1370.36 2.81547 2.10771 0
M  V30 14591 H 1370.24 1.63451 3.39947 0
M  V30 14592 H 1372.62 0.818872 2.83511 0
M  V30 14593 H 1372.71 2.03388 1.55136 0
M  V30 14594 H 1372.35 3.8662 3.29375 0
M  V30 14595 H 1372.28 2.62196 4.56684 0
M  V30 14596 H 1374.77 2.22082 3.05758 0
M  V30 14597 H 1375.08 5.03257 5.86475 0
M  V30 14598 H 1373.43 4.52065 5.27885 0
M  V30 14599 H 1376.62 2.81862 3.73726 0
M  V30 14600 H 1376.79 4.10063 5.0175 0
M  V30 14601 N 1370.2 -1.34667 0.818693 0
M  V30 14602 C 1371.45 -1.98414 0.404759 0
M  V30 14603 C 1371.77 -1.64919 -1.03112 0
M  V30 14604 O 1371.03 -0.910695 -1.73219 0
M  V30 14605 C 1371.33 -3.53157 0.549059 0
M  V30 14606 C 1370.99 -4.06552 1.95003 0
M  V30 14607 C 1369.66 -4.20846 2.33329 0
M  V30 14608 C 1372.01 -4.35324 2.86604 0
M  V30 14609 C 1369.34 -4.61236 3.62599 0
M  V30 14610 C 1371.69 -4.77159 4.15334 0
M  V30 14611 C 1370.35 -4.89658 4.53642 0
M  V30 14612 H 1369.62 -0.726047 0.148112 0
M  V30 14613 H 1372.27 -1.60681 1.04182 0
M  V30 14614 H 1370.57 -3.91425 -0.17141 0
M  V30 14615 H 1372.27 -4.00453 0.209374 0
M  V30 14616 H 1368.86 -3.95887 1.64231 0
M  V30 14617 H 1373.04 -4.23823 2.58239 0
M  V30 14618 H 1368.3 -4.69104 3.92112 0
M  V30 14619 H 1372.47 -4.98381 4.86404 0
M  V30 14620 H 1370.1 -5.20713 5.53861 0
M  V30 14621 N 1371.68 -0.573274 -1.46804 0
M  V30 14622 C 1372.61 0.20305 -2.28299 0
M  V30 14623 C 1373.62 0.864367 -1.37958 0
M  V30 14624 O 1374.81 0.735516 -1.62642 0
M  V30 14625 C 1371.91 1.30633 -3.12711 0
M  V30 14626 C 1371.08 0.738741 -4.31116 0
M  V30 14627 C 1370.14 1.72853 -4.96999 0
M  V30 14628 O 1369.17 1.2683 -5.5489 0
M  V30 14629 N 1370.37 3.06239 -4.93151 0
M  V30 14630 H 1373.14 -0.496086 -2.95566 0
M  V30 14631 H 1370.7 -0.410411 -1.56612 0
M  V30 14632 H 1372.69 1.96755 -3.53652 0
M  V30 14633 H 1371.26 1.90846 -2.47581 0
M  V30 14634 H 1370.48 -0.0996941 -3.94074 0
M  V30 14635 H 1371.77 0.339154 -5.07668 0
M  V30 14636 H 1371.16 3.46262 -4.47347 0
M  V30 14637 H 1369.72 3.67876 -5.38062 0
M  V30 14638 N 1373.15 1.5451 -0.310553 0
M  V30 14639 C 1374.4 1.99931 0.29532 0
M  V30 14640 C 1374.72 1.20042 1.53672 0
M  V30 14641 O 1373.99 0.298841 1.93607 0
M  V30 14642 H 1372.57 0.738539 0.112111 0
M  V30 14643 H 1375.24 1.9023 -0.424092 0
M  V30 14644 H 1374.33 3.07021 0.560749 0
M  V30 14645 N 1374.63 0.0384594 1.57553 0
M  V30 14646 C 1375.56 -0.938444 2.13812 0
M  V30 14647 C 1376.54 -1.33307 1.05657 0
M  V30 14648 O 1377.73 -1.41003 1.33535 0
M  V30 14649 C 1374.86 -2.21764 2.67279 0
M  V30 14650 C 1373.81 -1.96347 3.80305 0
M  V30 14651 C 1373.14 -3.30612 4.20238 0
M  V30 14652 C 1374.44 -1.2952 5.05986 0
M  V30 14653 H 1376.13 -0.469887 2.9569 0
M  V30 14654 H 1373.68 -0.224576 1.42238 0
M  V30 14655 H 1375.63 -2.90493 3.05273 0
M  V30 14656 H 1374.36 -2.70802 1.82576 0
M  V30 14657 H 1373.02 -1.30033 3.42764 0
M  V30 14658 H 1372.66 -3.77427 3.32502 0
M  V30 14659 H 1372.36 -3.14409 4.96408 0
M  V30 14660 H 1373.89 -4.00594 4.60822 0
M  V30 14661 H 1375.3 -1.88264 5.41507 0
M  V30 14662 H 1373.7 -1.23685 5.87216 0
M  V30 14663 H 1374.77 -0.269439 4.84151 0
M  V30 14664 N 1376.11 -1.55841 -0.234795 0
M  V30 14665 C 1377.53 -1.48536 -0.583885 0
M  V30 14666 C 1377.73 -0.731018 -1.87772 0
M  V30 14667 O 1376.78 -0.265287 -2.51103 0
M  V30 14668 C 1378.1 -2.93017 -0.675389 0
M  V30 14669 C 1379.64 -3.03459 -0.766906 0
M  V30 14670 C 1380.12 -4.49272 -0.889868 0
M  V30 14671 N 1381.61 -4.5326 -0.95443 0
M  V30 14672 C 1382.35 -5.63346 -1.06905 0
M  V30 14673 N 1381.84 -6.83215 -1.14845 0
M  V30 14674 N 1383.63 -5.51169 -1.10315 0
M  V30 14675 H 1375.79 -2.0332 0.614405 0
M  V30 14676 H 1378.05 -0.923581 0.213779 0
M  V30 14677 H 1377.75 -3.51099 0.205493 0
M  V30 14678 H 1377.63 -3.4418 -1.54337 0
M  V30 14679 H 1380.02 -2.4545 -1.63823 0
M  V30 14680 H 1380.1 -2.55487 0.126472 0
M  V30 14681 H 1379.74 -5.07895 -0.0230489 0
M  V30 14682 H 1379.67 -4.94937 -1.79847 0
M  V30 14683 H 1382.16 -3.6693 -0.903923 0
M  V30 14684 H 1382.47 -7.62863 -1.23532 0
M  V30 14685 H 1380.82 -6.85952 -1.11781 0
M  V30 14686 H 1384.01 -4.56453 -1.03769 0
M  V30 14687 H 1384.18 -6.36998 -1.18903 0
M  V30 14688 N 1377.59 0.500963 -1.49426 0
M  V30 14689 C 1378.55 1.58478 -1.65582 0
M  V30 14690 C 1379.55 1.51897 -0.52762 0
M  V30 14691 O 1380.74 1.55049 -0.794071 0
M  V30 14692 C 1377.87 2.9813 -1.65322 0
M  V30 14693 H 1379.07 1.45483 -2.6225 0
M  V30 14694 H 1376.62 0.725199 -1.38458 0
M  V30 14695 H 1377.36 3.16602 -0.702384 0
M  V30 14696 H 1377.14 3.04315 -2.47255 0
M  V30 14697 H 1378.63 3.76874 -1.79878 0
M  V30 14698 N 1379.07 1.38501 0.752011 0
M  V30 14699 C 1380.48 1.19733 1.05529 0
M  V30 14700 C 1380.68 0.047088 2.01445 0
M  V30 14701 O 1379.74 -0.606645 2.45104 0
M  V30 14702 C 1381.05 2.52439 1.63386 0
M  V30 14703 C 1382.6 2.59136 1.7555 0
M  V30 14704 C 1383.08 3.92022 2.36819 0
M  V30 14705 N 1384.57 3.9357 2.44248 0
M  V30 14706 C 1385.3 4.93154 2.92553 0
M  V30 14707 N 1384.8 6.03135 3.40882 0
M  V30 14708 N 1386.59 4.80543 2.91607 0
M  V30 14709 H 1378.74 2.12085 0.115543 0
M  V30 14710 H 1381 0.941134 0.113888 0
M  V30 14711 H 1380.71 3.37072 1.00376 0
M  V30 14712 H 1380.58 2.70947 2.62427 0
M  V30 14713 H 1382.97 1.74897 2.37687 0
M  V30 14714 H 1383.05 2.44494 0.752092 0
M  V30 14715 H 1382.7 4.76684 1.75314 0
M  V30 14716 H 1382.63 4.03976 3.37803 0
M  V30 14717 H 1385.12 3.14133 2.10068 0
M  V30 14718 H 1385.43 6.7505 3.76201 0
M  V30 14719 H 1383.78 6.06752 3.38935 0
M  V30 14720 H 1386.97 3.93733 2.53163 0
M  V30 14721 H 1387.14 5.58303 3.28941 0
M  V30 14722 N 1380.55 -0.980364 1.23396 0
M  V30 14723 C 1381.96 -1.53622 1.061 0
M  V30 14724 C 1382.31 -1.92648 -0.371645 0
M  V30 14725 O 1381.43 -1.76051 -1.25837 0
M  V30 14726 C 1382.03 -2.79159 1.91979 0
M  V30 14727 C 1380.59 -3.31144 1.78943 0
M  V30 14728 C 1379.73 -2.04135 1.87681 0
M  V30 14729 H 1382.68 -0.800047 1.37058 0
M  V30 14730 H 1382.71 -3.52011 1.4446 0
M  V30 14731 H 1382.22 -2.50723 2.96242 0
M  V30 14732 H 1380.32 -3.64459 0.774634 0
M  V30 14733 H 1380.43 -4.009 2.62329 0
M  V30 14734 H 1378.8 -2.18271 1.31262 0
M  V30 14735 H 1379.58 -1.78081 2.93499 0
M  V30 14736 N 1382.02 -1.04567 -1.17913 0
M  V30 14737 C 1383.25 -0.772146 -1.92491 0
M  V30 14738 C 1383.67 0.665297 -1.75942 0
M  V30 14739 O 1383.03 1.46144 -1.07292 0
M  V30 14740 C 1383.08 -1.14966 -3.41782 0
M  V30 14741 O 1382.18 -0.278091 -4.11461 0
M  V30 14742 H 1381.52 -0.283715 -0.600335 0
M  V30 14743 H 1384.05 -1.39685 -1.49496 0
M  V30 14744 H 1384.06 -1.11374 -3.92505 0
M  V30 14745 H 1382.74 -2.1968 -3.53148 0
M  V30 14746 H 1381.32 -0.374073 -3.71019 0
M  V30 14747 N 1383.5 1.34231 -0.825823 0
M  V30 14748 C 1384.91 1.8059 -0.473724 0
M  V30 14749 C 1385.26 1.68438 1.00614 0
M  V30 14750 O 1384.39 1.22606 1.78317 0
M  V30 14751 C 1384.98 3.27884 -0.853099 0
M  V30 14752 C 1383.54 3.72311 -0.553327 0
M  V30 14753 C 1382.69 2.55889 -1.06845 0
M  V30 14754 H 1385.64 1.21937 -1.01573 0
M  V30 14755 H 1385.66 3.80172 -0.158014 0
M  V30 14756 H 1385.17 3.36696 -1.93021 0
M  V30 14757 H 1383.27 3.69034 0.514256 0
M  V30 14758 H 1383.39 4.66315 -1.09942 0
M  V30 14759 H 1381.75 2.49945 -0.489874 0
M  V30 14760 H 1382.53 2.67471 -2.15207 0
M  V30 14761 N 1384.98 0.581051 1.46498 0
M  V30 14762 C 1385.94 -0.142937 2.28754 0
M  V30 14763 C 1386.94 -0.820383 1.38298 0
M  V30 14764 O 1388.13 -0.672592 1.60692 0
M  V30 14765 C 1385.26 -1.21176 3.18637 0
M  V30 14766 H 1386.46 0.579918 2.9424 0
M  V30 14767 H 1384.01 0.338951 1.52581 0
M  V30 14768 H 1384.75 -1.96624 2.57894 0
M  V30 14769 H 1384.53 -0.730517 3.85235 0
M  V30 14770 H 1386.02 -1.71958 3.80552 0
M  V30 14771 N 1386.46 -1.54343 0.318742 0
M  V30 14772 C 1387.87 -1.59564 -0.034068 0
M  V30 14773 C 1388.07 -1.33539 -1.50896 0
M  V30 14774 O 1387.13 -1.11746 -2.26427 0
M  V30 14775 C 1388.44 -2.98291 0.379827 0
M  V30 14776 C 1389.99 -3.11255 0.330078 0
M  V30 14777 C 1390.47 -4.5232 0.719061 0
M  V30 14778 N 1391.96 -4.58295 0.67228 0
M  V30 14779 C 1392.69 -5.65551 0.945513 0
M  V30 14780 N 1392.19 -6.80767 1.28563 0
M  V30 14781 N 1393.98 -5.55305 0.871394 0
M  V30 14782 H 1386.13 -1.69518 1.27975 0
M  V30 14783 H 1388.39 -0.792627 0.520044 0
M  V30 14784 H 1388.1 -3.22319 1.40724 0
M  V30 14785 H 1387.97 -3.76319 -0.257606 0
M  V30 14786 H 1390.36 -2.86965 -0.688117 0
M  V30 14787 H 1390.44 -2.35342 1.00238 0
M  V30 14788 H 1390.09 -4.77342 1.73515 0
M  V30 14789 H 1390.02 -5.26594 0.0245001 0
M  V30 14790 H 1392.51 -3.75547 0.421059 0
M  V30 14791 H 1392.82 -7.58503 1.47963 0
M  V30 14792 H 1391.17 -6.82275 1.32385 0
M  V30 14793 H 1394.36 -4.64171 0.605205 0
M  V30 14794 H 1394.53 -6.38806 1.08769 0
M  V30 14795 N 1387.94 -0.0468143 -1.5753 0
M  V30 14796 C 1389.16 0.641161 -1.97241 0
M  V30 14797 C 1389.59 1.6384 -0.92401 0
M  V30 14798 O 1388.94 1.80946 0.113229 0
M  V30 14799 C 1388.99 1.30832 -3.36029 0
M  V30 14800 O 1388.1 2.42394 -3.33645 0
M  V30 14801 H 1387.44 0.167035 -0.642647 0
M  V30 14802 H 1389.97 -0.113921 -2.04283 0
M  V30 14803 H 1389.98 1.66102 -3.72658 0
M  V30 14804 H 1388.65 0.57744 -4.11872 0
M  V30 14805 H 1387.23 2.09104 -3.08756 0
M  V30 14806 N 1389.41 1.55964 0.226527 0
M  V30 14807 C 1390.32 1.95169 1.30178 0
M  V30 14808 C 1391.34 0.854831 1.51554 0
M  V30 14809 O 1392.52 1.15798 1.64781 0
M  V30 14810 C 1389.58 2.25612 2.63249 0
M  V30 14811 C 1388.64 3.4884 2.50219 0
M  V30 14812 C 1387.88 3.77822 3.76944 0
M  V30 14813 O 1388.1 3.08556 4.79739 0
M  V30 14814 O 1387.03 4.7132 3.74354 0
M  V30 14815 H 1390.86 2.86794 0.999145 0
M  V30 14816 H 1388.44 1.43109 0.42898 0
M  V30 14817 H 1390.33 2.4641 3.41848 0
M  V30 14818 H 1389 1.37162 2.93203 0
M  V30 14819 H 1387.91 3.33326 1.69836 0
M  V30 14820 H 1389.24 4.37657 2.25205 0
M  V30 14821 N 1390.89 -0.493031 1.4969 0
M  V30 14822 C 1391.8 -1.61991 1.69694 0
M  V30 14823 C 1392.82 -1.64061 0.579641 0
M  V30 14824 O 1393.99 -1.82335 0.855323 0
M  V30 14825 C 1391.06 -2.98323 1.76648 0
M  V30 14826 C 1390.12 -3.06816 3.00271 0
M  V30 14827 C 1389.35 -4.36644 3.06883 0
M  V30 14828 O 1389.58 -5.25901 2.20872 0
M  V30 14829 O 1388.51 -4.50275 3.99419 0
M  V30 14830 H 1392.34 -1.48042 2.65174 0
M  V30 14831 H 1389.92 -0.670182 1.33525 0
M  V30 14832 H 1391.8 -3.79335 1.83529 0
M  V30 14833 H 1390.48 -3.12517 0.843482 0
M  V30 14834 H 1389.39 -2.24962 2.98903 0
M  V30 14835 H 1390.72 -2.97551 3.92077 0
M  V30 14836 N 1392.37 -1.38898 -0.744656 0
M  V30 14837 C 1393.6 -1.3903 -1.53901 0
M  V30 14838 C 1394.02 0.0156607 -1.88093 0
M  V30 14839 O 1393.38 1.00012 -1.51219 0
M  V30 14840 C 1393.43 -2.2609 -2.80919 0
M  V30 14841 O 1392.53 -1.68414 -3.76444 0
M  V30 14842 H 1391.87 -0.473854 -0.465144 0
M  V30 14843 H 1394.4 -1.82773 -0.919525 0
M  V30 14844 H 1394.41 -2.40264 -3.29754 0
M  V30 14845 H 1393.09 -3.28271 -2.55364 0
M  V30 14846 H 1391.66 -1.63431 -3.35179 0
M  V30 14847 N 1393.85 0.973806 -1.23914 0
M  V30 14848 C 1394.78 2.08526 -1.05068 0
M  V30 14849 C 1395.76 1.70065 0.0344761 0
M  V30 14850 O 1396.94 1.93755 -0.131432 0
M  V30 14851 C 1394.07 3.41198 -0.648165 0
M  V30 14852 C 1393.03 3.9359 -1.6814 0
M  V30 14853 C 1392.35 5.22534 -1.13414 0
M  V30 14854 C 1393.65 4.22116 -3.07597 0
M  V30 14855 H 1395.35 2.24551 -1.98034 0
M  V30 14856 H 1392.89 1.07905 -0.953546 0
M  V30 14857 H 1394.85 4.18383 -0.50334 0
M  V30 14858 H 1393.57 3.25056 0.317182 0
M  V30 14859 H 1392.23 3.18555 -1.81434 0
M  V30 14860 H 1391.88 5.02747 -0.159578 0
M  V30 14861 H 1391.58 5.58555 -1.82456 0
M  V30 14862 H 1393.1 6.02334 -1.0013 0
M  V30 14863 H 1394.52 4.90027 -2.97567 0
M  V30 14864 H 1392.91 4.69352 -3.73937 0
M  V30 14865 H 1393.98 3.29128 -3.56094 0
M  V30 14866 N 1395.33 1.05191 1.17357 0
M  V30 14867 C 1396.24 0.663617 2.25018 0
M  V30 14868 C 1397.25 -0.315299 1.71119 0
M  V30 14869 O 1398.43 -0.167398 2.00703 0
M  V30 14870 C 1395.49 0.0443307 3.46672 0
M  V30 14871 C 1394.55 1.07369 4.15656 0
M  V30 14872 C 1393.79 0.483864 5.31502 0
M  V30 14873 O 1394.01 -0.706692 5.66005 0
M  V30 14874 O 1392.94 1.21812 5.89445 0
M  V30 14875 H 1396.77 1.56088 2.60519 0
M  V30 14876 H 1394.36 0.823474 1.24657 0
M  V30 14877 H 1396.24 -0.299839 4.20332 0
M  V30 14878 H 1394.91 -0.826579 3.12969 0
M  V30 14879 H 1393.82 1.46985 3.44015 0
M  V30 14880 H 1395.15 1.91575 4.53387 0
M  V30 14881 N 1396.8 -1.33791 0.83293 0
M  V30 14882 C 1398.05 -1.9868 0.435624 0
M  V30 14883 C 1398.41 -1.64809 -0.992755 0
M  V30 14884 O 1397.7 -0.914608 -1.68361 0
M  V30 14885 C 1397.89 -3.52555 0.586485 0
M  V30 14886 C 1397.72 -4.01377 2.02798 0
M  V30 14887 C 1396.49 -4.29496 2.66197 0
M  V30 14888 C 1398.69 -4.18026 2.99597 0
M  V30 14889 N 1396.67 -4.64419 4.01483 0
M  V30 14890 C 1398.04 -4.5624 4.19815 0
M  V30 14891 C 1400.1 -4.003 2.96081 0
M  V30 14892 C 1398.8 -4.78581 5.36985 0
M  V30 14893 C 1400.83 -4.23813 4.12476 0
M  V30 14894 C 1400.19 -4.62324 5.31447 0
M  V30 14895 H 1396.29 -0.75391 0.207712 0
M  V30 14896 H 1398.87 -1.62017 1.07974 0
M  V30 14897 H 1397.04 -3.8839 -0.027797 0
M  V30 14898 H 1398.77 -4.04379 0.161203 0
M  V30 14899 H 1395.53 -4.20769 2.17371 0
M  V30 14900 H 1395.95 -4.86099 4.71207 0
M  V30 14901 H 1400.6 -3.69646 2.05235 0
M  V30 14902 H 1398.31 -5.08098 6.2838 0
M  V30 14903 H 1401.9 -4.11623 4.11166 0
M  V30 14904 H 1400.78 -4.80157 6.20015 0
M  V30 14905 N 1398.28 -0.588812 -1.46187 0
M  V30 14906 C 1399.19 0.143253 -2.34162 0
M  V30 14907 C 1400.21 0.879779 -1.5012 0
M  V30 14908 O 1401.38 0.841592 -1.82973 0
M  V30 14909 C 1398.45 1.14017 -3.27416 0
M  V30 14910 C 1397.51 0.407651 -4.2736 0
M  V30 14911 C 1396.74 1.35708 -5.16158 0
M  V30 14912 O 1396.97 2.59394 -5.08007 0
M  V30 14913 O 1395.9 0.864343 -5.95662 0
M  V30 14914 H 1399.73 -0.579228 -2.98125 0
M  V30 14915 H 1397.31 -0.349174 -1.45262 0
M  V30 14916 H 1399.19 1.71484 -3.8493 0
M  V30 14917 H 1397.87 1.84401 -2.66041 0
M  V30 14918 H 1396.78 -0.209011 -3.73516 0
M  V30 14919 H 1398.11 -0.255334 -4.91537 0
M  V30 14920 N 1399.76 1.54172 -0.326923 0
M  V30 14921 C 1400.71 2.24454 0.537501 0
M  V30 14922 C 1401.68 1.23658 1.10896 0
M  V30 14923 O 1402.86 1.52348 1.14868 0
M  V30 14924 C 1400 3.00839 1.69085 0
M  V30 14925 C 1399.12 4.16459 1.1483 0
M  V30 14926 C 1398.25 4.80368 2.26761 0
M  V30 14927 C 1397.29 5.88085 1.69771 0
M  V30 14928 N 1396.43 6.45842 2.75378 0
M  V30 14929 H 1401.27 2.97921 -0.0684022 0
M  V30 14930 H 1398.8 1.4703 -0.0455287 0
M  V30 14931 H 1400.76 3.43375 2.36959 0
M  V30 14932 H 1399.39 2.297 2.26799 0
M  V30 14933 H 1398.44 3.78683 0.361004 0
M  V30 14934 H 1399.76 4.93986 0.69132 0
M  V30 14935 H 1398.91 5.25889 3.02533 0
M  V30 14936 H 1397.65 4.02228 2.75796 0
M  V30 14937 H 1396.65 5.41963 0.924985 0
M  V30 14938 H 1397.88 6.68123 1.21609 0
M  V30 14939 H 1395.82 5.70574 3.23699 0
M  V30 14940 H 1395.74 7.18792 2.34253 0
M  V30 14941 H 1397.01 6.96018 3.50969 0
M  V30 14942 N 1401.24 0.0551678 1.57503 0
M  V30 14943 C 1402.47 -0.6272 1.97164 0
M  V30 14944 C 1402.88 -1.64143 0.932876 0
M  V30 14945 O 1402.24 -1.82314 -0.0824465 0
M  V30 14946 C 1402.29 -1.31057 3.36907 0
M  V30 14947 O 1402.01 -0.336951 4.36802 0
M  V30 14948 C 1403.51 -2.08232 3.91349 0
M  V30 14949 H 1400.73 -0.171196 0.648793 0
M  V30 14950 H 1403.28 0.122651 2.04132 0
M  V30 14951 H 1401.43 -2.01162 3.31078 0
M  V30 14952 H 1401.84 -0.825204 5.17968 0
M  V30 14953 H 1403.32 -2.51463 4.91397 0
M  V30 14954 H 1403.8 -2.93212 3.26991 0
M  V30 14955 H 1404.4 -1.43029 4.00528 0
M  V30 14956 N 1402.72 -1.56081 -0.218252 0
M  V30 14957 C 1403.94 -1.83334 -0.958964 0
M  V30 14958 C 1404.36 -0.63472 -1.77811 0
M  V30 14959 O 1403.72 0.396729 -1.78136 0
M  V30 14960 C 1403.77 -3.09141 -1.87387 0
M  V30 14961 O 1403.49 -4.24379 -1.08783 0
M  V30 14962 C 1404.99 -3.49405 -2.7282 0
M  V30 14963 H 1402.21 -0.609375 -0.280898 0
M  V30 14964 H 1404.75 -2.03174 -0.232486 0
M  V30 14965 H 1402.91 -2.91267 -2.55426 0
M  V30 14966 H 1403.32 -4.9587 -1.70919 0
M  V30 14967 H 1404.8 -4.40461 -3.32713 0
M  V30 14968 H 1405.27 -2.71311 -3.45379 0
M  V30 14969 H 1405.88 -3.6973 -2.1019 0
M  V30 14970 N 1404.2 0.485086 -1.49949 0
M  V30 14971 C 1405.14 1.60559 -1.68296 0
M  V30 14972 C 1406.14 1.60264 -0.548802 0
M  V30 14973 O 1407.34 1.64581 -0.728905 0
M  V30 14974 H 1403.72 0.532529 -0.530958 0
M  V30 14975 H 1405.69 1.42242 -2.62316 0
M  V30 14976 C 1404.44 2.98596 -1.78145 0
M  V30 14977 H 1403.76 2.99536 -2.64799 0
M  V30 14978 H 1405.2 3.76492 -1.95012 0
M  V30 14979 C 1403.66 3.32708 -0.529828 0
M  V30 14980 O 1404.19 4.00281 0.337347 0
M  V30 14981 N 1402.4 2.87998 -0.388012 0
M  V30 14982 H 1401.94 2.33182 -1.0947 0
M  V30 14983 H 1401.9 3.11187 0.448307 0
M  V30 14984 N 1405.67 1.39291 0.737279 0
M  V30 14985 C 1406.9 1.39844 1.53162 0
M  V30 14986 C 1407.32 -0.00568546 1.88099 0
M  V30 14987 O 1406.68 -0.992085 1.51748 0
M  V30 14988 C 1406.73 2.27577 2.79716 0
M  V30 14989 O 1405.83 1.70408 3.75546 0
M  V30 14990 H 1405.17 0.476314 0.462624 0
M  V30 14991 H 1407.7 1.83258 0.909819 0
M  V30 14992 H 1407.71 2.42009 3.28475 0
M  V30 14993 H 1406.39 3.29621 2.53619 0
M  V30 14994 H 1404.97 1.65206 3.34307 0
M  V30 14995 N 1407.15 -0.967221 1.24429 0
M  V30 14996 C 1408.38 -1.75053 1.11226 0
M  V30 14997 C 1408.8 -1.85162 -0.331139 0
M  V30 14998 O 1408.16 -1.32288 -1.23974 0
M  V30 14999 C 1408.21 -3.14882 1.75733 0
M  V30 15000 O 1407.31 -3.99371 1.02842 0
M  V30 15001 H 1406.65 -0.538078 0.389061 0
M  V30 15002 H 1409.18 -1.21325 1.64746 0
M  V30 15003 H 1409.19 -3.65402 1.81509 0
M  V30 15004 H 1407.87 -3.06839 2.80754 0
M  V30 15005 H 1406.44 -3.57854 1.04856 0
M  V30 15006 N 1408.63 -1.05812 -1.16797 0
M  V30 15007 C 1409.54 -0.675541 -2.24663 0
M  V30 15008 C 1410.56 0.30622 -1.71284 0
M  V30 15009 O 1411.73 0.156752 -2.00789 0
M  V30 15010 C 1408.8 -0.0627149 -3.46643 0
M  V30 15011 C 1407.86 -1.09572 -4.15081 0
M  V30 15012 C 1407.09 -0.512044 -5.31238 0
M  V30 15013 O 1407.31 0.676665 -5.66372 0
M  V30 15014 O 1406.25 -1.24936 -5.88791 0
M  V30 15015 H 1410.07 -1.57467 -2.59688 0
M  V30 15016 H 1407.66 -0.830073 -1.24218 0
M  V30 15017 H 1409.54 0.277543 -4.20485 0
M  V30 15018 H 1408.22 0.80997 -3.13403 0
M  V30 15019 H 1407.12 -1.48807 -3.4323 0
M  V30 15020 H 1408.46 -1.93977 -4.52365 0
M  V30 15021 N 1410.11 1.33347 -0.840014 0
M  V30 15022 C 1411.52 1.80077 -0.492851 0
M  V30 15023 C 1411.87 1.69495 0.988221 0
M  V30 15024 O 1410.99 1.2449 1.77006 0
M  V30 15025 C 1411.59 3.2696 -0.887827 0
M  V30 15026 C 1410.15 3.71703 -0.592785 0
M  V30 15027 C 1409.3 2.54742 -1.09554 0
M  V30 15028 H 1412.25 1.20853 -1.02861 0
M  V30 15029 H 1412.27 3.79983 -0.198327 0
M  V30 15030 H 1411.78 3.3463 -1.96581 0
M  V30 15031 H 1409.88 3.69559 0.475086 0
M  V30 15032 H 1409.99 4.65123 -1.14882 0
M  V30 15033 H 1408.36 2.49411 -0.516357 0
M  V30 15034 H 1409.14 2.65173 -2.18032 0
M  V30 15035 N 1411.59 0.596556 1.45873 0
M  V30 15036 C 1412.5 -0.130832 2.34235 0
M  V30 15037 C 1413.51 -0.871805 1.50584 0
M  V30 15038 O 1414.69 -0.831877 1.83417 0
M  V30 15039 C 1411.75 -1.12279 3.28016 0
M  V30 15040 C 1410.81 -0.384982 4.2757 0
M  V30 15041 C 1410.05 -1.32969 5.1687 0
M  V30 15042 O 1410.27 -2.56696 5.09375 0
M  V30 15043 O 1409.2 -0.832741 5.96112 0
M  V30 15044 H 1413.03 0.59503 2.97814 0
M  V30 15045 H 1410.61 0.356873 1.45075 0
M  V30 15046 H 1412.5 -1.6944 3.85834 0
M  V30 15047 H 1411.17 -1.82988 2.67015 0
M  V30 15048 H 1410.08 0.228816 3.734 0
M  V30 15049 H 1411.41 0.281398 4.91395 0
M  V30 15050 O 1413.1 -1.54287 0.477264 0
M  V30 15051 H 1413.79 -1.93644 -0.0464854 0
M  V30 END ATOM
M  V30 BEGIN BOND
M  V30 END BOND
M  V30 END CTAB
M  END
$$$$
