drugbank_target|Q16134 Electron transfer flavoprotein-ubiquinone oxidoreductase, mitochondrial (DB00331; DB04141)
 OpenBabel12092120433D

  0  0  0     0  0            999 V3000
M  V30 BEGIN CTAB
M  V30 COUNTS 9608 9743 0 0 0
M  V30 BEGIN ATOM
M  V30 1 H -0.908 1.98254 -0.117106 0
M  V30 2 N 0 1.576 0 0
M  V30 3 C 0.933 2.03868 1.02534 0
M  V30 4 C 1.911 0.928543 1.3348 0
M  V30 5 O 3.095 1.19667 1.45644 0
M  V30 6 C 0.222 2.43627 2.35294 0
M  V30 7 C -0.732 3.65373 2.2001 0
M  V30 8 S 0.101 5.13292 1.52614 0
M  V30 9 C 1.257 5.56322 2.86805 0
M  V30 10 H 1.49 2.90518 0.631377 0
M  V30 11 H -0.977 1.52953 0.210867 0
M  V30 12 H 0.981 2.67203 3.11629 0
M  V30 13 H -0.358 1.57376 2.7183 0
M  V30 14 H -1.165 3.90944 3.18086 0
M  V30 15 H -1.563 3.418 1.51819 0
M  V30 16 H 0.729 5.58782 3.83104 0
M  V30 17 H 1.672 6.56266 2.65933 0
M  V30 18 H 2.08 4.83886 2.90714 0
M  V30 19 N 1.4781 -0.272755 1.55222 0
M  V30 20 C 2.4081 -1.34136 1.91127 0
M  V30 21 C 3.3891 -1.51513 0.773168 0
M  V30 22 O 4.5741 -1.64552 1.03132 0
M  V30 23 C 1.7041 -2.70083 2.1834 0
M  V30 24 C 0.6581 -2.67437 3.34158 0
M  V30 25 C -0.0159 -4.06938 3.46851 0
M  V30 26 C 1.2841 -2.26686 4.70543 0
M  V30 27 H 2.9781 -1.04333 2.80633 0
M  V30 28 H 0.5241 -0.500454 1.35024 0
M  V30 29 H 2.4771 -3.44952 2.42046 0
M  V30 30 H 1.2011 -3.01469 1.25634 0
M  V30 31 H -0.1399 -1.95026 3.1042 0
M  V30 32 H -0.4919 -4.35547 2.51611 0
M  V30 33 H -0.7919 -4.06062 4.2472 0
M  V30 34 H 0.7321 -4.83545 3.72849 0
M  V30 35 H 2.1461 -2.91277 4.93792 0
M  V30 36 H 0.5431 -2.36971 5.5133 0
M  V30 37 H 1.6131 -1.21818 4.69349 0
M  V30 38 N 2.9562 -1.48159 -0.537278 0
M  V30 39 C 4.2022 -1.56035 -1.29541 0
M  V30 40 C 4.5352 -0.230377 -1.92829 0
M  V30 41 O 3.8102 0.762952 -1.78911 0
M  V30 42 C 4.0932 -2.69323 -2.39034 0
M  V30 43 C 3.9462 -4.12002 -1.80485 0
M  V30 44 C 5.2652 -2.78408 -3.40847 0
M  V30 45 H 2.3842 -0.567992 -0.469632 0
M  V30 46 H 5.0262 -1.80302 -0.599277 0
M  V30 47 H 3.1762 -2.48763 -2.98412 0
M  V30 48 H 4.8482 -4.43981 -1.25215 0
M  V30 49 H 3.0912 -4.19344 -1.11055 0
M  V30 50 H 3.7622 -4.87077 -2.59731 0
M  V30 51 H 6.2382 -2.97012 -2.91416 0
M  V30 52 H 5.1142 -3.59416 -4.14863 0
M  V30 53 H 5.3752 -1.86269 -4.00944 0
M  V30 54 N 4.4343 0.785586 -1.36625 0
M  V30 55 C 5.8453 1.36101 -1.27803 0
M  V30 56 C 6.1963 1.96035 0.0804875 0
M  V30 57 O 5.3213 1.92834 0.982042 0
M  V30 58 C 5.9163 2.47442 -2.31426 0
M  V30 59 C 4.4753 3.00789 -2.26281 0
M  V30 60 C 3.6223 1.73896 -2.15999 0
M  V30 61 H 6.5733 0.586928 -1.47448 0
M  V30 62 H 6.5943 3.2656 -1.95291 0
M  V30 63 H 6.1063 2.03791 -3.30289 0
M  V30 64 H 4.2073 3.48851 -1.30896 0
M  V30 65 H 4.3203 3.57343 -3.19128 0
M  V30 66 H 2.6843 1.9628 -1.62316 0
M  V30 67 H 3.4673 1.32368 -3.16755 0
M  V30 68 N 5.9124 1.20967 1.01018 0
M  V30 69 C 6.8424 0.988272 2.11555 0
M  V30 70 C 7.8234 -0.0849778 1.69888 0
M  V30 71 O 9.0084 0.0738202 1.9406 0
M  V30 72 C 6.1384 0.546528 3.42973 0
M  V30 73 C 5.0924 1.56375 3.9841 0
M  V30 74 C 4.4184 0.97842 5.25672 0
M  V30 75 C 5.7184 2.94922 4.31066 0
M  V30 76 H 7.4124 1.91276 2.30334 0
M  V30 77 H 4.9584 0.921073 1.1069 0
M  V30 78 H 6.9114 0.378839 4.19694 0
M  V30 79 H 5.6354 -0.413598 3.23971 0
M  V30 80 H 4.2944 1.71891 3.23804 0
M  V30 81 H 3.9424 0.0101688 5.02999 0
M  V30 82 H 3.6424 1.65784 5.63728 0
M  V30 83 H 5.1664 0.821939 6.05043 0
M  V30 84 H 6.5804 2.8288 4.9865 0
M  V30 85 H 4.9774 3.5983 4.80253 0
M  V30 86 H 6.0474 3.4616 3.39561 0
M  V30 87 N 7.3905 -1.2043 1.01659 0
M  V30 88 C 8.3535 -2.21433 0.591616 0
M  V30 89 C 9.3535 -1.57203 -0.338226 0
M  V30 90 O 10.5435 -1.73737 -0.126918 0
M  V30 91 C 7.6755 -3.40628 -0.136058 0
M  V30 92 H 8.8685 -2.60545 1.48514 0
M  V30 93 H 6.4215 -1.33893 0.806379 0
M  V30 94 H 7.1565 -3.07019 -1.04449 0
M  V30 95 H 6.9415 -3.88475 0.531917 0
M  V30 96 H 8.4315 -4.15475 -0.420735 0
M  V30 97 N 8.8686 -0.792821 -1.36206 0
M  V30 98 C 9.8156 -0.191653 -2.30003 0
M  V30 99 C 10.7856 0.666453 -1.52143 0
M  V30 100 O 11.9706 0.61442 -1.80636 0
M  V30 101 C 9.1106 0.664848 -3.38635 0
M  V30 102 C 8.2236 -0.212175 -4.31479 0
M  V30 103 C 7.3586 0.651022 -5.27196 0
M  V30 104 C 6.3976 -0.227247 -6.11678 0
M  V30 105 N 5.5346 0.595127 -6.99573 0
M  V30 106 H 10.3746 -0.996978 -2.80828 0
M  V30 107 H 7.9116 -0.503206 -1.38225 0
M  V30 108 H 9.8696 1.17645 -4.00269 0
M  V30 109 H 8.4996 1.43557 -2.89122 0
M  V30 110 H 7.5516 -0.841777 -3.70969 0
M  V30 111 H 8.8636 -0.888751 -4.90818 0
M  V30 112 H 8.0176 1.2283 -5.94136 0
M  V30 113 H 6.7566 1.36121 -4.68319 0
M  V30 114 H 5.7616 -0.816904 -5.43697 0
M  V30 115 H 6.9866 -0.93509 -6.72631 0
M  V30 116 H 4.9326 1.28955 -6.432 0
M  V30 117 H 4.8496 -0.0236952 -7.55996 0
M  V30 118 H 6.1176 1.15613 -7.70879 0
M  V30 119 N 10.3467 1.47872 -0.545128 0
M  V30 120 C 11.2767 2.32661 0.197793 0
M  V30 121 C 12.2577 1.43041 0.920504 0
M  V30 122 O 13.4427 1.71912 0.90333 0
M  V30 123 C 10.5727 3.24569 1.23582 0
M  V30 124 C 9.5267 4.23333 0.630323 0
M  V30 125 C 8.8527 5.0448 1.77211 0
M  V30 126 C 10.1527 5.20704 -0.407974 0
M  V30 127 H 11.8467 2.95024 -0.510045 0
M  V30 128 H 9.3927 1.4187 -0.246731 0
M  V30 129 H 11.3457 3.8272 1.76362 0
M  V30 130 H 10.0697 2.60236 1.97344 0
M  V30 131 H 8.7287 3.6639 0.123922 0
M  V30 132 H 8.3767 4.36561 2.49847 0
M  V30 133 H 8.0767 5.71339 1.37281 0
M  V30 134 H 9.6007 5.65487 2.3034 0
M  V30 135 H 11.0147 5.7329 0.033305 0
M  V30 136 H 9.4117 5.95699 -0.725486 0
M  V30 137 H 10.4817 4.66917 -1.30828 0
M  V30 138 N 11.8248 0.280983 1.55075 0
M  V30 139 C 13.0498 -0.340154 2.04592 0
M  V30 140 C 13.4748 -1.48246 1.15779 0
M  V30 141 O 12.8328 -1.80614 0.15761 0
M  V30 142 C 12.8808 -0.793104 3.5177 0
M  V30 143 O 11.9848 -1.89981 3.66034 0
M  V30 144 H 11.3258 -0.0694289 0.66036 0
M  V30 145 H 13.8558 0.416993 2.00306 0
M  V30 146 H 13.8658 -1.08729 3.93245 0
M  V30 147 H 12.5408 0.0426163 4.15878 0
M  V30 148 H 11.1178 -1.60771 3.36463 0
M  V30 149 N 13.3029 -1.57598 0.00835791 0
M  V30 150 C 14.5429 -1.92788 -0.679136 0
M  V30 151 C 14.9069 -0.883378 -1.70471 0
M  V30 152 O 16.1079 -1.12079 -2.44319 0
M  V30 153 C 14.3789 -3.32994 -1.29807 0
M  V30 154 S 15.9379 -3.90082 -2.00952 0
M  V30 155 H 12.7559 -0.67475 -0.224127 0
M  V30 156 H 15.3579 -1.95385 0.0670497 0
M  V30 157 H 14.0619 -4.06846 -0.538922 0
M  V30 158 H 13.5929 -3.33791 -2.082 0
M  V30 159 H 15.6079 -3.71834 -3.28563 0
M  V30 160 N 14.781 0.264519 -1.55364 0
M  V30 161 C 15.711 1.33121 -1.91836 0
M  V30 162 C 16.692 1.51101 -0.781192 0
M  V30 163 O 17.877 1.64003 -1.04003 0
M  V30 164 C 15.007 2.68921 -2.19769 0
M  V30 165 C 13.961 2.65661 -3.35571 0
M  V30 166 C 13.287 4.05093 -3.49004 0
M  V30 167 C 14.587 2.24187 -4.71739 0
M  V30 168 H 16.281 1.02844 -2.81182 0
M  V30 169 H 13.827 0.493286 -1.35287 0
M  V30 170 H 15.78 3.43663 -2.43872 0
M  V30 171 H 14.504 3.00799 -1.27231 0
M  V30 172 H 13.163 1.93377 -3.1145 0
M  V30 173 H 12.811 4.34206 -2.53917 0
M  V30 174 H 12.511 4.03804 -4.26868 0
M  V30 175 H 14.035 4.81561 -3.75408 0
M  V30 176 H 15.449 2.88654 -4.9533 0
M  V30 177 H 13.846 2.34044 -5.52579 0
M  V30 178 H 14.916 1.19327 -4.69988 0
M  V30 179 N 16.2591 1.48442 0.529413 0
M  V30 180 C 17.2221 1.62524 1.61612 0
M  V30 181 C 18.2221 0.498509 1.52877 0
M  V30 182 O 19.4121 0.76431 1.56537 0
M  V30 183 C 16.5441 1.59597 3.01233 0
M  V30 184 H 17.7371 2.59423 1.50465 0
M  V30 185 H 15.2901 1.37047 0.751514 0
M  V30 186 H 16.0251 0.641781 3.17886 0
M  V30 187 H 15.8101 2.41397 3.08982 0
M  V30 188 H 17.3001 1.72646 3.80241 0
M  V30 189 N 17.7372 -0.778329 1.37039 0
M  V30 190 C 18.9672 -1.56507 1.34868 0
M  V30 191 C 19.3752 -1.89072 -0.0694802 0
M  V30 192 O 18.7182 -1.51434 -1.03987 0
M  V30 193 C 18.7802 -2.90641 2.11585 0
M  V30 194 C 18.4442 -2.80746 3.60598 0
M  V30 195 C 19.4412 -2.52226 4.54618 0
M  V30 196 C 17.1262 -2.98974 4.03633 0
M  V30 197 C 19.1202 -2.42054 5.89651 0
M  V30 198 C 16.8072 -2.88423 5.38754 0
M  V30 199 C 17.8052 -2.60002 6.31576 0
M  V30 200 O 17.4932 -2.49465 7.64214 0
M  V30 201 H 17.2252 -0.491723 0.463879 0
M  V30 202 H 19.7792 -0.973053 1.80889 0
M  V30 203 H 18.0092 -3.51936 1.60243 0
M  V30 204 H 19.6982 -3.51992 2.0213 0
M  V30 205 H 20.4642 -2.37835 4.22681 0
M  V30 206 H 16.3432 -3.20099 3.31749 0
M  V30 207 H 19.8872 -2.19791 6.62071 0
M  V30 208 H 15.7842 -3.0238 5.70295 0
M  V30 209 H 16.5522 -2.64864 7.74461 0
M  V30 210 N 19.2153 -1.21501 -1.00376 0
M  V30 211 C 20.1473 -0.933174 -2.09343 0
M  V30 212 C 21.1603 0.0840896 -1.62583 0
M  V30 213 O 22.3493 -0.148563 -1.77881 0
M  V30 214 C 19.4493 -0.379869 -3.36764 0
M  V30 215 C 18.6223 -1.45176 -4.12605 0
M  V30 216 C 17.6813 -0.907476 -5.18316 0
M  V30 217 O 16.7073 -1.5912 -5.46507 0
M  V30 218 N 17.9093 0.276649 -5.7984 0
M  V30 219 H 20.6743 -1.87124 -2.34104 0
M  V30 220 H 18.2353 -1.12043 -1.16867 0
M  V30 221 H 20.2273 -0.00131488 -4.047 0
M  V30 222 H 18.7973 0.463048 -3.09151 0
M  V30 223 H 18.0173 -2.00411 -3.39454 0
M  V30 224 H 19.3053 -2.17328 -4.6005 0
M  V30 225 H 18.7033 0.849147 -5.59291 0
M  V30 226 H 17.2603 0.596702 -6.49063 0
M  V30 227 N 20.6934 1.19889 -1.02296 0
M  V30 228 C 21.9334 1.91125 -0.724602 0
M  V30 229 C 22.2974 1.77464 0.732835 0
M  V30 230 O 23.4984 2.43241 1.144 0
M  V30 231 C 21.7694 3.38187 -1.15604 0
M  V30 232 S 23.3284 4.27702 -0.980621 0
M  V30 233 H 20.1464 0.66018 -0.263976 0
M  V30 234 H 22.7484 1.44978 -1.31155 0
M  V30 235 H 21.4524 3.45653 -2.21251 0
M  V30 236 H 20.9834 3.89363 -0.562131 0
M  V30 237 H 22.9984 4.96073 0.112225 0
M  V30 238 N 22.1715 0.800033 1.35784 0
M  V30 239 C 23.4185 0.377342 1.98953 0
M  V30 240 C 23.7465 -1.05378 1.6348 0
M  V30 241 O 23.0015 -1.74459 0.886707 0
M  V30 242 C 23.3005 0.500276 3.53881 0
M  V30 243 C 22.9665 1.89375 4.09204 0
M  V30 244 C 21.6285 2.27499 4.24025 0
M  V30 245 C 23.9805 2.8057 4.39238 0
M  V30 246 C 21.3085 3.562 4.66195 0
M  V30 247 C 23.6605 4.0871 4.82844 0
M  V30 248 C 22.3245 4.46843 4.95871 0
M  V30 249 H 21.5945 0.138079 0.728021 0
M  V30 250 H 24.2415 1.01955 1.62103 0
M  V30 251 H 22.5465 -0.225405 3.91151 0
M  V30 252 H 24.2435 0.154097 4.00704 0
M  V30 253 H 20.8335 1.58753 3.98115 0
M  V30 254 H 25.0175 2.52367 4.27346 0
M  V30 255 H 20.2735 3.85602 4.74469 0
M  V30 256 H 24.4475 4.79481 5.05046 0
M  V30 257 H 22.0745 5.46623 5.28306 0
M  V30 258 N 23.6496 -1.47581 0.552962 0
M  V30 259 C 24.5996 -2.26961 -0.217423 0
M  V30 260 C 25.5836 -1.34099 -0.889168 0
M  V30 261 O 26.7756 -1.58483 -0.788176 0
M  V30 262 C 23.9046 -3.19756 -1.24944 0
M  V30 263 C 22.9906 -4.20097 -0.581327 0
M  V30 264 N 23.3816 -5.04614 0.346171 0
M  V30 265 C 21.6796 -4.38099 -0.835767 0
M  V30 266 C 22.3806 -5.77052 0.733854 0
M  V30 267 N 21.3566 -5.43526 0.0896567 0
M  V30 268 H 25.1586 -2.89688 0.495761 0
M  V30 269 H 22.6726 -1.58068 0.372597 0
M  V30 270 H 24.6696 -3.75305 -1.81527 0
M  V30 271 H 23.3296 -2.58585 -1.96376 0
M  V30 272 H 24.3406 -5.12869 0.720098 0
M  V30 273 H 21.0176 -3.88102 -1.53892 0
M  V30 274 H 22.4076 -6.5504 1.49574 0
M  V30 275 N 25.1277 -0.289203 -1.54924 0
M  V30 276 C 26.0907 0.579144 -2.21762 0
M  V30 277 C 27.0907 1.07047 -1.1999 0
M  V30 278 O 28.2807 0.968384 -1.44803 0
M  V30 279 C 25.4127 1.80055 -2.8947 0
M  V30 280 H 26.6057 -0.00464908 -2.999 0
M  V30 281 H 24.1587 -0.0399306 -1.56249 0
M  V30 282 H 24.8937 2.42449 -2.15381 0
M  V30 283 H 24.6787 1.45602 -3.64064 0
M  V30 284 H 26.1687 2.41773 -3.40493 0
M  V30 285 N 26.6058 1.57591 -0.0167156 0
M  V30 286 C 27.5358 2.12496 0.967858 0
M  V30 287 C 28.5168 1.03807 1.34752 0
M  V30 288 O 29.7018 1.31577 1.42833 0
M  V30 289 C 26.8318 2.64194 2.25431 0
M  V30 290 C 25.7858 3.77559 2.01576 0
M  V30 291 C 25.1118 4.15636 3.36379 0
M  V30 292 C 26.4118 5.04151 1.36489 0
M  V30 293 H 28.1058 2.95013 0.510643 0
M  V30 294 H 25.6518 1.41915 0.244181 0
M  V30 295 H 27.6048 3.01236 2.94678 0
M  V30 296 H 26.3288 1.78821 2.73296 0
M  V30 297 H 24.9878 3.40937 1.34751 0
M  V30 298 H 24.6358 3.27263 3.81979 0
M  V30 299 H 24.3358 4.92022 3.21229 0
M  V30 300 H 25.8598 4.5525 4.06915 0
M  V30 301 H 27.2738 5.38857 1.95718 0
M  V30 302 H 25.6708 5.85453 1.31776 0
M  V30 303 H 26.7408 4.83733 0.336219 0
M  V30 304 N 28.0839 -0.256276 1.55502 0
M  V30 305 C 29.0309 -1.31714 1.89526 0
M  V30 306 C 30.0009 -1.4828 0.748479 0
M  V30 307 O 31.1859 -1.62416 1.00128 0
M  V30 308 C 28.3259 -2.66933 2.18725 0
M  V30 309 C 27.4389 -2.58452 3.4616 0
M  V30 310 C 26.5739 -3.85961 3.64976 0
M  V30 311 C 25.6129 -3.72059 4.86044 0
M  V30 312 N 24.7499 -4.9144 5.01429 0
M  V30 313 H 29.5899 -1.01998 2.80001 0
M  V30 314 H 27.1269 -0.492413 1.38613 0
M  V30 315 H 29.0849 -3.4563 2.33657 0
M  V30 316 H 27.7149 -2.94816 1.31466 0
M  V30 317 H 26.7669 -1.71374 3.3961 0
M  V30 318 H 28.0789 -2.44085 4.34999 0
M  V30 319 H 27.2329 -4.73101 3.79816 0
M  V30 320 H 25.9719 -4.03215 2.74353 0
M  V30 321 H 24.9769 -2.83302 4.7119 0
M  V30 322 H 26.2019 -3.56309 5.78118 0
M  V30 323 H 24.1479 -5.09072 4.13741 0
M  V30 324 H 24.0649 -4.79668 5.84341 0
M  V30 325 H 25.3329 -5.80104 5.20672 0
M  V30 326 N 29.562 -1.4872 -0.521534 0
M  V30 327 C 30.811 -1.56419 -1.27341 0
M  V30 328 C 31.124 -0.246805 -1.94037 0
M  V30 329 O 32.33 -0.202122 -2.70747 0
M  V30 330 C 30.786 -2.75896 -2.31105 0
M  V30 331 C 30.394 -4.14311 -1.70441 0
M  V30 332 C 32.138 -2.92913 -3.07249 0
M  V30 333 C 30.045 -5.25038 -2.72194 0
M  V30 334 H 28.975 -0.582344 -0.478949 0
M  V30 335 H 31.626 -1.75071 -0.549779 0
M  V30 336 H 30.008 -2.50697 -3.06541 0
M  V30 337 H 31.182 -4.49564 -1.01136 0
M  V30 338 H 29.497 -4.02482 -1.06759 0
M  V30 339 H 32.094 -3.72805 -3.83302 0
M  V30 340 H 32.437 -2.02689 -3.63625 0
M  V30 341 H 32.97 -3.18054 -2.38928 0
M  V30 342 H 29.709 -6.17255 -2.20627 0
M  V30 343 H 29.229 -4.94263 -3.39801 0
M  V30 344 H 30.908 -5.53508 -3.35019 0
M  V30 345 N 31.0401 0.771051 -1.3745 0
M  V30 346 C 31.9871 1.88435 -1.3327 0
M  V30 347 C 32.9571 1.64914 -0.198136 0
M  V30 348 O 34.1421 1.86821 -0.387606 0
M  V30 349 C 31.2821 3.25509 -1.14622 0
M  V30 350 C 30.3951 3.60979 -2.37314 0
M  V30 351 C 29.5301 4.87265 -2.11533 0
M  V30 352 C 28.5691 5.15469 -3.30088 0
M  V30 353 N 27.7061 6.32944 -3.03853 0
M  V30 354 H 32.5461 1.91344 -2.28455 0
M  V30 355 H 30.0831 0.935466 -1.13523 0
M  V30 356 H 32.0411 4.04582 -1.01831 0
M  V30 357 H 30.6711 3.21974 -0.230837 0
M  V30 358 H 29.7231 2.76885 -2.60842 0
M  V30 359 H 31.0351 3.77759 -3.25729 0
M  V30 360 H 30.1891 5.74244 -1.95777 0
M  V30 361 H 28.9281 4.7259 -1.20457 0
M  V30 362 H 27.9331 4.26966 -3.46382 0
M  V30 363 H 29.1581 5.32052 -4.22016 0
M  V30 364 H 27.1041 6.19625 -2.15407 0
M  V30 365 H 27.0211 6.50143 -3.85812 0
M  V30 366 H 28.2891 7.22857 -2.91716 0
M  V30 367 N 32.5182 1.22032 0.997298 0
M  V30 368 C 33.4652 0.986467 2.08656 0
M  V30 369 C 34.4352 -0.0902671 1.65855 0
M  V30 370 O 35.6202 0.0584294 1.90711 0
M  V30 371 C 32.7602 0.565569 3.40434 0
M  V30 372 C 31.8732 1.71259 3.96604 0
M  V30 373 C 31.0082 1.24011 5.16522 0
M  V30 374 C 30.0472 2.35896 5.64818 0
M  V30 375 N 29.1842 1.89726 6.7598 0
M  V30 376 H 34.0242 1.91892 2.27994 0
M  V30 377 H 31.5612 0.956199 1.11782 0
M  V30 378 H 33.5192 0.302738 4.161 0
M  V30 379 H 32.1492 -0.329879 3.2111 0
M  V30 380 H 31.2012 2.08986 3.17851 0
M  V30 381 H 32.5132 2.55436 4.28432 0
M  V30 382 H 31.6672 0.934395 5.99461 0
M  V30 383 H 30.4062 0.368487 4.86306 0
M  V30 384 H 29.4112 2.67261 4.8047 0
M  V30 385 H 30.6362 3.23567 5.97061 0
M  V30 386 H 28.5822 1.0492 6.47555 0
M  V30 387 H 28.4992 2.67471 7.07103 0
M  V30 388 H 29.7672 1.62211 7.62435 0
M  V30 389 N 33.9963 -1.19345 1.0293 0
M  V30 390 C 34.9443 -2.24621 0.604001 0
M  V30 391 C 35.9383 -1.65452 -0.363587 0
M  V30 392 O 37.1443 -1.78497 -0.23212 0
M  V30 393 H 33.5193 -0.730858 0.177061 0
M  V30 394 H 35.4903 -2.5781 1.50255 0
M  V30 395 C 34.2393 -3.47688 -0.0289127 0
M  V30 396 H 33.5623 -3.93505 0.706651 0
M  V30 397 H 35.0023 -4.23011 -0.289432 0
M  V30 398 C 33.4613 -3.11817 -1.2756 0
M  V30 399 O 33.9913 -3.2451 -2.36762 0
M  V30 400 N 32.1973 -2.66246 -1.16453 0
M  V30 401 H 31.7443 -2.56118 -0.275914 0
M  V30 402 H 31.7023 -2.42617 -1.99961 0
M  V30 403 N 35.4744 -0.807222 -1.35358 0
M  V30 404 C 36.7044 -0.399796 -2.02695 0
M  V30 405 C 37.1124 0.994176 -1.60974 0
M  V30 406 O 36.4554 1.65209 -0.803226 0
M  V30 407 C 36.5174 -0.404445 -3.57218 0
M  V30 408 C 36.1814 -1.74904 -4.22206 0
M  V30 409 C 37.1784 -2.70743 -4.4384 0
M  V30 410 C 34.8634 -2.03322 -4.5931 0
M  V30 411 C 36.8574 -3.93183 -5.01683 0
M  V30 412 C 34.5444 -3.26026 -5.16866 0
M  V30 413 C 35.5424 -4.20774 -5.37994 0
M  V30 414 O 35.2304 -5.41312 -5.94337 0
M  V30 415 H 34.9624 -0.160517 -0.656666 0
M  V30 416 H 37.5164 -1.09235 -1.73945 0
M  V30 417 H 35.7464 0.344707 -3.85161 0
M  V30 418 H 37.4354 -0.0192429 -4.05895 0
M  V30 419 H 38.2014 -2.5008 -4.15554 0
M  V30 420 H 34.0804 -1.30384 -4.42178 0
M  V30 421 H 37.6244 -4.6715 -5.1809 0
M  V30 422 H 33.5214 -3.46559 -5.44579 0
M  V30 423 H 34.2894 -5.42618 -6.12787 0
M  V30 424 N 36.9525 1.47285 -0.560781 0
M  V30 425 C 37.8825 2.32857 0.173105 0
M  V30 426 C 38.8635 1.44009 0.905281 0
M  V30 427 O 40.0485 1.7286 0.885046 0
M  V30 428 C 37.1785 3.25861 1.20133 0
M  V30 429 C 36.1325 4.23978 0.585388 0
M  V30 430 C 35.4585 5.06332 1.7185 0
M  V30 431 C 36.7585 5.20242 -0.463178 0
M  V30 432 H 38.4525 2.94466 -0.541307 0
M  V30 433 H 35.9985 1.41601 -0.261764 0
M  V30 434 H 37.9515 3.84569 1.72293 0
M  V30 435 H 36.6755 2.62315 1.94573 0
M  V30 436 H 35.3345 3.66501 0.085054 0
M  V30 437 H 34.9825 4.39186 2.45203 0
M  V30 438 H 34.6825 5.72762 1.31213 0
M  V30 439 H 36.2065 5.67899 2.24329 0
M  V30 440 H 37.6205 5.73293 -0.027502 0
M  V30 441 H 36.0175 5.94896 -0.788627 0
M  V30 442 H 37.0875 4.65504 -1.35773 0
M  V30 443 N 38.4306 0.297415 1.54768 0
M  V30 444 C 39.8416 -0.195947 1.85669 0
M  V30 445 C 40.1926 -1.53707 1.21937 0
M  V30 446 O 39.3176 -2.10164 0.515754 0
M  V30 447 C 39.9126 -0.362318 3.36857 0
M  V30 448 C 38.4716 -0.799901 3.67802 0
M  V30 449 C 37.6186 0.0938578 2.77141 0
M  V30 450 H 40.5696 0.518538 1.4999 0
M  V30 451 H 40.5906 -1.19745 3.61167 0
M  V30 452 H 40.1026 0.613921 3.83214 0
M  V30 453 H 38.2036 -1.78682 3.26961 0
M  V30 454 H 38.3166 -0.621773 4.75048 0
M  V30 455 H 36.6806 -0.426254 2.51108 0
M  V30 456 H 37.4636 1.06639 3.26318 0
M  V30 457 N 39.9087 -1.5758 0.0250728 0
M  V30 458 C 40.8387 -2.13007 -0.956575 0
M  V30 459 C 41.8197 -1.0452 -1.342 0
M  V30 460 O 43.0047 -1.32332 -1.42133 0
M  V30 461 C 40.1347 -2.65386 -2.24026 0
M  V30 462 C 39.0887 -3.78623 -1.99571 0
M  V30 463 C 38.4147 -4.17414 -3.3417 0
M  V30 464 C 39.7147 -5.04867 -1.33814 0
M  V30 465 H 41.4087 -2.9528 -0.494991 0
M  V30 466 H 38.9547 -1.42042 -0.236651 0
M  V30 467 H 40.9077 -3.02794 -2.93076 0
M  V30 468 H 39.6317 -1.80268 -2.72343 0
M  V30 469 H 38.2907 -3.41646 -1.32941 0
M  V30 470 H 37.9387 -3.29284 -3.80238 0
M  V30 471 H 37.6387 -4.93719 -3.18615 0
M  V30 472 H 39.1627 -4.57402 -4.04495 0
M  V30 473 H 40.5767 -5.39888 -1.92857 0
M  V30 474 H 38.9737 -5.86144 -1.28669 0
M  V30 475 H 40.0437 -4.83904 -0.310561 0
M  V30 476 N 41.3868 0.248026 -1.55636 0
M  V30 477 C 42.6268 0.983592 -1.79178 0
M  V30 478 C 42.9908 1.82567 -0.594414 0
M  V30 479 O 44.1918 2.59292 -0.708583 0
M  V30 480 C 42.4628 1.82228 -3.07454 0
M  V30 481 S 44.0218 2.61709 -3.52213 0
M  V30 482 H 40.8398 0.330866 -0.629324 0
M  V30 483 H 43.4418 0.251562 -1.93875 0
M  V30 484 H 42.1458 1.19333 -3.92668 0
M  V30 485 H 41.6768 2.59708 -2.95492 0
M  V30 486 H 43.6918 3.84655 -3.13457 0
M  V30 487 N 42.8649 1.48995 0.513639 0
M  V30 488 C 43.8279 1.64229 1.59879 0
M  V30 489 C 44.8279 0.514696 1.5234 0
M  V30 490 O 46.0179 0.78087 1.55718 0
M  V30 491 C 43.1499 1.62783 2.99524 0
M  V30 492 H 44.3429 2.61004 1.47705 0
M  V30 493 H 41.8959 1.37837 0.736936 0
M  V30 494 H 42.6309 0.675461 3.17188 0
M  V30 495 H 42.4159 2.4466 3.06404 0
M  V30 496 H 43.9059 1.76669 3.78388 0
M  V30 497 N 44.343 -0.763751 1.37857 0
M  V30 498 C 45.571 -1.55293 1.36718 0
M  V30 499 C 45.986 -1.88745 -0.0455434 0
M  V30 500 O 45.343 -1.52039 -1.00947 0
M  V30 501 C 45.394 -2.85831 2.2132 0
M  V30 502 O 45.115 -2.5381 3.57089 0
M  V30 503 C 46.616 -3.80023 2.28249 0
M  V30 504 H 43.836 -0.480841 0.468009 0
M  V30 505 H 46.38 -0.946009 1.81303 0
M  V30 506 H 44.535 -3.42926 1.80223 0
M  V30 507 H 44.949 -3.37459 4.01524 0
M  V30 508 H 46.423 -4.68599 2.91752 0
M  V30 509 H 46.9 -4.1973 1.2932 0
M  V30 510 H 47.506 -3.28855 2.69693 0
M  V30 511 N 45.8211 -1.22559 -0.990812 0
M  V30 512 C 47.2371 -0.985996 -1.255 0
M  V30 513 C 47.4371 0.319173 -1.98956 0
M  V30 514 O 46.4931 1.04127 -2.3003 0
M  V30 515 C 47.8061 -2.18607 -2.06474 0
M  V30 516 C 49.3541 -2.22985 -2.19651 0
M  V30 517 C 49.8291 -3.4255 -3.04012 0
M  V30 518 N 51.3201 -3.42725 -3.11599 0
M  V30 519 C 52.0551 -4.31892 -3.7717 0
M  V30 520 N 51.5511 -5.31279 -4.44651 0
M  V30 521 N 53.3441 -4.19662 -3.73952 0
M  V30 522 H 45.4951 -2.06469 -0.49841 0
M  V30 523 H 47.7581 -0.904853 -0.282747 0
M  V30 524 H 47.4641 -3.13267 -1.59865 0
M  V30 525 H 47.3381 -2.18838 -3.07229 0
M  V30 526 H 49.7251 -1.28871 -2.65474 0
M  V30 527 H 49.8061 -2.26791 -1.18319 0
M  V30 528 H 49.4501 -4.36965 -2.58889 0
M  V30 529 H 49.3801 -3.35984 -4.0549 0
M  V30 530 H 51.8711 -2.70807 -2.63575 0
M  V30 531 H 52.1841 -5.95593 -4.92431 0
M  V30 532 H 50.5291 -5.3519 -4.43392 0
M  V30 533 H 53.7201 -3.41268 -3.20396 0
M  V30 534 H 53.8931 -4.89358 -4.24774 0
M  V30 535 N 47.2992 1.18797 -1.03562 0
M  V30 536 C 48.5452 1.89192 -0.746867 0
M  V30 537 C 48.9002 1.78531 0.717245 0
M  V30 538 O 48.1932 1.17137 1.51622 0
M  V30 539 C 48.3872 3.38692 -1.14117 0
M  V30 540 C 48.2162 3.63902 -2.64207 0
M  V30 541 C 46.9862 3.81553 -3.31279 0
M  V30 542 C 49.1842 3.64903 -3.62423 0
M  V30 543 N 47.1662 3.94455 -4.70402 0
M  V30 544 C 48.5372 3.83458 -4.87196 0
M  V30 545 C 50.5922 3.47965 -3.56125 0
M  V30 546 C 49.2952 3.86829 -6.06429 0
M  V30 547 C 51.3212 3.52616 -4.7478 0
M  V30 548 C 50.6832 3.71663 -5.9837 0
M  V30 549 H 46.7822 0.711141 -0.325273 0
M  V30 550 H 49.3662 1.42727 -1.32428 0
M  V30 551 H 47.5372 3.83864 -0.591889 0
M  V30 552 H 49.2692 3.96634 -0.803966 0
M  V30 553 H 46.0242 3.80723 -2.81686 0
M  V30 554 H 46.4482 4.0474 -5.42692 0
M  V30 555 H 51.0902 3.32189 -2.61553 0
M  V30 556 H 48.8082 4.01395 -7.01362 0
M  V30 557 H 52.3942 3.40791 -4.71543 0
M  V30 558 H 51.2742 3.75145 -6.88648 0
M  V30 559 N 48.7773 0.814389 1.34928 0
M  V30 560 C 50.0023 0.410097 2.03305 0
M  V30 561 C 50.4273 -0.973464 1.60951 0
M  V30 562 O 49.7853 -1.63185 0.789964 0
M  V30 563 C 49.8333 0.51049 3.56968 0
M  V30 564 O 48.9373 -0.473035 4.09678 0
M  V30 565 H 48.2783 0.170088 0.641846 0
M  V30 566 H 50.8083 1.10244 1.72358 0
M  V30 567 H 50.8183 0.383135 4.06197 0
M  V30 568 H 49.4933 1.51963 3.87144 0
M  V30 569 H 48.0703 -0.305272 3.71648 0
M  V30 570 N 50.2554 -1.46986 0.568584 0
M  V30 571 C 51.4804 -2.07335 0.0520528 0
M  V30 572 C 51.9054 -1.41675 -1.23733 0
M  V30 573 O 51.2634 -0.495623 -1.74394 0
M  V30 574 C 51.3114 -3.60417 -0.11501 0
M  V30 575 O 50.4154 -3.95309 -1.17492 0
M  V30 576 H 49.7564 -0.661597 0.0564385 0
M  V30 577 H 52.2864 -1.88837 0.787507 0
M  V30 578 H 52.2964 -4.06698 -0.325644 0
M  V30 579 H 50.9714 -4.07601 0.826675 0
M  V30 580 H 49.5484 -3.60757 -0.943869 0
M  V30 581 N 51.7335 -0.305618 -1.54608 0
M  V30 582 C 52.9615 0.304775 -2.04643 0
M  V30 583 C 53.3765 1.47167 -1.18268 0
M  V30 584 O 52.7335 1.81296 -0.209328 0
M  V30 585 C 52.7845 0.756564 -3.53495 0
M  V30 586 O 52.5055 -0.36389 -4.36586 0
M  V30 587 C 54.0065 1.43163 -4.19546 0
M  V30 588 H 51.2265 0.0655481 -0.667791 0
M  V30 589 H 53.7705 -0.446592 -1.99564 0
M  V30 590 H 51.9255 1.45794 -3.58919 0
M  V30 591 H 52.3395 -0.0113121 -5.24499 0
M  V30 592 H 53.8135 1.69886 -5.25207 0
M  V30 593 H 54.2905 2.37318 -3.69563 0
M  V30 594 H 54.8965 0.773307 -4.18211 0
M  V30 595 N 53.2116 1.57565 -0.0334293 0
M  V30 596 C 54.4366 1.96689 0.657895 0
M  V30 597 C 54.8616 0.910057 1.64619 0
M  V30 598 O 54.2196 -0.128598 1.80843 0
M  V30 599 C 54.2676 3.34905 1.33683 0
M  V30 600 O 53.3716 3.31574 2.45219 0
M  V30 601 H 52.7126 0.641205 0.172489 0
M  V30 602 H 55.2426 2.04372 -0.0965621 0
M  V30 603 H 55.2526 3.71234 1.69262 0
M  V30 604 H 53.9276 4.11366 0.612411 0
M  V30 605 H 52.5046 3.06968 2.11719 0
M  V30 606 N 54.6897 -0.239769 1.55765 0
M  V30 607 C 55.9177 -0.98417 1.81994 0
M  V30 608 C 56.3327 -1.7867 0.610124 0
M  V30 609 O 55.6897 -1.77571 -0.421271 0
M  V30 610 C 55.7407 -1.91635 3.06526 0
M  V30 611 O 55.4617 -1.14629 4.22838 0
M  V30 612 C 56.9627 -2.77616 3.45607 0
M  V30 613 H 54.1827 -0.28928 0.605441 0
M  V30 614 H 56.7267 -0.260499 2.02834 0
M  V30 615 H 54.8817 -2.5942 2.87715 0
M  V30 616 H 55.2957 -1.77745 4.93464 0
M  V30 617 H 56.7697 -3.38759 4.35828 0
M  V30 618 H 57.2467 -3.4909 2.6652 0
M  V30 619 H 57.8527 -2.15271 3.66795 0
M  V30 620 N 56.1678 -1.49265 -0.50573 0
M  V30 621 C 57.4138 -1.58748 -1.26202 0
M  V30 622 C 57.7468 -0.271227 -1.92297 0
M  V30 623 O 57.0218 0.724831 -1.80489 0
M  V30 624 C 57.3048 -2.74332 -2.33268 0
M  V30 625 C 57.1578 -4.15737 -1.71705 0
M  V30 626 C 58.4768 -2.85576 -3.34865 0
M  V30 627 H 55.5958 -0.577826 -0.457478 0
M  V30 628 H 58.2378 -1.81532 -0.560897 0
M  V30 629 H 56.3878 -2.55036 -2.93068 0
M  V30 630 H 58.0598 -4.46537 -1.15769 0
M  V30 631 H 56.3028 -4.21605 -1.02135 0
M  V30 632 H 56.9738 -4.92477 -2.49341 0
M  V30 633 H 59.4498 -3.03127 -2.8505 0
M  V30 634 H 58.3258 -3.68135 -4.07146 0
M  V30 635 H 58.5868 -1.94732 -3.96903 0
M  V30 636 N 57.6459 0.756429 -1.3826 0
M  V30 637 C 59.0569 1.33359 -1.30661 0
M  V30 638 C 59.4079 1.96161 0.0388875 0
M  V30 639 O 58.5329 1.94874 0.940918 0
M  V30 640 C 59.1279 2.42477 -2.36622 0
M  V30 641 C 57.6869 2.95922 -2.3261 0
M  V30 642 C 56.8339 1.69275 -2.19639 0
M  V30 643 H 59.7849 0.55552 -1.4866 0
M  V30 644 H 59.8059 3.22345 -2.02174 0
M  V30 645 H 59.3179 1.96739 -3.34538 0
M  V30 646 H 57.4189 3.45996 -1.38267 0
M  V30 647 H 57.5319 3.50494 -3.26636 0
M  V30 648 H 55.8959 1.92793 -1.66442 0
M  V30 649 H 56.6789 1.25619 -3.19491 0
M  V30 650 N 59.124 1.23083 0.984299 0
M  V30 651 C 60.54 0.992637 1.24975 0
M  V30 652 C 60.74 -0.308618 1.99123 0
M  V30 653 O 59.796 -1.02905 2.30579 0
M  V30 654 C 61.109 2.19698 2.05312 0
M  V30 655 C 62.657 2.24147 2.18465 0
M  V30 656 C 63.132 3.44157 3.02192 0
M  V30 657 N 64.623 3.44372 3.09777 0
M  V30 658 C 65.358 4.33886 3.74874 0
M  V30 659 N 64.854 5.3363 4.41827 0
M  V30 660 N 66.647 4.21639 3.71721 0
M  V30 661 H 58.798 2.06731 0.487453 0
M  V30 662 H 61.061 0.906339 0.277944 0
M  V30 663 H 60.767 3.1411 1.58201 0
M  V30 664 H 60.641 2.20465 3.06064 0
M  V30 665 H 63.028 1.30277 2.64786 0
M  V30 666 H 63.109 2.27415 1.17115 0
M  V30 667 H 62.753 4.38332 2.56568 0
M  V30 668 H 62.683 3.3813 4.03702 0
M  V30 669 H 65.174 2.72201 2.62135 0
M  V30 670 H 65.487 5.98196 4.89266 0
M  V30 671 H 63.832 5.37534 4.40548 0
M  V30 672 H 67.023 3.42962 3.18582 0
M  V30 673 H 67.196 4.91604 4.22173 0
M  V30 674 N 60.6021 -1.18246 1.0419 0
M  V30 675 C 61.8511 -1.87588 0.741194 0
M  V30 676 C 62.1641 -1.81303 -0.734066 0
M  V30 677 O 63.3701 -2.46019 -1.14834 0
M  V30 678 C 61.8261 -3.36538 1.27555 0
M  V30 679 C 61.4341 -3.51349 2.77953 0
M  V30 680 C 63.1781 -4.11273 1.05143 0
M  V30 681 C 61.0851 -4.94265 3.2474 0
M  V30 682 H 60.0151 -0.702622 0.273565 0
M  V30 683 H 62.6661 -1.33601 1.25789 0
M  V30 684 H 61.0481 -3.9 0.686703 0
M  V30 685 H 62.2221 -3.08153 3.42605 0
M  V30 686 H 60.5371 -2.90022 2.98791 0
M  V30 687 H 63.1341 -5.16689 1.37611 0
M  V30 688 H 63.4771 -4.16298 -0.0112774 0
M  V30 689 H 64.0101 -3.63987 1.60495 0
M  V30 690 H 60.7491 -4.94408 4.30396 0
M  V30 691 H 60.2691 -5.38172 2.64823 0
M  V30 692 H 61.9481 -5.62987 3.18834 0
M  V30 693 N 62.0802 -0.821533 -1.34494 0
M  V30 694 C 63.3082 -0.421884 -2.02553 0
M  V30 695 C 63.7232 0.971745 -1.61872 0
M  V30 696 O 63.0802 1.62864 -0.823496 0
M  V30 697 C 63.1312 -0.51285 -3.57844 0
M  V30 698 O 62.8522 -1.85155 -3.97051 0
M  V30 699 C 64.3532 -0.107921 -4.43169 0
M  V30 700 H 61.5732 -0.169482 -0.649243 0
M  V30 701 H 64.1172 -1.1093 -1.71798 0
M  V30 702 H 62.2722 0.126474 -3.87193 0
M  V30 703 H 62.6862 -1.82482 -4.91732 0
M  V30 704 H 64.1602 -0.222657 -5.51551 0
M  V30 705 H 64.6372 0.948401 -4.28838 0
M  V30 706 H 65.2432 -0.720989 -4.19144 0
M  V30 707 N 63.5583 1.46682 -0.576371 0
M  V30 708 C 64.7863 2.06798 -0.0649635 0
M  V30 709 C 65.2013 1.42612 1.23723 0
M  V30 710 O 64.5583 0.529203 1.74659 0
M  V30 711 C 64.6093 3.6132 0.114202 0
M  V30 712 O 64.3303 4.23104 -1.13644 0
M  V30 713 C 65.8313 4.38349 0.66069 0
M  V30 714 H 63.0513 0.668778 -0.0545616 0
M  V30 715 H 65.5953 1.88404 -0.795237 0
M  V30 716 H 63.7503 3.79162 0.794673 0
M  V30 717 H 64.1643 5.15894 -0.946253 0
M  V30 718 H 65.6383 5.47081 0.73526 0
M  V30 719 H 66.1153 4.05953 1.67627 0
M  V30 720 H 66.7213 4.25297 0.0152951 0
M  V30 721 N 65.0364 0.313813 1.54444 0
M  V30 722 C 65.9864 -0.571898 2.20711 0
M  V30 723 C 66.9704 -1.08913 1.18435 0
M  V30 724 O 68.1624 -1.02777 1.44104 0
M  V30 725 C 65.2914 -1.7371 2.96108 0
M  V30 726 C 64.3774 -1.23522 4.05713 0
M  V30 727 N 64.7684 -0.452288 5.03774 0
M  V30 728 C 63.0664 -1.51482 4.19487 0
M  V30 729 C 63.7674 -0.183438 5.81411 0
M  V30 730 N 62.7434 -0.766845 5.38164 0
M  V30 731 H 66.5454 0.0336802 2.93881 0
M  V30 732 H 64.0594 0.119192 1.61962 0
M  V30 733 H 66.0564 -2.38329 3.4206 0
M  V30 734 H 64.7164 -2.34625 2.24458 0
M  V30 735 H 65.7274 -0.0960131 5.17811 0
M  V30 736 H 62.4044 -2.13053 3.59047 0
M  V30 737 H 63.7944 0.446216 6.70417 0
M  V30 738 N 66.5145 -1.57545 0.0417849 0
M  V30 739 C 67.7445 -1.96339 -0.642995 0
M  V30 740 C 68.1525 -0.917536 -1.65463 0
M  V30 741 O 67.4955 0.107747 -1.83384 0
M  V30 742 C 67.5575 -3.31333 -1.39494 0
M  V30 743 C 67.2215 -4.53796 -0.540204 0
M  V30 744 C 68.2185 -5.19553 0.189806 0
M  V30 745 C 65.9035 -5.0006 -0.473886 0
M  V30 746 C 67.8975 -6.29904 0.974674 0
M  V30 747 C 65.5845 -6.10289 0.314677 0
M  V30 748 C 66.5825 -6.75072 1.03765 0
M  V30 749 O 66.2705 -7.83183 1.81327 0
M  V30 750 H 66.0025 -0.651241 -0.181277 0
M  V30 751 H 68.5565 -2.05148 0.101665 0
M  V30 752 H 66.7865 -3.19052 -2.18502 0
M  V30 753 H 68.4755 -3.54942 -1.96904 0
M  V30 754 H 69.2415 -4.84774 0.147981 0
M  V30 755 H 65.1205 -4.49433 -1.0262 0
M  V30 756 H 68.6645 -6.80401 1.5395 0
M  V30 757 H 64.5615 -6.44506 0.358174 0
M  V30 758 H 65.3295 -7.99913 1.73438 0
M  V30 759 N 67.9926 0.231505 -1.5589 0
M  V30 760 C 69.2206 0.974505 -1.82513 0
M  V30 761 C 69.6356 1.78344 -0.619591 0
M  V30 762 O 68.9926 1.77792 0.411848 0
M  V30 763 C 69.0436 1.90007 -3.07538 0
M  V30 764 O 68.7646 1.12385 -4.2344 0
M  V30 765 C 70.2656 2.75779 -3.47075 0
M  V30 766 H 67.4856 0.286065 -0.606966 0
M  V30 767 H 70.0296 0.249739 -2.02969 0
M  V30 768 H 68.1846 2.57891 -2.89086 0
M  V30 769 H 68.5986 1.75125 -4.944 0
M  V30 770 H 70.0726 3.36443 -4.37619 0
M  V30 771 H 70.5496 3.47672 -2.68367 0
M  V30 772 H 71.1556 2.13323 -3.67931 0
M  V30 773 N 69.4707 1.49531 0.497807 0
M  V30 774 C 70.7197 1.58426 1.24837 0
M  V30 775 C 71.0327 0.277643 1.93619 0
M  V30 776 O 72.2387 0.24517 2.70391 0
M  V30 777 C 70.6947 2.79538 2.26686 0
M  V30 778 C 70.3027 4.16971 1.63828 0
M  V30 779 C 72.0467 2.97764 3.0255 0
M  V30 780 C 69.9537 5.29301 2.63807 0
M  V30 781 H 68.8837 0.58989 0.469623 0
M  V30 782 H 71.5347 1.75923 0.521857 0
M  V30 783 H 69.9167 2.55542 3.02514 0
M  V30 784 H 71.0907 4.51116 0.939711 0
M  V30 785 H 69.4057 4.04129 1.00342 0
M  V30 786 H 72.0027 3.78856 3.77323 0
M  V30 787 H 72.3457 2.08448 3.60354 0
M  V30 788 H 72.8787 3.21815 2.33838 0
M  V30 789 H 69.6177 6.20687 2.10779 0
M  V30 790 H 69.1377 4.99606 3.31894 0
M  V30 791 H 70.8167 5.58768 3.2617 0
M  V30 792 N 70.9488 -0.749086 1.3866 0
M  V30 793 C 72.1788 -1.53611 1.38157 0
M  V30 794 C 72.5868 -1.89177 -0.0293595 0
M  V30 795 O 71.9298 -1.53606 -1.00752 0
M  V30 796 C 71.9918 -2.86087 2.17702 0
M  V30 797 C 71.6558 -2.73034 3.66472 0
M  V30 798 C 72.6528 -2.42526 4.59866 0
M  V30 799 C 70.3378 -2.90345 4.09884 0
M  V30 800 C 72.3318 -2.29492 5.94653 0
M  V30 801 C 70.0188 -2.7693 5.4475 0
M  V30 802 C 71.0168 -2.46547 6.36949 0
M  V30 803 O 70.7048 -2.33199 7.69333 0
M  V30 804 H 70.4368 -0.481773 0.474205 0
M  V30 805 H 72.9908 -0.934465 1.82912 0
M  V30 806 H 71.2208 -3.48458 1.67672 0
M  V30 807 H 72.9098 -3.47625 2.09551 0
M  V30 808 H 73.6758 -2.28816 4.27631 0
M  V30 809 H 69.5548 -3.1299 3.38464 0
M  V30 810 H 73.0988 -2.05698 6.66584 0
M  V30 811 H 68.9958 -2.90215 5.76581 0
M  V30 812 H 69.7638 -2.48376 7.79905 0
M  V30 813 N 72.4269 -1.23603 -0.977757 0
M  V30 814 C 73.8379 -1.06424 -1.53398 0
M  V30 815 C 74.1889 0.367578 -1.92726 0
M  V30 816 O 73.3139 1.25465 -1.76316 0
M  V30 817 C 73.9089 -1.92568 -2.78753 0
M  V30 818 C 72.4679 -1.79642 -3.30765 0
M  V30 819 C 71.6149 -1.88111 -2.03739 0
M  V30 820 H 74.5659 -1.37227 -0.797152 0
M  V30 821 H 74.5869 -1.45203 -3.51705 0
M  V30 822 H 74.0989 -2.96771 -2.50098 0
M  V30 823 H 72.1999 -0.782325 -3.64294 0
M  V30 824 H 72.3129 -2.63174 -4.00345 0
M  V30 825 H 70.6769 -1.31723 -2.17994 0
M  V30 826 H 71.4599 -2.93875 -1.77461 0
M  V30 827 N 73.905 1.17692 -1.04816 0
M  V30 828 C 75.321 1.39863 -0.768794 0
M  V30 829 C 75.521 1.91118 0.638451 0
M  V30 830 O 74.577 2.10036 1.40146 0
M  V30 831 C 75.89 2.39274 -1.82122 0
M  V30 832 C 77.438 2.52987 -1.843 0
M  V30 833 C 77.913 3.55669 -2.88555 0
M  V30 834 N 79.404 3.63183 -2.87493 0
M  V30 835 C 80.139 4.42381 -3.64811 0
M  V30 836 N 79.635 5.25125 -4.51903 0
M  V30 837 N 81.428 4.37217 -3.53267 0
M  V30 838 H 73.579 0.82752 -1.95617 0
M  V30 839 H 75.842 0.426123 -0.846831 0
M  V30 840 H 75.548 2.08678 -2.83102 0
M  V30 841 H 75.422 3.38725 -1.65967 0
M  V30 842 H 77.809 2.82896 -0.839869 0
M  V30 843 H 77.89 1.53623 -2.04532 0
M  V30 844 H 77.534 3.26499 -3.89051 0
M  V30 845 H 77.464 4.54728 -2.65575 0
M  V30 846 H 79.955 3.04103 -2.24343 0
M  V30 847 H 80.268 5.82728 -5.07591 0
M  V30 848 H 78.613 5.24519 -4.55966 0
M  V30 849 H 81.804 3.71626 -2.84625 0
M  V30 850 H 81.977 4.98696 -4.13771 0
M  V30 851 N 75.3831 0.828654 1.34056 0
M  V30 852 C 76.6601 0.341809 1.9259 0
M  V30 853 C 77.0401 -1.17158 1.75605 0
M  V30 854 O 76.3881 -1.98132 1.13824 0
M  V30 855 C 76.5981 0.777453 3.4023 0
M  V30 856 C 77.9461 0.779579 4.17382 0
M  V30 857 O 78.9701 0.7204 3.48839 0
M  V30 858 O 77.8291 0.857996 5.39723 0
M  V30 859 H 74.9231 0.0946085 0.821571 0
M  V30 860 H 77.4691 0.913827 1.42994 0
M  V30 861 H 76.2411 1.8196 3.46419 0
M  V30 862 H 75.8641 0.181444 3.97186 0
M  V30 863 N 76.8612 -1.46375 0.584142 0
M  V30 864 C 77.8082 -2.30323 -0.148286 0
M  V30 865 C 78.7782 -1.40703 -0.882713 0
M  V30 866 O 79.9632 -1.69651 -0.873099 0
M  V30 867 C 77.1032 -3.25196 -1.15507 0
M  V30 868 C 76.2162 -4.29915 -0.423943 0
M  V30 869 C 75.3512 -5.11914 -1.41838 0
M  V30 870 C 74.3902 -6.08381 -0.673736 0
M  V30 871 N 73.5272 -6.83242 -1.6163 0
M  V30 872 H 78.3672 -2.92427 0.573644 0
M  V30 873 H 75.9042 -1.44118 0.294703 0
M  V30 874 H 77.8622 -3.78646 -1.75166 0
M  V30 875 H 76.4922 -2.64898 -1.8447 0
M  V30 876 H 75.5442 -3.7931 0.287714 0
M  V30 877 H 76.8562 -4.98549 0.158128 0
M  V30 878 H 76.0102 -5.69648 -2.08773 0
M  V30 879 H 74.7492 -4.43243 -2.03438 0
M  V30 880 H 73.7542 -5.49799 0.00938483 0
M  V30 881 H 74.9792 -6.79071 -0.0631082 0
M  V30 882 H 72.9252 -6.1728 -2.22038 0
M  V30 883 H 72.8422 -7.48144 -1.08707 0
M  V30 884 H 74.1102 -7.45534 -2.27596 0
M  V30 885 N 78.3393 -0.321999 -1.54275 0
M  V30 886 C 79.6163 0.335232 -1.92706 0
M  V30 887 C 79.9963 1.70006 -1.25145 0
M  V30 888 O 79.3443 2.25067 -0.394596 0
M  V30 889 C 79.5543 0.429008 -3.46353 0
M  V30 890 C 80.9023 0.690029 -4.18956 0
M  V30 891 O 81.9263 0.511992 -3.52501 0
M  V30 892 O 80.7853 1.03338 -5.36641 0
M  V30 893 H 77.8793 0.191143 -0.804608 0
M  V30 894 H 80.4253 -0.3716 -1.65581 0
M  V30 895 H 79.1973 -0.529611 -3.87699 0
M  V30 896 H 78.8203 1.18348 -3.79578 0
M  V30 897 N 79.8174 1.5752 -0.0501392 0
M  V30 898 C 80.7644 2.1147 0.924603 0
M  V30 899 C 81.7344 1.02182 1.30951 0
M  V30 900 O 82.9194 1.29723 1.39916 0
M  V30 901 C 80.0594 2.66337 2.19451 0
M  V30 902 C 79.1724 3.89708 1.86418 0
M  V30 903 C 78.3074 4.32893 3.07859 0
M  V30 904 C 77.3464 5.48967 2.70742 0
M  V30 905 N 76.4834 5.87211 3.84874 0
M  V30 906 H 81.3234 2.94465 0.457639 0
M  V30 907 H 78.8604 1.45531 0.214266 0
M  V30 908 H 80.8184 2.96247 2.93758 0
M  V30 909 H 79.4484 1.86141 2.63726 0
M  V30 910 H 78.5004 3.66396 1.02264 0
M  V30 911 H 79.8124 4.74074 1.55096 0
M  V30 912 H 78.9664 4.6435 3.90466 0
M  V30 913 H 77.7054 3.47336 3.42358 0
M  V30 914 H 76.7104 5.17183 1.86551 0
M  V30 915 H 77.9354 6.3624 2.37436 0
M  V30 916 H 75.8814 5.04607 4.19175 0
M  V30 917 H 75.7984 6.66266 3.57247 0
M  V30 918 H 77.0664 6.23282 4.68123 0
M  V30 919 N 81.2955 -0.223234 1.56011 0
M  V30 920 C 82.7115 -0.572856 1.48965 0
M  V30 921 C 82.9115 -1.87225 0.74492 0
M  V30 922 O 81.9675 -2.50899 0.283896 0
M  V30 923 C 83.2805 -0.653646 2.9351 0
M  V30 924 C 84.8285 -0.744386 3.0402 0
M  V30 925 C 85.3035 -0.856535 4.49919 0
M  V30 926 N 86.7945 -0.9208 4.53955 0
M  V30 927 C 87.5295 -1.02726 5.64123 0
M  V30 928 N 87.0255 -1.09777 6.84047 0
M  V30 929 N 88.8185 -1.06226 5.51971 0
M  V30 930 H 80.9695 0.629462 2.02858 0
M  V30 931 H 83.2325 0.220621 0.921971 0
M  V30 932 H 82.9385 0.231518 3.50937 0
M  V30 933 H 82.8125 -1.51781 3.45315 0
M  V30 934 H 85.1995 -1.61999 2.46658 0
M  V30 935 H 85.2805 0.14541 2.55386 0
M  V30 936 H 84.9245 0.0146069 5.07898 0
M  V30 937 H 84.8545 -1.76172 4.96257 0
M  V30 938 H 87.3455 -0.876694 3.6759 0
M  V30 939 H 87.6585 -1.17872 7.63758 0
M  V30 940 H 86.0035 -1.06693 6.86762 0
M  V30 941 H 89.1945 -1.00382 4.5721 0
M  V30 942 H 89.3675 -1.14177 6.37862 0
M  V30 943 N 82.7736 -1.49793 -0.48987 0
M  V30 944 C 84.0196 -1.61049 -1.24236 0
M  V30 945 C 84.3746 -0.298412 -1.90072 0
M  V30 946 O 83.6676 0.702262 -1.78266 0
M  V30 947 C 83.8616 -2.71488 -2.32441 0
M  V30 948 C 83.6906 -4.13308 -1.77218 0
M  V30 949 C 82.4606 -4.79955 -1.58023 0
M  V30 950 C 84.6586 -4.98176 -1.27772 0
M  V30 951 N 82.6406 -6.06052 -0.978465 0
M  V30 952 C 84.0116 -6.14843 -0.798 0
M  V30 953 C 86.0666 -4.84091 -1.16449 0
M  V30 954 C 84.7696 -7.18975 -0.216245 0
M  V30 955 C 86.7956 -5.88382 -0.596698 0
M  V30 956 C 86.1576 -7.04285 -0.127262 0
M  V30 957 H 82.2566 -0.643611 -0.444172 0
M  V30 958 H 84.8406 -1.86842 -0.54754 0
M  V30 959 H 83.0116 -2.47449 -2.99372 0
M  V30 960 H 84.7436 -2.72205 -2.99477 0
M  V30 961 H 81.4986 -4.36936 -1.82712 0
M  V30 962 H 81.9226 -6.73407 -0.696534 0
M  V30 963 H 86.5646 -3.94786 -1.5134 0
M  V30 964 H 84.2826 -8.0797 0.144903 0
M  V30 965 H 87.8686 -5.79545 -0.511716 0
M  V30 966 H 86.7486 -7.83606 0.30523 0
M  V30 967 N 84.2517 0.741722 -1.39055 0
M  V30 968 C 85.1617 1.88621 -1.39496 0
M  V30 969 C 86.1777 1.71557 -0.290578 0
M  V30 970 O 87.3537 1.94275 -0.530954 0
M  V30 971 C 84.4187 3.24134 -1.23037 0
M  V30 972 C 83.4797 3.5364 -2.43387 0
M  V30 973 C 82.7127 4.82687 -2.27703 0
M  V30 974 O 82.9357 5.55922 -1.27696 0
M  V30 975 O 81.8697 5.1194 -3.16545 0
M  V30 976 H 85.6957 1.91203 -2.35956 0
M  V30 977 H 83.2807 0.888625 -1.20099 0
M  V30 978 H 85.1627 4.0513 -1.15964 0
M  V30 979 H 83.8377 3.22337 -0.296691 0
M  V30 980 H 82.7447 2.72758 -2.56035 0
M  V30 981 H 84.0777 3.60209 -3.35425 0
M  V30 982 N 85.7298 1.2412 0.971189 0
M  V30 983 C 86.9778 1.07668 1.71032 0
M  V30 984 C 87.2988 -0.385797 1.91146 0
M  V30 985 O 86.5688 -1.27569 1.4867 0
M  V30 986 H 85.1488 0.395429 0.633755 0
M  V30 987 H 87.8108 1.55984 1.16855 0
M  V30 988 H 86.9068 1.57195 2.69622 0
M  V30 989 N 87.2079 -1.17134 1.05439 0
M  V30 990 C 88.4539 -1.87733 0.767077 0
M  V30 991 C 88.7869 -1.8098 -0.704253 0
M  V30 992 O 88.0619 -1.21951 -1.5152 0
M  V30 993 C 88.3449 -3.37659 1.25133 0
M  V30 994 C 88.1979 -3.53149 2.78578 0
M  V30 995 C 89.5169 -4.31768 0.852324 0
M  V30 996 H 86.6359 -0.681687 0.280129 0
M  V30 997 H 89.2779 -1.37732 1.30881 0
M  V30 998 H 87.4279 -3.80373 0.790469 0
M  V30 999 H 89.0999 -3.19434 3.32806 0
M  V30 1000 H 87.3429 -2.95345 3.17732 0
M  V30 1001 H 88.0139 -4.58403 3.07523 0
M  V30 1002 H 90.4899 -3.96909 1.24911 0
M  V30 1003 H 89.3659 -5.35199 1.21873 0
M  V30 1004 H 89.6269 -4.41429 -0.243485 0
M  V30 1005 N 88.686 -0.835752 -1.33615 0
M  V30 1006 C 89.634 -0.255238 -2.31195 0
M  V30 1007 C 90.628 0.61107 -1.57995 0
M  V30 1008 O 91.834 0.500979 -1.72888 0
M  V30 1009 H 88.209 -0.0638085 -0.749288 0
M  V30 1010 H 90.18 -1.09283 -2.77669 0
M  V30 1011 C 88.929 0.55754 -3.43201 0
M  V30 1012 H 88.252 -0.0997553 -3.99676 0
M  V30 1013 H 89.692 0.929622 -4.13683 0
M  V30 1014 C 88.151 1.73515 -2.88781 0
M  V30 1015 O 88.681 2.83376 -2.84712 0
M  V30 1016 N 86.887 1.55603 -2.4543 0
M  V30 1017 H 86.434 0.662354 -2.48939 0
M  V30 1018 H 86.392 2.34545 -2.09371 0
M  V30 1019 N 90.1641 1.46063 -0.591896 0
M  V30 1020 C 91.0971 2.27452 0.184617 0
M  V30 1021 C 92.0751 1.36188 0.888351 0
M  V30 1022 O 93.2591 1.65606 0.90039 0
M  V30 1023 C 90.3861 3.14162 1.26571 0
M  V30 1024 C 89.4321 4.21255 0.666814 0
M  V30 1025 S 90.2651 5.33034 -0.513345 0
M  V30 1026 C 91.4211 6.23311 0.56872 0
M  V30 1027 H 91.6541 2.92963 -0.505939 0
M  V30 1028 H 89.1871 1.49676 -0.379014 0
M  V30 1029 H 91.1451 3.6468 1.88463 0
M  V30 1030 H 89.8061 2.47946 1.92826 0
M  V30 1031 H 88.9991 4.81788 1.47974 0
M  V30 1032 H 88.6011 3.73797 0.123359 0
M  V30 1033 H 90.8931 6.61758 1.45198 0
M  V30 1034 H 91.8361 7.081 -7.23824e-05 0
M  V30 1035 H 92.2441 5.57646 0.876996 0
M  V30 1036 N 91.6422 0.330177 1.54103 0
M  V30 1037 C 92.5522 -0.541534 2.28264 0
M  V30 1038 C 93.5682 -1.12351 1.32866 0
M  V30 1039 O 94.7442 -1.14206 1.65888 0
M  V30 1040 C 91.8092 -1.68322 3.03098 0
M  V30 1041 C 90.8702 -1.13238 4.14096 0
M  V30 1042 C 90.1032 -2.21966 4.85352 0
M  V30 1043 O 90.3262 -3.42437 4.56172 0
M  V30 1044 O 89.2602 -1.87013 5.7211 0
M  V30 1045 H 93.0862 0.060938 3.03639 0
M  V30 1046 H 90.6712 0.09565 1.49093 0
M  V30 1047 H 92.5532 -2.34777 3.49939 0
M  V30 1048 H 91.2282 -2.27176 2.30593 0
M  V30 1049 H 90.1352 -0.432736 3.71589 0
M  V30 1050 H 91.4682 -0.588898 4.88664 0
M  V30 1051 N 93.1203 -1.57491 0.0584922 0
M  V30 1052 C 94.5363 -1.56792 -0.298091 0
M  V30 1053 C 94.7363 -1.06679 -1.70944 0
M  V30 1054 O 93.7923 -0.726672 -2.41818 0
M  V30 1055 C 95.1053 -3.00461 -0.119879 0
M  V30 1056 C 96.6533 -3.1242 -0.190428 0
M  V30 1057 C 97.1283 -4.57982 -0.0406567 0
M  V30 1058 N 98.6193 -4.63099 -0.0966958 0
M  V30 1059 C 99.3543 -5.734 -0.00502943 0
M  V30 1060 N 98.8503 -6.9266 0.139402 0
M  V30 1061 N 100.643 -5.62067 -0.0611391 0
M  V30 1062 H 92.7943 -1.88386 0.98105 0
M  V30 1063 H 95.0573 -0.867865 0.381463 0
M  V30 1064 H 94.7633 -3.41187 0.85349 0
M  V30 1065 H 94.6373 -3.66843 -0.877833 0
M  V30 1066 H 97.0243 -2.71589 -1.15427 0
M  V30 1067 H 97.1053 -2.48702 0.598405 0
M  V30 1068 H 96.7493 -4.995 0.919897 0
M  V30 1069 H 96.6793 -5.19715 -0.848727 0
M  V30 1070 H 99.1703 -3.77331 -0.207277 0
M  V30 1071 H 99.4833 -7.72536 0.201855 0
M  V30 1072 H 97.8283 -6.94781 0.174586 0
M  V30 1073 H 101.019 -4.67782 -0.172583 0
M  V30 1074 H 101.192 -6.47999 0.0137562 0
M  V30 1075 N 94.5984 0.214957 -1.56127 0
M  V30 1076 C 95.8454 0.938372 -1.79446 0
M  V30 1077 C 96.1734 1.8407 -0.628378 0
M  V30 1078 O 95.4284 1.91837 0.386925 0
M  V30 1079 C 95.7274 1.80314 -3.0858 0
M  V30 1080 C 95.3934 1.05349 -4.3842 0
M  V30 1081 C 94.0554 0.846435 -4.73697 0
M  V30 1082 C 96.4074 0.524588 -5.18553 0
M  V30 1083 C 93.7354 0.098683 -5.86617 0
M  V30 1084 C 96.0874 -0.209853 -6.32252 0
M  V30 1085 C 94.7514 -0.428102 -6.66126 0
M  V30 1086 H 94.0214 0.343375 -0.656639 0
M  V30 1087 H 96.6684 0.206077 -1.90388 0
M  V30 1088 H 94.9734 2.6035 -2.92789 0
M  V30 1089 H 96.6704 2.36513 -3.23825 0
M  V30 1090 H 93.2604 1.22486 -4.10725 0
M  V30 1091 H 97.4444 0.672008 -4.91729 0
M  V30 1092 H 92.7004 -0.0805753 -6.11347 0
M  V30 1093 H 96.8744 -0.627157 -6.9357 0
M  V30 1094 H 94.5014 -1.00944 -7.53468 0
M  V30 1095 N 96.0765 1.50051 0.48192 0
M  V30 1096 C 97.0395 1.67584 1.5636 0
M  V30 1097 C 98.0395 0.546894 1.51214 0
M  V30 1098 O 99.2295 0.813725 1.54026 0
M  V30 1099 C 96.3615 1.691 2.96003 0
M  V30 1100 H 97.5545 2.64078 1.42136 0
M  V30 1101 H 95.1075 1.39369 0.707533 0
M  V30 1102 H 95.8425 0.742589 3.15684 0
M  V30 1103 H 95.6275 2.51105 3.01146 0
M  V30 1104 H 97.1175 1.84656 3.74556 0
M  V30 1105 N 97.5546 -0.734337 1.39446 0
M  V30 1106 C 98.4646 -1.87879 1.40495 0
M  V30 1107 C 99.4806 -1.714 0.299672 0
M  V30 1108 O 100.657 -1.93991 0.541249 0
M  V30 1109 C 97.7216 -3.23477 1.24754 0
M  V30 1110 C 96.7826 -3.52344 2.45259 0
M  V30 1111 C 96.0156 -4.81473 2.30259 0
M  V30 1112 O 96.2386 -5.55237 1.30643 0
M  V30 1113 O 95.1726 -5.10254 3.19256 0
M  V30 1114 H 98.9986 -1.89949 2.36966 0
M  V30 1115 H 96.5836 -0.882243 1.20569 0
M  V30 1116 H 98.4656 -4.04509 1.18111 0
M  V30 1117 H 97.1406 -3.22176 0.313781 0
M  V30 1118 H 96.0476 -2.71396 2.57478 0
M  V30 1119 H 97.3806 -3.58426 3.37331 0
M  V30 1120 N 99.0327 -1.24633 -0.964593 0
M  V30 1121 C 99.9427 -1.05859 -2.09359 0
M  V30 1122 C 100.959 0.00148855 -1.74 0
M  V30 1123 O 102.135 -0.197346 -2.00431 0
M  V30 1124 C 99.1997 -0.668879 -3.40187 0
M  V30 1125 C 98.2607 -1.80578 -3.89474 0
M  V30 1126 C 97.4937 -1.43457 -5.14058 0
M  V30 1127 O 97.7167 -0.325775 -5.69469 0
M  V30 1128 O 96.6507 -2.2613 -5.57807 0
M  V30 1129 H 100.477 -2.00516 -2.28094 0
M  V30 1130 H 98.0617 -1.03481 -1.0776 0
M  V30 1131 H 99.9437 -0.463211 -4.18846 0
M  V30 1132 H 98.6187 0.248536 -3.22744 0
M  V30 1133 H 97.5257 -2.06623 -3.11862 0
M  V30 1134 H 98.8587 -2.70208 -4.11398 0
M  V30 1135 N 100.511 1.16574 -1.06058 0
M  V30 1136 C 101.474 2.19085 -0.673392 0
M  V30 1137 C 102.474 1.5835 0.279648 0
M  V30 1138 O 103.664 1.74088 0.0623488 0
M  V30 1139 C 100.796 3.40899 0.00954234 0
M  V30 1140 H 101.989 2.54853 -1.58081 0
M  V30 1141 H 99.5418 1.30808 -0.855516 0
M  V30 1142 H 100.277 3.10684 0.929826 0
M  V30 1143 H 100.062 3.86233 -0.67573 0
M  V30 1144 H 101.552 4.1675 0.266245 0
M  V30 1145 N 101.989 0.842826 1.3317 0
M  V30 1146 C 103.266 0.362216 1.92217 0
M  V30 1147 C 103.646 -1.15289 1.76838 0
M  V30 1148 O 102.994 -1.96914 1.15919 0
M  V30 1149 C 103.204 0.813495 3.39387 0
M  V30 1150 C 104.552 0.823804 4.16532 0
M  V30 1151 O 105.576 0.757358 3.48055 0
M  V30 1152 O 104.435 0.915193 5.38782 0
M  V30 1153 H 101.529 0.103317 0.820521 0
M  V30 1154 H 104.075 0.928942 1.42017 0
M  V30 1155 H 102.847 1.85624 3.4447 0
M  V30 1156 H 102.47 0.223561 3.96971 0
M  V30 1157 N 103.467 -1.45747 0.599634 0
M  V30 1158 C 104.713 -2.02592 0.0918643 0
M  V30 1159 C 105.046 -1.46806 -1.27128 0
M  V30 1160 O 104.321 -0.639658 -1.83681 0
M  V30 1161 C 104.604 -3.60073 0.0443398 0
M  V30 1162 C 104.457 -4.26208 1.43759 0
M  V30 1163 C 105.776 -4.35309 -0.647608 0
M  V30 1164 H 102.895 -0.736175 0.034857 0
M  V30 1165 H 105.537 -1.73694 0.770081 0
M  V30 1166 H 103.687 -3.84823 -0.533224 0
M  V30 1167 H 105.359 -4.12668 2.06162 0
M  V30 1168 H 103.602 -3.84916 2.00056 0
M  V30 1169 H 104.273 -5.35069 1.35665 0
M  V30 1170 H 106.749 -4.15805 -0.156776 0
M  V30 1171 H 105.625 -5.45038 -0.649942 0
M  V30 1172 H 105.886 -4.07598 -1.71219 0
M  V30 1173 N 104.945 -0.338344 -1.53925 0
M  V30 1174 C 106.191 0.260143 -2.01125 0
M  V30 1175 C 106.524 1.50617 -1.22589 0
M  V30 1176 O 105.799 1.91979 -0.312113 0
M  V30 1177 C 106.082 0.579499 -3.55407 0
M  V30 1178 C 105.935 -0.678264 -4.44657 0
M  V30 1179 C 107.254 1.39122 -4.17532 0
M  V30 1180 H 104.373 0.0930772 -0.731099 0
M  V30 1181 H 107.015 -0.457852 -1.84401 0
M  V30 1182 H 105.165 1.19118 -3.69788 0
M  V30 1183 H 106.837 -1.31631 -4.42121 0
M  V30 1184 H 105.08 -1.3042 -4.13731 0
M  V30 1185 H 105.751 -0.410143 -5.50474 0
M  V30 1186 H 108.227 0.874035 -4.06817 0
M  V30 1187 H 107.103 1.58342 -5.25565 0
M  V30 1188 H 107.364 2.39178 -3.71815 0
M  V30 1189 N 106.423 1.57458 -0.0668435 0
M  V30 1190 C 107.672 1.92477 0.602947 0
M  V30 1191 C 107.985 0.948419 1.71068 0
M  V30 1192 O 109.191 1.19124 2.43971 0
M  V30 1193 C 107.647 3.41903 1.12383 0
M  V30 1194 C 107.255 4.47975 0.04737 0
M  V30 1195 C 108.999 3.85931 1.76797 0
M  V30 1196 C 106.906 5.88529 0.582022 0
M  V30 1197 H 105.836 0.718387 0.22899 0
M  V30 1198 H 108.487 1.82978 -0.138276 0
M  V30 1199 H 106.869 3.46459 1.91787 0
M  V30 1200 H 108.043 4.55029 -0.726978 0
M  V30 1201 H 106.358 4.13384 -0.500243 0
M  V30 1202 H 108.955 4.88322 2.17821 0
M  V30 1203 H 109.298 3.23029 2.62599 0
M  V30 1204 H 109.831 3.83958 1.04024 0
M  V30 1205 H 106.57 6.55065 -0.238721 0
M  V30 1206 H 106.09 5.85004 1.324 0
M  V30 1207 H 107.769 6.38258 1.05999 0
M  V30 1208 N 107.901 -0.206675 1.56239 0
M  V30 1209 C 109.147 -0.930218 1.80208 0
M  V30 1210 C 109.48 -1.83387 0.638981 0
M  V30 1211 O 108.755 -1.91119 -0.361066 0
M  V30 1212 C 109.038 -1.75641 3.1436 0
M  V30 1213 C 108.891 -0.878257 4.41142 0
M  V30 1214 C 110.21 -2.73129 3.45092 0
M  V30 1215 H 107.329 -0.336742 0.655571 0
M  V30 1216 H 109.971 -0.198222 1.88963 0
M  V30 1217 H 108.121 -2.38048 3.07027 0
M  V30 1218 H 109.793 -0.269787 4.6051 0
M  V30 1219 H 108.036 -0.184385 4.33408 0
M  V30 1220 H 108.707 -1.49106 5.3148 0
M  V30 1221 H 111.183 -2.20856 3.52649 0
M  V30 1222 H 110.059 -3.28028 4.40101 0
M  V30 1223 H 110.32 -3.51606 2.68003 0
M  V30 1224 N 109.379 -1.50304 -0.473955 0
M  V30 1225 C 110.627 -1.60832 -1.22382 0
M  V30 1226 C 110.948 -0.30939 -1.9253 0
M  V30 1227 O 110.218 0.67296 -1.83978 0
M  V30 1228 H 108.798 -0.592652 -0.454723 0
M  V30 1229 H 111.46 -1.87068 -0.546968 0
M  V30 1230 H 110.556 -2.41803 -1.97327 0
M  V30 1231 N 110.857 0.726932 -1.39834 0
M  V30 1232 C 111.82 1.82269 -1.38962 0
M  V30 1233 C 112.82 1.58248 -0.285334 0
M  V30 1234 O 114.01 1.65499 -0.54366 0
M  V30 1235 C 111.142 3.20186 -1.17019 0
M  V30 1236 H 112.335 1.84443 -2.36476 0
M  V30 1237 H 109.888 0.931416 -1.25516 0
M  V30 1238 H 110.623 3.23669 -0.202204 0
M  V30 1239 H 110.408 3.3902 -1.96998 0
M  V30 1240 H 111.898 4.00235 -1.1917 0
M  V30 1241 N 112.336 1.25143 0.95797 0
M  V30 1242 C 113.584 1.09476 1.69881 0
M  V30 1243 C 113.905 -0.365502 1.91544 0
M  V30 1244 O 113.175 -1.25985 1.50015 0
M  V30 1245 H 111.755 0.402128 0.629525 0
M  V30 1246 H 114.417 1.57214 1.15194 0
M  V30 1247 H 113.513 1.60046 2.6794 0
M  V30 1248 N 113.814 -1.1601 1.06675 0
M  V30 1249 C 115.225 -1.68235 0.809565 0
M  V30 1250 C 115.576 -1.8454 -0.666303 0
M  V30 1251 O 114.701 -1.54374 -1.5165 0
M  V30 1252 C 115.296 -3.05585 1.46299 0
M  V30 1253 C 113.855 -3.54915 1.25349 0
M  V30 1254 C 113.002 -2.30804 1.53703 0
M  V30 1255 H 115.953 -1.00318 1.22971 0
M  V30 1256 H 115.974 -3.70174 0.880431 0
M  V30 1257 H 115.486 -2.93686 2.53713 0
M  V30 1258 H 113.587 -3.72067 0.199261 0
M  V30 1259 H 113.7 -4.36774 1.9689 0
M  V30 1260 H 112.064 -2.36007 0.957739 0
M  V30 1261 H 112.847 -2.21499 2.62284 0
M  V30 1262 N 115.292 -0.849877 -1.32721 0
M  V30 1263 C 116.255 -0.296122 -2.27279 0
M  V30 1264 C 117.255 0.541458 -1.5141 0
M  V30 1265 O 118.445 0.353658 -1.70572 0
M  V30 1266 C 115.577 0.581579 -3.35902 0
M  V30 1267 H 116.77 -1.13064 -2.77771 0
M  V30 1268 H 114.323 -0.62383 -1.43311 0
M  V30 1269 H 115.058 1.43809 -2.9067 0
M  V30 1270 H 114.843 -0.0178814 -3.92096 0
M  V30 1271 H 116.333 0.961951 -4.0637 0
M  V30 1272 N 116.77 1.45427 -0.607355 0
M  V30 1273 C 118.018 2.01841 -0.102253 0
M  V30 1274 C 118.339 1.47832 1.27164 0
M  V30 1275 O 117.609 0.672497 1.83995 0
M  V30 1276 H 116.189 0.746188 -0.0348101 0
M  V30 1277 H 118.851 1.78229 -0.7887 0
M  V30 1278 H 117.947 3.12057 -0.0518585 0
M  V30 1279 N 118.248 0.346503 1.53744 0
M  V30 1280 C 119.178 -0.501193 2.28058 0
M  V30 1281 C 120.159 -1.10014 1.29734 0
M  V30 1282 O 121.344 -1.12097 1.58581 0
M  V30 1283 C 118.474 -1.65078 3.05559 0
M  V30 1284 C 117.428 -1.18003 4.11411 0
M  V30 1285 C 116.754 -2.41837 4.76884 0
M  V30 1286 C 118.054 -0.278394 5.21558 0
M  V30 1287 H 119.748 0.11875 2.99164 0
M  V30 1288 H 117.294 0.0585531 1.43881 0
M  V30 1289 H 119.247 -2.25028 3.56287 0
M  V30 1290 H 117.971 -2.29767 2.32109 0
M  V30 1291 H 116.63 -0.603331 3.61601 0
M  V30 1292 H 116.278 -3.0494 4.00026 0
M  V30 1293 H 115.978 -2.1102 5.48402 0
M  V30 1294 H 117.502 -3.02508 5.30397 0
M  V30 1295 H 118.916 -0.784823 5.67903 0
M  V30 1296 H 117.313 -0.0619707 6.00068 0
M  V30 1297 H 118.383 0.684677 4.80042 0
M  V30 1298 N 119.726 -1.57421 0.075193 0
M  V30 1299 C 120.951 -1.98364 -0.605515 0
M  V30 1300 C 121.376 -0.953383 -1.62149 0
M  V30 1301 O 120.734 0.0806053 -1.81121 0
M  V30 1302 C 120.782 -3.38332 -1.24756 0
M  V30 1303 O 119.886 -3.37959 -2.36342 0
M  V30 1304 H 119.227 -0.645553 -0.155428 0
M  V30 1305 H 121.757 -2.04044 0.150714 0
M  V30 1306 H 121.767 -3.75591 -1.5936 0
M  V30 1307 H 120.442 -4.12846 -0.503129 0
M  V30 1308 H 119.019 -3.12474 -2.03506 0
M  V30 1309 N 121.204 0.198386 -1.56346 0
M  V30 1310 C 122.167 1.22952 -1.93431 0
M  V30 1311 C 123.167 1.38611 -0.815092 0
M  V30 1312 O 124.357 1.36479 -1.08255 0
M  V30 1313 C 121.489 2.59946 -2.20546 0
M  V30 1314 H 122.682 0.912626 -2.85677 0
M  V30 1315 H 120.235 0.43977 -1.49986 0
M  V30 1316 H 120.97 2.96696 -1.30927 0
M  V30 1317 H 120.755 2.49953 -3.02102 0
M  V30 1318 H 122.245 3.3431 -2.50253 0
M  V30 1319 N 122.682 1.50554 0.465978 0
M  V30 1320 C 123.645 1.69233 1.54574 0
M  V30 1321 C 124.645 0.562901 1.50626 0
M  V30 1322 O 125.835 0.830016 1.53155 0
M  V30 1323 C 122.967 1.7223 2.94193 0
M  V30 1324 H 124.16 2.65571 1.39327 0
M  V30 1325 H 121.713 1.40111 0.692711 0
M  V30 1326 H 122.448 0.77603 3.14878 0
M  V30 1327 H 122.233 2.54285 2.98466 0
M  V30 1328 H 123.723 1.88618 3.72576 0
M  V30 1329 N 124.16 -0.719506 1.40217 0
M  V30 1330 C 125.406 -1.48152 1.38488 0
M  V30 1331 C 125.739 -1.94195 -0.0141867 0
M  V30 1332 O 125.014 -1.67884 -0.982096 0
M  V30 1333 C 125.297 -2.71035 2.37091 0
M  V30 1334 C 125.15 -2.30912 3.86005 0
M  V30 1335 C 126.469 -3.73182 2.33288 0
M  V30 1336 H 123.588 -0.537395 0.504357 0
M  V30 1337 H 126.23 -0.821472 1.71324 0
M  V30 1338 H 124.38 -3.27352 2.0922 0
M  V30 1339 H 126.052 -1.80107 4.24687 0
M  V30 1340 H 124.295 -1.62958 4.02029 0
M  V30 1341 H 124.966 -3.18978 4.50508 0
M  V30 1342 H 127.442 -3.26485 2.57966 0
M  V30 1343 H 126.318 -4.56806 3.04334 0
M  V30 1344 H 126.579 -4.21202 1.34317 0
M  V30 1345 N 125.638 -1.25649 -0.95132 0
M  V30 1346 C 127.054 -1.02542 -1.223 0
M  V30 1347 C 127.254 0.255715 -1.99871 0
M  V30 1348 O 126.31 0.967558 -2.33226 0
M  V30 1349 C 127.623 -2.25065 -1.99415 0
M  V30 1350 C 129.171 -2.29861 -2.12446 0
M  V30 1351 C 129.646 -3.52048 -2.92961 0
M  V30 1352 N 131.137 -3.52465 -3.00538 0
M  V30 1353 C 131.872 -4.43672 -3.63239 0
M  V30 1354 N 131.368 -5.45157 -4.27523 0
M  V30 1355 N 133.161 -4.31346 -3.60412 0
M  V30 1356 H 125.312 -2.07951 -0.432471 0
M  V30 1357 H 127.575 -0.91339 -0.253816 0
M  V30 1358 H 127.281 -3.18194 -1.49817 0
M  V30 1359 H 127.155 -2.28502 -3.00111 0
M  V30 1360 H 129.542 -1.37252 -2.61239 0
M  V30 1361 H 129.623 -2.3044 -1.11044 0
M  V30 1362 H 129.267 -4.44981 -2.44856 0
M  V30 1363 H 129.197 -3.48715 -3.94596 0
M  V30 1364 H 131.688 -2.79056 -2.54826 0
M  V30 1365 H 132.001 -6.10958 -4.73234 0
M  V30 1366 H 130.346 -5.49025 -4.26141 0
M  V30 1367 H 133.537 -3.51288 -3.09377 0
M  V30 1368 H 133.71 -5.02624 -4.0899 0
M  V30 1369 N 127.117 1.15442 -1.07289 0
M  V30 1370 C 128.047 2.22312 -0.714107 0
M  V30 1371 C 129.028 1.67467 0.298155 0
M  V30 1372 O 130.213 1.93445 0.171048 0
M  V30 1373 C 127.343 3.47124 -0.110448 0
M  V30 1374 C 126.297 4.14926 -1.04979 0
M  V30 1375 C 125.623 5.33807 -0.308924 0
M  V30 1376 C 126.923 4.64762 -2.38314 0
M  V30 1377 H 128.617 2.5258 -1.6076 0
M  V30 1378 H 126.163 1.21404 -0.77441 0
M  V30 1379 H 128.116 4.21124 0.152482 0
M  V30 1380 H 126.84 3.16187 0.81812 0
M  V30 1381 H 125.499 3.42866 -1.29764 0
M  V30 1382 H 125.147 4.99126 0.623084 0
M  V30 1383 H 124.847 5.80113 -0.935036 0
M  V30 1384 H 126.371 6.10576 -0.0537771 0
M  V30 1385 H 127.785 5.30292 -2.1786 0
M  V30 1386 H 126.182 5.21728 -2.96514 0
M  V30 1387 H 127.252 3.80434 -3.00663 0
M  V30 1388 N 128.595 0.856903 1.32268 0
M  V30 1389 C 129.542 0.301172 2.28827 0
M  V30 1390 C 130.512 -0.593104 1.5515 0
M  V30 1391 O 131.697 -0.527537 1.83362 0
M  V30 1392 C 128.837 -0.502523 3.41422 0
M  V30 1393 C 127.95 0.417797 4.29975 0
M  V30 1394 C 127.085 -0.398749 5.29701 0
M  V30 1395 C 126.124 0.518827 6.09897 0
M  V30 1396 N 125.261 -0.260674 7.01616 0
M  V30 1397 H 130.101 1.12983 2.75751 0
M  V30 1398 H 127.638 0.568582 1.35667 0
M  V30 1399 H 129.596 -0.984141 4.05426 0
M  V30 1400 H 128.226 -1.29599 2.95642 0
M  V30 1401 H 127.278 1.01781 3.66531 0
M  V30 1402 H 128.59 1.12191 4.86019 0
M  V30 1403 H 127.744 -0.943435 5.9932 0
M  V30 1404 H 126.483 -1.13622 4.7428 0
M  V30 1405 H 125.488 1.07538 5.39181 0
M  V30 1406 H 126.713 1.25495 6.67404 0
M  V30 1407 H 124.659 -0.981198 6.4862 0
M  V30 1408 H 124.576 0.384364 7.55022 0
M  V30 1409 H 125.844 -0.787014 7.75517 0
M  V30 1410 N 130.073 -1.45103 0.615059 0
M  V30 1411 C 131.005 -2.28786 -0.13762 0
M  V30 1412 C 132.018 -1.40376 -0.824525 0
M  V30 1413 O 133.207 -1.64681 -0.688662 0
M  V30 1414 C 130.307 -3.16322 -1.21628 0
M  V30 1415 C 129.48 -4.33054 -0.615039 0
M  V30 1416 C 128.539 -5.01743 -1.58556 0
M  V30 1417 O 127.565 -5.58293 -1.10895 0
M  V30 1418 N 128.767 -5.01714 -2.91998 0
M  V30 1419 H 131.532 -2.94025 0.580483 0
M  V30 1420 H 129.093 -1.55373 0.45507 0
M  V30 1421 H 131.085 -3.59139 -1.86552 0
M  V30 1422 H 129.655 -2.52943 -1.83681 0
M  V30 1423 H 128.875 -3.93627 0.21245 0
M  V30 1424 H 130.163 -5.08431 -0.193704 0
M  V30 1425 H 129.561 -4.57075 -3.33316 0
M  V30 1426 H 128.118 -5.48371 -3.52325 0
M  V30 1427 N 131.551 -0.354651 -1.53558 0
M  V30 1428 C 132.481 0.489091 -2.2832 0
M  V30 1429 C 133.462 1.09324 -1.30316 0
M  V30 1430 O 134.647 1.11255 -1.59173 0
M  V30 1431 C 131.777 1.63456 -3.0643 0
M  V30 1432 C 130.731 1.1582 -4.12031 0
M  V30 1433 C 130.057 2.39305 -4.7816 0
M  V30 1434 C 131.357 0.250731 -5.21698 0
M  V30 1435 H 133.051 -0.134614 -2.99097 0
M  V30 1436 H 130.597 -0.0661826 -1.43848 0
M  V30 1437 H 132.55 2.23136 -3.57475 0
M  V30 1438 H 131.274 2.28533 -2.33325 0
M  V30 1439 H 129.933 0.584146 -3.61916 0
M  V30 1440 H 129.581 3.02814 -4.01637 0
M  V30 1441 H 129.281 2.08109 -5.49513 0
M  V30 1442 H 130.805 2.99691 -5.31994 0
M  V30 1443 H 132.219 0.754695 -5.68311 0
M  V30 1444 H 130.616 0.0301468 -6.00092 0
M  V30 1445 H 131.686 -0.710125 -4.79672 0
M  V30 1446 N 133.029 1.57378 -0.0835403 0
M  V30 1447 C 133.992 2.12252 0.864959 0
M  V30 1448 C 134.992 1.04916 1.21858 0
M  V30 1449 O 136.182 1.30853 1.14991 0
M  V30 1450 C 133.314 2.63358 2.16461 0
M  V30 1451 H 134.507 2.97371 0.388676 0
M  V30 1452 H 132.06 1.55423 0.165317 0
M  V30 1453 H 132.795 1.81727 2.686 0
M  V30 1454 H 132.58 3.41826 1.92087 0
M  V30 1455 H 134.07 3.05847 2.84337 0
M  V30 1456 N 134.507 -0.190092 1.56449 0
M  V30 1457 C 135.753 -0.911052 1.81184 0
M  V30 1458 C 136.086 -1.82699 0.658396 0
M  V30 1459 O 135.361 -1.91491 -0.340775 0
M  V30 1460 C 135.644 -1.72297 3.16205 0
M  V30 1461 C 135.497 -0.831419 4.42049 0
M  V30 1462 C 136.816 -2.69454 3.47969 0
M  V30 1463 H 133.935 -0.32977 0.659106 0
M  V30 1464 H 136.577 -0.178169 1.89163 0
M  V30 1465 H 134.727 -2.34778 3.09534 0
M  V30 1466 H 136.399 -0.220929 4.60771 0
M  V30 1467 H 134.642 -0.138406 4.33579 0
M  V30 1468 H 135.313 -1.43461 5.33032 0
M  V30 1469 H 137.789 -2.17104 3.54972 0
M  V30 1470 H 136.665 -3.23342 4.43555 0
M  V30 1471 H 136.926 -3.48744 2.71717 0
M  V30 1472 N 135.985 -1.50799 -0.457987 0
M  V30 1473 C 136.948 -1.7005 -1.53674 0
M  V30 1474 C 137.948 -0.570881 -1.50325 0
M  V30 1475 O 139.138 -0.838126 -1.52712 0
M  V30 1476 C 136.27 -1.73788 -2.93276 0
M  V30 1477 H 137.463 -2.66306 -1.37917 0
M  V30 1478 H 135.016 -1.40477 -0.685271 0
M  V30 1479 H 135.751 -0.792717 -3.14462 0
M  V30 1480 H 135.536 -2.55864 -2.97113 0
M  V30 1481 H 137.026 -1.90591 -3.71571 0
M  V30 1482 N 137.463 0.71206 -1.40597 0
M  V30 1483 C 138.413 1.81783 -1.37619 0
M  V30 1484 C 139.397 1.58896 -0.253162 0
M  V30 1485 O 140.589 1.70009 -0.492547 0
M  V30 1486 C 137.718 3.19944 -1.24462 0
M  V30 1487 C 136.804 3.48582 -2.4156 0
M  V30 1488 N 137.195 3.48016 -3.67041 0
M  V30 1489 C 135.493 3.79056 -2.35016 0
M  V30 1490 C 136.194 3.75096 -4.44609 0
M  V30 1491 N 135.17 3.94022 -3.74497 0
M  V30 1492 H 138.972 1.79683 -2.32575 0
M  V30 1493 H 136.486 0.91134 -1.34419 0
M  V30 1494 H 138.483 3.99133 -1.20411 0
M  V30 1495 H 137.143 3.23267 -0.304762 0
M  V30 1496 H 138.154 3.28782 -4.00153 0
M  V30 1497 H 134.831 3.89848 -1.49415 0
M  V30 1498 H 136.221 3.80934 -5.53479 0
M  V30 1499 N 138.941 1.26152 0.944643 0
M  V30 1500 C 139.851 1.09176 2.07648 0
M  V30 1501 C 140.867 0.0261935 1.7398 0
M  V30 1502 O 142.043 0.229208 2.00091 0
M  V30 1503 C 139.108 0.722915 3.39079 0
M  V30 1504 C 138.169 1.86752 3.86552 0
M  V30 1505 C 137.402 1.51617 5.11711 0
M  V30 1506 O 137.625 0.416331 5.68879 0
M  V30 1507 O 136.559 2.34975 5.54139 0
M  V30 1508 H 140.385 2.0412 2.24875 0
M  V30 1509 H 137.97 1.05182 1.061 0
M  V30 1510 H 139.852 0.529787 4.18056 0
M  V30 1511 H 138.527 -0.197159 3.23099 0
M  V30 1512 H 137.434 2.11558 3.08535 0
M  V30 1513 H 138.767 2.76719 4.07047 0
M  V30 1514 N 140.419 -1.14872 1.07899 0
M  V30 1515 C 141.366 -2.19791 0.704319 0
M  V30 1516 C 142.336 -1.63238 -0.306987 0
M  V30 1517 O 143.521 -1.8983 -0.192171 0
M  V30 1518 C 140.661 -3.44911 0.114244 0
M  V30 1519 C 139.774 -4.15637 1.1777 0
M  V30 1520 C 138.909 -5.28324 0.552037 0
M  V30 1521 C 137.948 -5.90875 1.59789 0
M  V30 1522 N 137.085 -6.95022 0.994404 0
M  V30 1523 H 141.925 -2.5119 1.60336 0
M  V30 1524 H 139.462 -1.23356 0.801352 0
M  V30 1525 H 141.42 -4.16477 -0.245544 0
M  V30 1526 H 140.05 -3.14011 -0.74813 0
M  V30 1527 H 139.102 -3.42512 1.65499 0
M  V30 1528 H 140.414 -4.5823 1.97046 0
M  V30 1529 H 139.568 -6.06538 0.1402 0
M  V30 1530 H 138.307 -4.86939 -0.272431 0
M  V30 1531 H 137.312 -5.11369 2.01945 0
M  V30 1532 H 138.537 -6.34337 2.42474 0
M  V30 1533 H 136.483 -6.55722 0.190939 0
M  V30 1534 H 136.4 -7.36073 1.72432 0
M  V30 1535 H 137.668 -7.77123 0.608253 0
M  V30 1536 N 141.898 -0.863906 -1.31812 0
M  V30 1537 C 143.175 -0.39275 -1.91616 0
M  V30 1538 C 143.555 1.12461 -1.7865 0
M  V30 1539 O 142.903 1.95045 -1.19037 0
M  V30 1540 C 143.113 -0.867385 -3.38049 0
M  V30 1541 C 144.461 -0.889966 -4.15168 0
M  V30 1542 O 145.485 -0.812635 -3.46806 0
M  V30 1543 O 144.344 -1.00079 -5.37258 0
M  V30 1544 H 141.438 -0.116358 -0.818773 0
M  V30 1545 H 143.984 -0.951418 -1.40521 0
M  V30 1546 H 142.756 -1.91081 -3.41473 0
M  V30 1547 H 142.379 -0.286687 -3.96565 0
M  V30 1548 N 143.376 1.44774 -0.622745 0
M  V30 1549 C 144.625 2.01334 -0.121397 0
M  V30 1550 C 144.938 1.49505 1.26125 0
M  V30 1551 O 146.144 1.98139 1.85616 0
M  V30 1552 C 144.6 3.59516 -0.166298 0
M  V30 1553 C 144.208 4.20342 -1.54974 0
M  V30 1554 C 145.952 4.23582 0.279021 0
M  V30 1555 C 143.859 5.70721 -1.55021 0
M  V30 1556 H 142.789 0.752851 -0.0416172 0
M  V30 1557 H 145.44 1.66083 -0.780309 0
M  V30 1558 H 143.822 3.92027 0.559557 0
M  V30 1559 H 144.996 3.99381 -2.29851 0
M  V30 1560 H 143.311 3.68529 -1.93843 0
M  V30 1561 H 145.908 5.33868 0.298083 0
M  V30 1562 H 146.251 3.95327 1.30471 0
M  V30 1563 H 146.784 3.95843 -0.394063 0
M  V30 1564 H 143.523 6.03698 -2.55399 0
M  V30 1565 H 143.043 5.93829 -0.844245 0
M  V30 1566 H 144.722 6.34203 -1.28047 0
M  V30 1567 N 144.854 0.36279 1.53368 0
M  V30 1568 C 146.27 0.0116182 1.59596 0
M  V30 1569 C 146.47 -1.47012 1.37803 0
M  V30 1570 O 145.526 -2.23136 1.18181 0
M  V30 1571 C 146.839 0.465052 2.97082 0
M  V30 1572 C 148.387 0.419033 3.10182 0
M  V30 1573 C 148.862 0.848235 4.50077 0
M  V30 1574 N 150.353 0.803183 4.56183 0
M  V30 1575 C 151.088 1.107 5.62613 0
M  V30 1576 N 150.584 1.47996 6.76808 0
M  V30 1577 N 152.377 1.02998 5.52583 0
M  V30 1578 H 144.528 1.32775 1.65785 0
M  V30 1579 H 146.791 0.542518 0.777417 0
M  V30 1580 H 146.497 1.49892 3.18159 0
M  V30 1581 H 146.371 -0.149786 3.76902 0
M  V30 1582 H 148.758 -0.605696 2.88817 0
M  V30 1583 H 148.839 1.06933 2.32377 0
M  V30 1584 H 148.483 1.87107 4.7218 0
M  V30 1585 H 148.413 0.175218 5.26308 0
M  V30 1586 H 150.904 0.52838 3.74188 0
M  V30 1587 H 151.217 1.69613 7.53957 0
M  V30 1588 H 149.562 1.51859 6.78206 0
M  V30 1589 H 152.753 0.737817 4.62249 0
M  V30 1590 H 152.926 1.2701 6.35431 0
M  V30 1591 N 146.332 -1.57332 0.0918853 0
M  V30 1592 C 147.578 -1.94524 -0.573425 0
M  V30 1593 C 147.911 -0.973578 -1.68033 0
M  V30 1594 O 147.186 -0.00609226 -1.94499 0
M  V30 1595 C 147.469 -3.41858 -1.13161 0
M  V30 1596 C 147.322 -4.4979 -0.0299747 0
M  V30 1597 C 148.641 -3.90435 -2.03098 0
M  V30 1598 H 145.76 -0.70734 -0.206975 0
M  V30 1599 H 148.402 -1.89309 0.161942 0
M  V30 1600 H 146.552 -3.46433 -1.7583 0
M  V30 1601 H 148.224 -4.57327 0.604112 0
M  V30 1602 H 146.467 -4.291 0.636833 0
M  V30 1603 H 147.138 -5.50069 -0.461287 0
M  V30 1604 H 149.614 -3.87992 -1.50338 0
M  V30 1605 H 148.49 -4.94097 -2.39081 0
M  V30 1606 H 148.751 -3.29541 -2.94712 0
M  V30 1607 N 147.81 0.181792 -1.56548 0
M  V30 1608 C 149.05 0.906711 -1.83189 0
M  V30 1609 C 149.414 1.79882 -0.671312 0
M  V30 1610 O 150.615 2.56054 -0.81792 0
M  V30 1611 C 148.886 1.69023 -3.14906 0
M  V30 1612 S 150.445 2.46535 -3.62996 0
M  V30 1613 H 147.263 0.303877 -0.642791 0
M  V30 1614 H 149.865 0.169107 -1.94767 0
M  V30 1615 H 148.569 1.02571 -3.97376 0
M  V30 1616 H 148.1 2.46941 -3.06241 0
M  V30 1617 H 150.115 3.71014 -3.29489 0
M  V30 1618 N 149.288 1.51039 0.449983 0
M  V30 1619 C 150.218 1.74379 1.55288 0
M  V30 1620 C 151.199 0.593236 1.5942 0
M  V30 1621 O 152.384 0.834625 1.7535 0
M  V30 1622 C 149.514 1.85728 2.93466 0
M  V30 1623 C 148.468 3.01078 3.04197 0
M  V30 1624 C 147.794 2.97595 4.44231 0
M  V30 1625 C 149.094 4.41254 2.7945 0
M  V30 1626 H 150.788 2.66725 1.36008 0
M  V30 1627 H 148.334 1.2835 0.652864 0
M  V30 1628 H 150.287 2.0064 3.70569 0
M  V30 1629 H 149.011 0.900207 3.13949 0
M  V30 1630 H 147.67 2.85851 2.29531 0
M  V30 1631 H 147.318 1.99691 4.61663 0
M  V30 1632 H 147.018 3.75046 4.52343 0
M  V30 1633 H 148.542 3.14583 5.23326 0
M  V30 1634 H 149.956 4.56897 3.46292 0
M  V30 1635 H 148.353 5.20315 2.98985 0
M  V30 1636 H 149.423 4.52164 1.75144 0
M  V30 1637 N 150.766 -0.704594 1.40972 0
M  V30 1638 C 152.012 -1.46675 1.40051 0
M  V30 1639 C 152.345 -1.94199 0.00641102 0
M  V30 1640 O 151.62 -1.68916 -0.964235 0
M  V30 1641 C 151.903 -2.68505 2.39952 0
M  V30 1642 C 151.756 -2.26805 3.88432 0
M  V30 1643 C 153.075 -3.70686 2.37233 0
M  V30 1644 H 150.194 -0.532015 0.510028 0
M  V30 1645 H 152.836 -0.803255 1.72185 0
M  V30 1646 H 150.986 -3.25114 2.1268 0
M  V30 1647 H 152.658 -1.75592 4.26574 0
M  V30 1648 H 150.901 -1.58685 4.03734 0
M  V30 1649 H 151.572 -3.14181 4.53866 0
M  V30 1650 H 154.048 -3.23731 2.61415 0
M  V30 1651 H 152.924 -4.53553 3.09162 0
M  V30 1652 H 153.185 -4.19754 1.38777 0
M  V30 1653 N 152.244 -1.26651 -0.937939 0
M  V30 1654 C 153.154 -1.10276 -2.07066 0
M  V30 1655 C 154.17 -0.0354197 -1.73964 0
M  V30 1656 O 155.346 -0.239816 -1.99967 0
M  V30 1657 C 152.411 -0.740887 -3.38691 0
M  V30 1658 C 151.472 -1.88799 -3.85556 0
M  V30 1659 C 150.705 -1.54329 -5.10899 0
M  V30 1660 O 150.928 -0.446494 -5.6865 0
M  V30 1661 O 149.862 -2.37911 -5.52885 0
M  V30 1662 H 153.688 -2.05309 -2.23789 0
M  V30 1663 H 151.273 -1.05743 -1.0554 0
M  V30 1664 H 153.155 -0.55195 -4.1777 0
M  V30 1665 H 151.83 0.180022 -3.23199 0
M  V30 1666 H 150.737 -2.13191 -3.07409 0
M  V30 1667 H 152.07 -2.78874 -4.05574 0
M  V30 1668 N 153.722 1.14298 -1.08507 0
M  V30 1669 C 154.669 2.19414 -0.715965 0
M  V30 1670 C 155.639 1.63399 0.298326 0
M  V30 1671 O 156.824 1.89929 0.182101 0
M  V30 1672 C 153.964 3.44845 -0.132534 0
M  V30 1673 C 153.077 4.15007 -1.19973 0
M  V30 1674 C 152.212 5.28024 -0.580048 0
M  V30 1675 C 151.251 5.9002 -1.62921 0
M  V30 1676 N 150.388 6.94485 -1.03125 0
M  V30 1677 H 155.228 2.50336 -1.61666 0
M  V30 1678 H 152.765 1.2293 -0.807882 0
M  V30 1679 H 154.723 4.16601 0.223454 0
M  V30 1680 H 153.353 3.14403 0.731467 0
M  V30 1681 H 152.405 3.41629 -1.67313 0
M  V30 1682 H 153.717 4.57178 -1.99473 0
M  V30 1683 H 152.871 6.06455 -0.172364 0
M  V30 1684 H 151.61 4.87076 0.246603 0
M  V30 1685 H 150.615 5.10291 -2.04654 0
M  V30 1686 H 151.84 6.33042 -2.45835 0
M  V30 1687 H 149.786 6.55612 -0.225711 0
M  V30 1688 H 149.703 7.35148 -1.76334 0
M  V30 1689 H 150.971 7.7679 -0.649458 0
M  V30 1690 N 155.201 0.870884 1.31352 0
M  V30 1691 C 156.164 0.332243 2.26779 0
M  V30 1692 C 157.164 -0.517302 1.52252 0
M  V30 1693 O 158.354 -0.326477 1.71113 0
M  V30 1694 C 155.486 -0.528066 3.36785 0
M  V30 1695 H 156.679 1.17469 2.75937 0
M  V30 1696 H 154.232 0.64655 1.423 0
M  V30 1697 H 154.967 -1.39167 2.92922 0
M  V30 1698 H 154.752 0.0802582 3.92018 0
M  V30 1699 H 156.242 -0.897179 4.07849 0
M  V30 1700 N 156.679 -1.44442 0.630414 0
M  V30 1701 C 157.642 -2.29107 -0.0652523 0
M  V30 1702 C 158.642 -1.41002 -0.772995 0
M  V30 1703 O 159.832 -1.62881 -0.617692 0
M  V30 1704 C 156.964 -3.22564 -1.10296 0
M  V30 1705 H 158.157 -2.92103 0.679401 0
M  V30 1706 H 155.71 -1.51343 0.390517 0
M  V30 1707 H 156.445 -2.64416 -1.87762 0
M  V30 1708 H 156.23 -3.87491 -0.59941 0
M  V30 1709 H 157.72 -3.86167 -1.5895 0
M  V30 1710 N 158.157 -0.370918 -1.53173 0
M  V30 1711 C 159.089 0.507823 -2.23503 0
M  V30 1712 C 160.102 1.04182 -1.251 0
M  V30 1713 O 161.291 0.947286 -1.5129 0
M  V30 1714 C 158.391 1.71447 -2.92334 0
M  V30 1715 C 157.564 1.31105 -4.17289 0
M  V30 1716 C 156.623 2.38035 -4.69282 0
M  V30 1717 O 155.649 2.00204 -5.32829 0
M  V30 1718 N 156.851 3.69697 -4.47554 0
M  V30 1719 H 159.616 -0.0946382 -2.99551 0
M  V30 1720 H 157.177 -0.196358 -1.60705 0
M  V30 1721 H 159.169 2.42469 -3.24023 0
M  V30 1722 H 157.739 2.22368 -2.19707 0
M  V30 1723 H 156.959 0.430462 -3.91843 0
M  V30 1724 H 158.247 1.0179 -4.98514 0
M  V30 1725 H 157.645 4.03205 -3.9679 0
M  V30 1726 H 156.202 4.36807 -4.8378 0
M  V30 1727 N 159.635 1.57281 -0.100228 0
M  V30 1728 C 160.884 1.93713 0.561984 0
M  V30 1729 C 161.197 0.984492 1.69018 0
M  V30 1730 O 162.403 1.24273 2.41389 0
M  V30 1731 C 160.859 3.4421 1.05106 0
M  V30 1732 C 160.467 4.47975 -0.0476628 0
M  V30 1733 C 162.211 3.89595 1.68571 0
M  V30 1734 C 160.118 5.89631 0.457055 0
M  V30 1735 H 159.048 0.723082 0.2137 0
M  V30 1736 H 161.699 1.82644 -0.177057 0
M  V30 1737 H 160.081 3.50449 1.84395 0
M  V30 1738 H 161.255 4.53385 -0.823333 0
M  V30 1739 H 159.57 4.1223 -0.587816 0
M  V30 1740 H 162.167 4.92832 2.07414 0
M  V30 1741 H 162.51 3.28526 2.55688 0
M  V30 1742 H 163.043 3.86078 0.958562 0
M  V30 1743 H 159.782 6.54411 -0.377616 0
M  V30 1744 H 159.302 5.87681 1.19962 0
M  V30 1745 H 160.981 6.40363 0.92437 0
M  V30 1746 N 161.113 -0.173488 1.56642 0
M  V30 1747 C 162.361 -0.888706 1.81512 0
M  V30 1748 C 162.682 -1.82875 0.676872 0
M  V30 1749 O 161.952 -1.93536 -0.303414 0
M  V30 1750 H 160.532 -0.331164 0.669582 0
M  V30 1751 H 163.194 -0.173823 1.94123 0
M  V30 1752 H 162.29 -1.46691 2.75478 0
M  V30 1753 N 162.591 -1.51276 -0.441967 0
M  V30 1754 C 163.554 -1.7167 -1.51862 0
M  V30 1755 C 164.554 -0.586793 -1.49711 0
M  V30 1756 O 165.744 -0.854276 -1.51815 0
M  V30 1757 C 162.876 -1.76889 -2.91416 0
M  V30 1758 H 164.069 -2.67754 -1.35084 0
M  V30 1759 H 161.622 -1.41196 -0.670333 0
M  V30 1760 H 162.357 -0.826026 -3.13604 0
M  V30 1761 H 162.142 -2.59001 -2.94382 0
M  V30 1762 H 163.632 -1.94522 -3.69528 0
M  V30 1763 N 164.069 0.697108 -1.41344 0
M  V30 1764 C 165.019 1.80313 -1.39539 0
M  V30 1765 C 166.003 1.58618 -0.270001 0
M  V30 1766 O 167.195 1.69477 -0.510551 0
M  V30 1767 C 164.324 3.18606 -1.27848 0
M  V30 1768 C 163.41 3.46001 -2.45244 0
M  V30 1769 N 163.801 3.44103 -3.70711 0
M  V30 1770 C 162.099 3.76542 -2.39023 0
M  V30 1771 C 162.8 3.7036 -4.48563 0
M  V30 1772 N 161.776 3.90027 -3.78655 0
M  V30 1773 H 165.578 1.77207 -2.34468 0
M  V30 1774 H 163.092 0.897031 -1.35378 0
M  V30 1775 H 165.089 3.97833 -1.24637 0
M  V30 1776 H 163.749 3.22925 -0.339032 0
M  V30 1777 H 164.76 3.2452 -4.03618 0
M  V30 1778 H 161.437 3.88241 -1.53542 0
M  V30 1779 H 162.827 3.75042 -5.57488 0
M  V30 1780 N 165.547 1.27147 0.931209 0
M  V30 1781 C 166.775 1.16082 1.71267 0
M  V30 1782 C 167.19 -0.282772 1.8667 0
M  V30 1783 O 166.547 -1.19283 1.38122 0
M  V30 1784 C 166.598 1.8358 3.11417 0
M  V30 1785 O 166.319 3.22299 2.96741 0
M  V30 1786 C 167.82 1.78597 4.05732 0
M  V30 1787 H 165.04 0.403758 0.535929 0
M  V30 1788 H 167.584 1.67953 1.16671 0
M  V30 1789 H 165.739 1.35623 3.62885 0
M  V30 1790 H 166.153 3.55851 3.85319 0
M  V30 1791 H 167.627 2.30444 5.01597 0
M  V30 1792 H 168.104 0.754564 4.3267 0
M  V30 1793 H 168.71 2.26152 3.60188 0
M  V30 1794 N 167.025 -1.13721 1.09112 0
M  V30 1795 C 167.955 -2.21148 0.749385 0
M  V30 1796 C 168.936 -1.6792 -0.271475 0
M  V30 1797 O 170.121 -1.93693 -0.140251 0
M  V30 1798 C 167.251 -3.46905 0.165659 0
M  V30 1799 C 166.205 -4.13203 1.11567 0
M  V30 1800 C 165.531 -5.33248 0.393809 0
M  V30 1801 C 166.831 -4.60912 2.45678 0
M  V30 1802 H 168.525 -2.4999 1.64758 0
M  V30 1803 H 166.071 -1.20156 0.793626 0
M  V30 1804 H 168.024 -4.21313 -0.085466 0
M  V30 1805 H 166.748 -3.17449 -0.767714 0
M  V30 1806 H 165.407 -3.40758 1.35202 0
M  V30 1807 H 165.055 -5.00054 -0.543599 0
M  V30 1808 H 164.755 -5.78552 1.02721 0
M  V30 1809 H 166.279 -6.10413 0.150908 0
M  V30 1810 H 167.693 -5.26759 2.26269 0
M  V30 1811 H 166.09 -5.16944 3.04776 0
M  V30 1812 H 167.16 -3.75603 3.06677 0
M  V30 1813 N 168.503 -0.877838 -1.30888 0
M  V30 1814 C 169.728 -0.506629 -2.01117 0
M  V30 1815 C 170.153 0.895564 -1.65412 0
M  V30 1816 O 169.511 1.5923 -0.866922 0
M  V30 1817 C 169.559 -0.680223 -3.54126 0
M  V30 1818 O 168.663 0.277033 -4.11468 0
M  V30 1819 H 168.004 -0.200518 -0.633 0
M  V30 1820 H 170.534 -1.18342 -1.66902 0
M  V30 1821 H 170.544 -0.5765 -4.03907 0
M  V30 1822 H 169.219 -1.70261 -3.79452 0
M  V30 1823 H 167.796 0.127606 -3.72682 0
M  V30 1824 N 169.982 1.44106 -0.638065 0
M  V30 1825 C 171.23 2.01579 -0.145043 0
M  V30 1826 C 171.551 1.50496 1.24 0
M  V30 1827 O 170.821 0.711374 1.82527 0
M  V30 1828 H 169.401 0.745282 -0.05063 0
M  V30 1829 H 172.063 1.76516 -0.826327 0
M  V30 1830 H 171.159 3.11877 -0.118039 0
M  V30 1831 N 171.46 0.379036 1.52974 0
M  V30 1832 C 172.423 -0.448865 2.24762 0
M  V30 1833 C 173.423 -0.998689 1.26027 0
M  V30 1834 O 174.613 -0.882313 1.50203 0
M  V30 1835 C 171.745 -1.62872 2.99476 0
M  V30 1836 H 172.938 0.179491 2.99362 0
M  V30 1837 H 170.491 0.13096 1.5575 0
M  V30 1838 H 171.226 -2.29479 2.29151 0
M  V30 1839 H 171.011 -1.24128 3.71934 0
M  V30 1840 H 172.501 -2.2151 3.5401 0
M  V30 1841 N 172.938 -1.57226 0.108567 0
M  V30 1842 C 174.178 -1.96717 -0.555155 0
M  V30 1843 C 174.542 -0.990003 -1.64508 0
M  V30 1844 O 175.743 -1.2739 -2.36696 0
M  V30 1845 C 174.014 -3.40575 -1.08367 0
M  V30 1846 S 175.573 -4.02072 -1.75737 0
M  V30 1847 H 172.391 -0.687638 -0.180762 0
M  V30 1848 H 174.993 -1.94563 0.191172 0
M  V30 1849 H 173.697 -4.0945 -0.279092 0
M  V30 1850 H 173.228 -3.46356 -1.86551 0
M  V30 1851 H 175.243 -3.91977 -3.04251 0
M  V30 1852 N 174.416 0.165178 -1.56732 0
M  V30 1853 C 175.346 1.20651 -1.99914 0
M  V30 1854 C 176.327 1.45827 -0.875705 0
M  V30 1855 O 177.512 1.57057 -1.14223 0
M  V30 1856 C 174.642 2.54401 -2.36427 0
M  V30 1857 C 173.596 2.43782 -3.51787 0
M  V30 1858 C 172.922 3.82078 -3.7406 0
M  V30 1859 C 174.222 1.93732 -4.85041 0
M  V30 1860 H 175.916 0.847534 -2.87154 0
M  V30 1861 H 173.462 0.40625 -1.38151 0
M  V30 1862 H 175.415 3.27458 -2.65234 0
M  V30 1863 H 174.139 2.92098 -1.46103 0
M  V30 1864 H 172.798 1.73178 -3.23117 0
M  V30 1865 H 172.446 4.17179 -2.81017 0
M  V30 1866 H 172.146 3.7584 -4.51684 0
M  V30 1867 H 173.67 4.56712 -4.05274 0
M  V30 1868 H 175.084 2.56569 -5.12684 0
M  V30 1869 H 173.481 1.98428 -5.66345 0
M  V30 1870 H 174.551 0.891962 -4.76626 0
M  V30 1871 N 175.894 1.51508 0.433938 0
M  V30 1872 C 177.171 1.54888 1.19453 0
M  V30 1873 C 177.551 0.315154 2.08734 0
M  V30 1874 O 176.899 -0.699558 2.17528 0
M  V30 1875 C 177.109 2.86467 1.99342 0
M  V30 1876 C 178.457 3.38545 2.56267 0
M  V30 1877 O 179.481 2.88041 2.0955 0
M  V30 1878 O 178.34 4.26675 3.41483 0
M  V30 1879 H 175.434 0.622863 0.544032 0
M  V30 1880 H 177.98 1.63823 0.442732 0
M  V30 1881 H 176.752 3.67718 1.33788 0
M  V30 1882 H 176.375 2.8071 2.8158 0
M  V30 1883 N 177.372 -0.689602 1.41712 0
M  V30 1884 C 178.783 -1.26973 1.36875 0
M  V30 1885 C 179.134 -1.96124 0.054748 0
M  V30 1886 O 178.259 -1.99141 -0.84687 0
M  V30 1887 C 178.854 -2.30912 2.47922 0
M  V30 1888 C 177.413 -2.84486 2.46464 0
M  V30 1889 C 176.56 -1.58603 2.27465 0
M  V30 1890 H 179.511 -0.48396 1.51141 0
M  V30 1891 H 179.532 -3.12331 2.17323 0
M  V30 1892 H 179.044 -1.80554 3.43543 0
M  V30 1893 H 177.145 -3.39005 1.54617 0
M  V30 1894 H 177.258 -3.34511 3.42986 0
M  V30 1895 H 175.622 -1.84632 1.75451 0
M  V30 1896 H 176.405 -1.10233 3.25121 0
M  V30 1897 N 178.85 -1.27639 -0.924453 0
M  V30 1898 C 180.098 -1.13941 -1.66918 0
M  V30 1899 C 180.419 0.314589 -1.92446 0
M  V30 1900 O 179.689 1.21964 -1.53303 0
M  V30 1901 H 178.269 -0.418678 -0.618642 0
M  V30 1902 H 180.931 -1.60213 -1.10985 0
M  V30 1903 H 180.027 -1.67094 -2.63602 0
M  V30 1904 N 180.328 1.1314 -1.09713 0
M  V30 1905 C 181.291 2.16831 -0.742751 0
M  V30 1906 C 182.291 1.59159 0.229129 0
M  V30 1907 O 183.481 1.74199 0.00693237 0
M  V30 1908 C 180.613 3.40756 -0.0989168 0
M  V30 1909 H 181.806 2.49695 -1.66109 0
M  V30 1910 H 179.359 1.2802 -0.896699 0
M  V30 1911 H 180.094 3.13485 0.830514 0
M  V30 1912 H 179.879 3.83888 -0.798265 0
M  V30 1913 H 181.369 4.17386 0.133524 0
M  V30 1914 N 181.806 0.884767 1.30421 0
M  V30 1915 C 183.053 0.503105 1.96151 0
M  V30 1916 C 183.381 -0.947676 1.69851 0
M  V30 1917 O 182.636 -1.68467 0.995861 0
M  V30 1918 C 182.935 0.724318 3.49983 0
M  V30 1919 C 182.601 2.15015 3.96332 0
M  V30 1920 C 181.263 2.54005 4.08699 0
M  V30 1921 C 183.615 3.07936 4.20505 0
M  V30 1922 C 180.943 3.85128 4.42599 0
M  V30 1923 C 183.295 4.3859 4.55874 0
M  V30 1924 C 181.959 4.77474 4.66449 0
M  V30 1925 H 181.229 0.184099 0.717766 0
M  V30 1926 H 183.876 1.12058 1.55291 0
M  V30 1927 H 182.181 0.0238086 3.91793 0
M  V30 1928 H 183.878 0.408617 3.98913 0
M  V30 1929 H 180.468 1.8375 3.87213 0
M  V30 1930 H 184.652 2.79033 4.10431 0
M  V30 1931 H 179.908 4.14996 4.48986 0
M  V30 1932 H 184.082 5.10629 4.7353 0
M  V30 1933 H 181.709 5.79115 4.92473 0
M  V30 1934 N 183.284 -1.43765 0.645699 0
M  V30 1935 C 184.231 -2.30745 -0.0504648 0
M  V30 1936 C 185.201 -1.4432 -0.822241 0
M  V30 1937 O 186.386 -1.73202 -0.800358 0
M  V30 1938 C 183.526 -3.29802 -1.0161 0
M  V30 1939 C 182.639 -4.31326 -0.241219 0
M  V30 1940 C 181.774 -5.17469 -1.19998 0
M  V30 1941 C 180.813 -6.10691 -0.415094 0
M  V30 1942 N 179.95 -6.89483 -1.32506 0
M  V30 1943 H 184.79 -2.8973 0.697155 0
M  V30 1944 H 182.327 -1.42738 0.355563 0
M  V30 1945 H 184.285 -3.85734 -1.58949 0
M  V30 1946 H 182.915 -2.72483 -1.73069 0
M  V30 1947 H 181.967 -3.77749 0.448334 0
M  V30 1948 H 183.279 -4.9743 0.369437 0
M  V30 1949 H 182.433 -5.7799 -1.84424 0
M  V30 1950 H 181.172 -4.51473 -1.84455 0
M  V30 1951 H 180.177 -5.49265 0.242565 0
M  V30 1952 H 181.402 -6.78727 0.224966 0
M  V30 1953 H 179.348 -6.26142 -1.95657 0
M  V30 1954 H 179.265 -7.52081 -0.768783 0
M  V30 1955 H 180.533 -7.54516 -1.9577 0
M  V30 1956 N 184.763 -0.387143 -1.52771 0
M  V30 1957 C 185.673 0.456442 -2.30117 0
M  V30 1958 C 186.689 1.07342 -1.36944 0
M  V30 1959 O 187.865 1.07971 -1.70013 0
M  V30 1960 C 184.93 1.56957 -3.09136 0
M  V30 1961 C 183.991 0.977916 -4.18014 0
M  V30 1962 C 183.224 2.038 -4.93256 0
M  V30 1963 O 183.447 3.25271 -4.68567 0
M  V30 1964 O 182.381 1.6565 -5.78657 0
M  V30 1965 H 186.207 -0.17359 -3.03203 0
M  V30 1966 H 183.792 -0.150919 -1.48636 0
M  V30 1967 H 185.674 2.21628 -3.58412 0
M  V30 1968 H 184.349 2.18461 -2.38865 0
M  V30 1969 H 183.256 0.294525 -3.72939 0
M  V30 1970 H 184.589 0.407128 -4.90513 0
M  V30 1971 N 186.241 1.57166 -0.116904 0
M  V30 1972 C 187.171 2.18222 0.830759 0
M  V30 1973 C 188.152 1.12167 1.27877 0
M  V30 1974 O 189.337 1.40394 1.34176 0
M  V30 1975 C 186.467 2.77996 2.08172 0
M  V30 1976 C 185.421 3.89614 1.77157 0
M  V30 1977 C 184.747 4.36187 3.09265 0
M  V30 1978 C 186.047 5.1181 1.04151 0
M  V30 1979 H 187.741 2.97664 0.321992 0
M  V30 1980 H 185.287 1.4318 0.153434 0
M  V30 1981 H 187.24 3.19366 2.74924 0
M  V30 1982 H 185.964 1.9584 2.6137 0
M  V30 1983 H 184.623 3.48816 1.12796 0
M  V30 1984 H 184.271 3.50893 3.60393 0
M  V30 1985 H 183.971 5.11455 2.89288 0
M  V30 1986 H 185.495 4.80207 3.77139 0
M  V30 1987 H 186.909 5.50214 1.61052 0
M  V30 1988 H 185.306 5.92648 0.942762 0
M  V30 1989 H 186.376 4.84892 0.0279022 0
M  V30 1990 N 187.719 -0.156864 1.56817 0
M  V30 1991 C 188.966 -0.871125 1.82805 0
M  V30 1992 C 189.294 -1.81611 0.696262 0
M  V30 1993 O 188.549 -1.93141 -0.315459 0
M  V30 1994 C 188.848 -1.68737 3.1506 0
M  V30 1995 C 188.514 -0.890045 4.42028 0
M  V30 1996 C 187.176 -0.670042 4.76512 0
M  V30 1997 C 189.528 -0.331769 5.20143 0
M  V30 1998 C 186.856 0.119104 5.86579 0
M  V30 1999 C 189.208 0.444365 6.31037 0
M  V30 2000 C 187.872 0.675035 6.64078 0
M  V30 2001 H 187.142 -0.318767 0.668931 0
M  V30 2002 H 189.789 -0.135274 1.91022 0
M  V30 2003 H 188.094 -2.49304 3.0225 0
M  V30 2004 H 189.791 -2.24331 3.3238 0
M  V30 2005 H 186.381 -1.07157 4.14988 0
M  V30 2006 H 190.565 -0.489043 4.93885 0
M  V30 2007 H 185.821 0.307417 6.10627 0
M  V30 2008 H 189.995 0.884139 6.90765 0
M  V30 2009 H 187.622 1.28839 7.49203 0
M  V30 2010 N 189.197 -1.51736 -0.425897 0
M  V30 2011 C 190.608 -1.5732 -1.00536 0
M  V30 2012 C 190.959 -0.403537 -1.92005 0
M  V30 2013 O 190.084 0.478256 -2.11049 0
M  V30 2014 C 190.679 -2.85119 -1.8301 0
M  V30 2015 C 189.238 -2.93236 -2.35987 0
M  V30 2016 C 188.385 -2.52098 -1.15508 0
M  V30 2017 H 191.336 -1.57348 -0.206739 0
M  V30 2018 H 191.357 -2.69526 -2.68581 0
M  V30 2019 H 190.869 -3.7023 -1.16411 0
M  V30 2020 H 188.97 -2.12581 -3.06007 0
M  V30 2021 H 189.083 -3.9713 -2.68001 0
M  V30 2022 H 187.447 -2.05558 -1.50393 0
M  V30 2023 H 188.23 -3.39565 -0.505014 0
M  V30 2024 N 190.675 0.682077 -1.42076 0
M  V30 2025 C 191.952 1.43755 -1.32642 0
M  V30 2026 C 192.332 2.11063 0.0396611 0
M  V30 2027 O 191.68 2.02701 1.05474 0
M  V30 2028 C 191.89 2.44596 -2.48946 0
M  V30 2029 C 193.238 3.09454 -2.9073 0
M  V30 2030 O 194.262 2.54922 -2.48783 0
M  V30 2031 O 193.121 4.08253 -3.63307 0
M  V30 2032 H 190.215 0.640857 -0.522715 0
M  V30 2033 H 192.761 0.711415 -1.54068 0
M  V30 2034 H 191.533 1.93609 -3.40046 0
M  V30 2035 H 191.156 3.24701 -2.29467 0
M  V30 2036 N 192.153 1.28127 0.917671 0
M  V30 2037 C 193.399 1.16232 1.66918 0
M  V30 2038 C 193.754 -0.28701 1.90247 0
M  V30 2039 O 193.047 -1.20586 1.48895 0
M  V30 2040 C 193.241 1.89018 3.03327 0
M  V30 2041 C 193.07 3.4088 2.9331 0
M  V30 2042 C 191.84 4.10214 2.95047 0
M  V30 2043 C 194.038 4.36689 2.71675 0
M  V30 2044 N 192.02 5.48571 2.75577 0
M  V30 2045 C 193.391 5.62382 2.6101 0
M  V30 2046 C 195.446 4.26661 2.56641 0
M  V30 2047 C 194.149 6.79189 2.36843 0
M  V30 2048 C 196.175 5.432 2.33853 0
M  V30 2049 C 195.537 6.67855 2.23939 0
M  V30 2050 H 191.636 0.48024 0.617166 0
M  V30 2051 H 194.22 1.61727 1.08409 0
M  V30 2052 H 192.391 1.45963 3.59929 0
M  V30 2053 H 194.123 1.69541 3.67475 0
M  V30 2054 H 190.878 3.61762 3.05655 0
M  V30 2055 H 191.302 6.21287 2.68945 0
M  V30 2056 H 195.944 3.30998 2.63059 0
M  V30 2057 H 193.662 7.74926 2.29164 0
M  V30 2058 H 197.248 5.37328 2.23091 0
M  V30 2059 H 196.128 7.56511 2.06546 0
M  V30 2060 N 193.631 -1.12557 1.10312 0
M  V30 2061 C 194.578 -2.18247 0.750781 0
M  V30 2062 C 195.548 -1.63853 -0.272293 0
M  V30 2063 O 196.733 -1.90195 -0.151862 0
M  V30 2064 C 193.873 -3.44591 0.187379 0
M  V30 2065 C 192.986 -4.13046 1.2656 0
M  V30 2066 C 192.121 -5.27034 0.663978 0
M  V30 2067 C 191.16 -5.87353 1.72287 0
M  V30 2068 N 190.297 -6.92757 1.1416 0
M  V30 2069 H 195.137 -2.47732 1.65628 0
M  V30 2070 H 192.674 -1.21629 0.827337 0
M  V30 2071 H 194.632 -4.16904 -0.157148 0
M  V30 2072 H 193.262 -3.15527 -0.681355 0
M  V30 2073 H 192.314 -3.38924 1.72727 0
M  V30 2074 H 193.626 -4.53947 2.06721 0
M  V30 2075 H 192.78 -6.06104 0.268824 0
M  V30 2076 H 191.519 -4.87407 -0.169082 0
M  V30 2077 H 190.524 -5.06971 2.12746 0
M  V30 2078 H 191.749 -6.29051 2.55875 0
M  V30 2079 H 189.695 -6.5517 0.329984 0
M  V30 2080 H 189.612 -7.3225 1.88007 0
M  V30 2081 H 190.88 -7.75658 0.772956 0
M  V30 2082 N 195.109 -0.891671 -1.2995 0
M  V30 2083 C 196.019 -0.367691 -2.31701 0
M  V30 2084 C 197.035 0.533486 -1.6562 0
M  V30 2085 O 198.211 0.424997 -1.96865 0
M  V30 2086 C 195.276 0.403406 -3.44345 0
M  V30 2087 C 194.337 -0.528328 -4.26037 0
M  V30 2088 C 193.57 0.206063 -5.33302 0
M  V30 2089 O 193.793 1.43119 -5.52153 0
M  V30 2090 O 192.727 -0.447281 -6.00236 0
M  V30 2091 H 196.553 -1.21163 -2.78484 0
M  V30 2092 H 194.138 -0.655725 -1.34241 0
M  V30 2093 H 196.02 0.839753 -4.12948 0
M  V30 2094 H 194.695 1.22354 -2.99685 0
M  V30 2095 H 193.602 -1.01362 -3.60106 0
M  V30 2096 H 194.935 -1.31465 -4.74318 0
M  V30 2097 N 196.587 1.43421 -0.653314 0
M  V30 2098 C 197.534 2.30768 0.0382271 0
M  V30 2099 C 198.504 1.44755 0.814576 0
M  V30 2100 O 199.689 1.73624 0.791162 0
M  V30 2101 C 196.829 3.30336 0.998599 0
M  V30 2102 C 195.942 4.31448 0.218342 0
M  V30 2103 C 195.077 5.18098 1.17252 0
M  V30 2104 C 194.116 6.10902 0.382702 0
M  V30 2105 N 193.253 6.90176 1.28848 0
M  V30 2106 H 198.093 2.89357 -0.712511 0
M  V30 2107 H 195.63 1.42548 -0.363128 0
M  V30 2108 H 197.588 3.86572 1.56901 0
M  V30 2109 H 196.218 2.73397 1.71621 0
M  V30 2110 H 195.27 3.77506 -0.46836 0
M  V30 2111 H 196.582 4.97227 -0.395812 0
M  V30 2112 H 195.736 5.7896 1.81356 0
M  V30 2113 H 194.475 4.52444 1.82058 0
M  V30 2114 H 193.48 5.49128 -0.27169 0
M  V30 2115 H 194.705 6.78598 -0.260957 0
M  V30 2116 H 192.651 6.27171 1.92334 0
M  V30 2117 H 192.568 7.52478 0.728887 0
M  V30 2118 H 193.836 7.55543 1.91766 0
M  V30 2119 N 198.065 0.39524 1.52563 0
M  V30 2120 C 199.313 -0.184678 2.01254 0
M  V30 2121 C 199.634 -1.46822 1.28329 0
M  V30 2122 O 198.904 -1.91666 0.405094 0
M  V30 2123 H 197.484 -0.0712355 0.743596 0
M  V30 2124 H 200.146 0.528293 1.87603 0
M  V30 2125 H 199.242 -0.390681 3.09645 0
M  V30 2126 N 199.544 -1.57102 0.125237 0
M  V30 2127 C 200.507 -2.14471 -0.80838 0
M  V30 2128 C 201.507 -1.0811 -1.19033 0
M  V30 2129 O 202.697 -1.33856 -1.11482 0
M  V30 2130 C 199.829 -2.69005 -2.09402 0
M  V30 2131 H 201.022 -2.98297 -0.309696 0
M  V30 2132 H 198.575 -1.55807 -0.124051 0
M  V30 2133 H 199.31 -1.88785 -2.63687 0
M  V30 2134 H 199.095 -3.46799 -1.82957 0
M  V30 2135 H 200.585 -3.13278 -2.76128 0
M  V30 2136 N 201.022 0.148545 -1.56898 0
M  V30 2137 C 202.433 0.708766 -1.72723 0
M  V30 2138 C 202.784 1.81734 -0.739395 0
M  V30 2139 O 201.909 2.16194 0.0943169 0
M  V30 2140 C 202.504 1.29245 -3.13179 0
M  V30 2141 C 201.063 1.79925 -3.30611 0
M  V30 2142 C 200.21 0.687111 -2.68652 0
M  V30 2143 H 203.161 -0.0771063 -1.58513 0
M  V30 2144 H 203.182 2.16224 -3.13093 0
M  V30 2145 H 202.694 0.485382 -3.85053 0
M  V30 2146 H 200.795 2.63203 -2.63732 0
M  V30 2147 H 200.908 1.92903 -4.38549 0
M  V30 2148 H 199.272 1.11335 -2.29078 0
M  V30 2149 H 200.055 -0.108483 -3.43129 0
M  V30 2150 N 202.5 1.5196 0.417844 0
M  V30 2151 C 203.43 1.77634 1.51554 0
M  V30 2152 C 204.411 0.626918 1.58126 0
M  V30 2153 O 205.596 0.871632 1.7354 0
M  V30 2154 C 202.726 1.91911 2.8946 0
M  V30 2155 C 201.68 3.07463 2.97743 0
M  V30 2156 C 201.006 3.06951 4.37819 0
M  V30 2157 C 202.306 4.47082 2.70027 0
M  V30 2158 H 204 2.6955 1.3032 0
M  V30 2159 H 201.546 1.29706 0.625492 0
M  V30 2160 H 203.499 2.08455 3.6623 0
M  V30 2161 H 202.223 0.966598 3.11969 0
M  V30 2162 H 200.882 2.90656 2.23416 0
M  V30 2163 H 200.53 2.09438 4.57323 0
M  V30 2164 H 200.23 3.84556 4.44286 0
M  V30 2165 H 201.754 3.25613 5.16535 0
M  V30 2166 H 203.168 4.6414 3.36522 0
M  V30 2167 H 201.565 5.2654 2.87881 0
M  V30 2168 H 202.635 4.55777 1.65514 0
M  V30 2169 N 203.978 -0.674533 1.42435 0
M  V30 2170 C 204.926 -1.80934 1.46169 0
M  V30 2171 C 205.92 -1.66006 0.3374 0
M  V30 2172 O 207.126 -1.72611 0.510425 0
M  V30 2173 H 203.501 -0.596594 0.457798 0
M  V30 2174 H 205.472 -1.74903 2.41767 0
M  V30 2175 C 204.221 -3.19088 1.38123 0
M  V30 2176 H 203.544 -3.31203 2.23931 0
M  V30 2177 H 204.984 -3.9851 1.44797 0
M  V30 2178 C 203.443 -3.36763 0.0960517 0
M  V30 2179 O 203.973 -3.92581 -0.851073 0
M  V30 2180 N 202.179 -2.90597 0.0131186 0
M  V30 2181 H 201.726 -2.45359 0.784639 0
M  V30 2182 H 201.684 -3.028 -0.846133 0
M  V30 2183 N 205.456 -1.28612 -0.910864 0
M  V30 2184 C 206.684 -1.18792 -1.69399 0
M  V30 2185 C 207.099 0.253039 -1.87097 0
M  V30 2186 O 206.456 1.17071 -1.40003 0
M  V30 2187 C 206.507 -1.88511 -3.08457 0
M  V30 2188 O 206.228 -3.26979 -2.91576 0
M  V30 2189 C 207.729 -1.85029 -4.02839 0
M  V30 2190 H 204.949 -0.412233 -0.529438 0
M  V30 2191 H 207.493 -1.69788 -1.13984 0
M  V30 2192 H 205.648 -1.41379 -3.60681 0
M  V30 2193 H 206.062 -3.61936 -3.79608 0
M  V30 2194 H 207.536 -2.38395 -4.97867 0
M  V30 2195 H 208.013 -0.823303 -4.31414 0
M  V30 2196 H 208.619 -2.31853 -3.56545 0
M  V30 2197 N 206.934 1.1197 -1.10907 0
M  V30 2198 C 208.345 1.65114 -0.871446 0
M  V30 2199 C 208.696 1.86885 0.597353 0
M  V30 2200 O 207.821 1.59896 1.45816 0
M  V30 2201 C 208.416 2.99944 -1.5754 0
M  V30 2202 C 206.975 3.50018 -1.38435 0
M  V30 2203 C 206.122 2.24941 -1.62164 0
M  V30 2204 H 209.073 0.956851 -1.2661 0
M  V30 2205 H 209.094 3.66651 -1.01721 0
M  V30 2206 H 208.606 2.84067 -2.64438 0
M  V30 2207 H 206.707 3.71071 -0.337214 0
M  V30 2208 H 206.82 4.29165 -2.12965 0
M  V30 2209 H 205.184 2.3229 -1.04467 0
M  V30 2210 H 205.967 2.11612 -2.70324 0
M  V30 2211 N 208.412 0.89855 1.29475 0
M  V30 2212 C 209.658 0.524658 1.95896 0
M  V30 2213 C 209.991 -0.926468 1.70676 0
M  V30 2214 O 209.266 -1.65665 1.01908 0
M  V30 2215 C 209.549 0.81633 3.50725 0
M  V30 2216 C 209.402 2.31907 3.85408 0
M  V30 2217 C 210.721 0.302038 4.39062 0
M  V30 2218 H 207.84 0.19209 0.711527 0
M  V30 2219 H 210.482 1.12502 1.53112 0
M  V30 2220 H 208.632 0.305369 3.87298 0
M  V30 2221 H 210.304 2.89949 3.58786 0
M  V30 2222 H 208.547 2.78027 3.32992 0
M  V30 2223 H 209.218 2.47373 4.93468 0
M  V30 2224 H 211.694 0.739551 4.09475 0
M  V30 2225 H 210.57 0.535331 5.46283 0
M  V30 2226 H 210.831 -0.797216 4.34853 0
M  V30 2227 N 209.89 -1.43072 0.660911 0
M  V30 2228 C 211.118 -2.06067 0.185422 0
M  V30 2229 C 211.533 -1.49582 -1.15198 0
M  V30 2230 O 210.89 -0.630134 -1.71276 0
M  V30 2231 C 210.941 -3.61371 0.0966523 0
M  V30 2232 O 210.662 -4.15758 1.38119 0
M  V30 2233 C 212.163 -4.41455 -0.403996 0
M  V30 2234 H 209.383 -0.664459 0.0934604 0
M  V30 2235 H 211.927 -1.83447 0.90373 0
M  V30 2236 H 210.082 -3.8315 -0.572259 0
M  V30 2237 H 210.496 -5.09499 1.24542 0
M  V30 2238 H 211.97 -5.50437 -0.415045 0
M  V30 2239 H 212.447 -4.15036 -1.43674 0
M  V30 2240 H 213.053 -4.24663 0.232691 0
M  V30 2241 N 211.368 -0.403325 -1.52352 0
M  V30 2242 C 212.278 0.432009 -2.30588 0
M  V30 2243 C 213.294 1.05884 -1.38075 0
M  V30 2244 O 214.47 1.06161 -1.71148 0
M  V30 2245 C 211.535 1.53669 -3.10784 0
M  V30 2246 C 210.596 0.933525 -4.19027 0
M  V30 2247 C 209.829 1.98557 -4.9539 0
M  V30 2248 O 210.052 3.20283 -4.71991 0
M  V30 2249 O 208.986 1.59504 -5.80381 0
M  V30 2250 H 212.812 -0.205739 -3.03002 0
M  V30 2251 H 210.397 -0.166675 -1.48467 0
M  V30 2252 H 212.279 2.17814 -3.60742 0
M  V30 2253 H 210.954 2.15915 -2.41169 0
M  V30 2254 H 209.861 0.254954 -3.7323 0
M  V30 2255 H 211.194 0.35508 -4.90918 0
M  V30 2256 N 212.846 1.57033 -0.133567 0
M  V30 2257 C 214.123 1.87256 0.56522 0
M  V30 2258 C 214.503 1.03726 1.83859 0
M  V30 2259 O 213.851 0.120247 2.28183 0
M  V30 2260 C 214.061 3.3865 0.843636 0
M  V30 2261 C 215.409 4.07574 1.19032 0
M  V30 2262 O 216.433 3.43752 0.933429 0
M  V30 2263 O 215.292 5.20259 1.67312 0
M  V30 2264 H 212.386 0.775678 0.286796 0
M  V30 2265 H 214.932 1.68855 -0.169168 0
M  V30 2266 H 213.704 3.91257 -0.0581149 0
M  V30 2267 H 213.327 3.62532 1.63268 0
M  V30 2268 N 214.325 -0.140222 1.56975 0
M  V30 2269 C 215.741 -0.493088 1.51792 0
M  V30 2270 C 215.941 -1.83013 0.843116 0
M  V30 2271 O 214.997 -2.49041 0.416493 0
M  V30 2272 C 216.31 -0.497144 2.96562 0
M  V30 2273 C 217.858 -0.582186 3.07538 0
M  V30 2274 C 218.333 -0.616838 4.53827 0
M  V30 2275 N 219.824 -0.678873 4.58198 0
M  V30 2276 C 220.559 -0.726782 5.68775 0
M  V30 2277 N 220.055 -0.733623 6.88905 0
M  V30 2278 N 221.848 -0.768179 5.56826 0
M  V30 2279 H 213.999 0.736108 1.99237 0
M  V30 2280 H 216.262 0.269182 0.90898 0
M  V30 2281 H 215.968 0.417217 3.49217 0
M  V30 2282 H 215.842 -1.33263 3.52875 0
M  V30 2283 H 218.229 -1.48697 2.54899 0
M  V30 2284 H 218.31 0.280581 2.54257 0
M  V30 2285 H 217.954 0.283812 5.07106 0
M  V30 2286 H 217.884 -1.49619 5.04898 0
M  V30 2287 H 220.375 -0.68061 3.7172 0
M  V30 2288 H 220.688 -0.772215 7.68932 0
M  V30 2289 H 219.033 -0.701389 6.91452 0
M  V30 2290 H 222.224 -0.760051 4.61888 0
M  V30 2291 H 222.397 -0.80205 6.43017 0
M  V30 2292 N 215.803 -1.52179 -0.40978 0
M  V30 2293 C 217.05 -1.66206 -1.15679 0
M  V30 2294 C 217.378 -0.391674 -1.90516 0
M  V30 2295 O 216.633 0.62533 -1.8544 0
M  V30 2296 C 216.932 -2.83428 -2.17723 0
M  V30 2297 C 216.598 -4.21672 -1.59699 0
M  V30 2298 C 215.26 -4.59274 -1.43599 0
M  V30 2299 C 217.612 -5.07825 -1.17317 0
M  V30 2300 C 214.94 -5.80709 -0.836328 0
M  V30 2301 C 217.292 -6.29864 -0.587691 0
M  V30 2302 C 215.956 -6.66216 -0.413818 0
M  V30 2303 H 215.226 -0.608192 -0.423301 0
M  V30 2304 H 217.873 -1.86279 -0.444097 0
M  V30 2305 H 216.178 -2.57687 -2.95135 0
M  V30 2306 H 217.875 -2.91477 -2.75394 0
M  V30 2307 H 214.465 -3.9204 -1.73213 0
M  V30 2308 H 218.649 -4.79359 -1.28565 0
M  V30 2309 H 213.905 -6.07498 -0.689626 0
M  V30 2310 H 218.079 -6.95948 -0.250894 0
M  V30 2311 H 215.706 -7.60182 0.0529471 0
M  V30 2312 N 217.281 0.66697 -1.42791 0
M  V30 2313 C 218.529 1.42417 -1.43394 0
M  V30 2314 C 218.85 1.94925 -0.0542373 0
M  V30 2315 O 218.12 1.73564 0.908415 0
M  V30 2316 H 216.7 0.528515 -0.527902 0
M  V30 2317 H 219.362 0.787562 -1.78279 0
M  V30 2318 H 218.458 2.27333 -2.13837 0
M  V30 2319 N 218.759 1.29093 0.90403 0
M  V30 2320 C 220.008 1.16187 1.64874 0
M  V30 2321 C 220.321 -0.286742 1.93487 0
M  V30 2322 O 221.527 -0.537062 2.66135 0
M  V30 2323 C 219.983 2.03177 2.97064 0
M  V30 2324 C 219.591 3.52836 2.76062 0
M  V30 2325 C 221.335 1.98984 3.74974 0
M  V30 2326 C 219.242 4.31945 4.03952 0
M  V30 2327 H 218.172 0.431246 0.618501 0
M  V30 2328 H 220.823 1.53699 1.00243 0
M  V30 2329 H 219.205 1.5853 3.62883 0
M  V30 2330 H 220.379 4.05507 2.18863 0
M  V30 2331 H 218.694 3.58656 2.11553 0
M  V30 2332 H 221.291 2.55351 4.69787 0
M  V30 2333 H 221.634 0.968815 4.0487 0
M  V30 2334 H 222.167 2.41652 3.15989 0
M  V30 2335 H 218.906 5.34667 3.79225 0
M  V30 2336 H 218.426 3.84045 4.60727 0
M  V30 2337 H 220.105 4.42379 4.72133 0
M  V30 2338 N 220.237 -1.11381 1.11499 0
M  V30 2339 C 221.167 -2.19509 0.796125 0
M  V30 2340 C 222.148 -1.68458 -0.235796 0
M  V30 2341 O 223.333 -1.93947 -0.0991344 0
M  V30 2342 C 220.463 -3.46475 0.239205 0
M  V30 2343 C 219.417 -4.10744 1.20307 0
M  V30 2344 C 218.743 -5.32293 0.50683 0
M  V30 2345 C 220.043 -4.55597 2.55399 0
M  V30 2346 H 221.737 -2.46439 1.70024 0
M  V30 2347 H 219.283 -1.18446 0.818935 0
M  V30 2348 H 221.236 -4.214 0.00392006 0
M  V30 2349 H 219.96 -3.19006 -0.700206 0
M  V30 2350 H 218.619 -3.37813 1.42399 0
M  V30 2351 H 218.267 -5.01095 -0.437408 0
M  V30 2352 H 217.967 -5.76243 1.1497 0
M  V30 2353 H 219.491 -6.09956 0.280351 0
M  V30 2354 H 220.905 -5.21841 2.37391 0
M  V30 2355 H 219.302 -5.10363 3.15673 0
M  V30 2356 H 220.372 -3.69013 3.14575 0
M  V30 2357 N 221.715 -0.905404 -1.28997 0
M  V30 2358 C 222.943 -0.549846 -1.9946 0
M  V30 2359 C 223.358 0.866834 -1.67724 0
M  V30 2360 O 222.715 1.57298 -0.925404 0
M  V30 2361 C 222.766 -0.739387 -3.53858 0
M  V30 2362 O 222.487 -2.10031 -3.84472 0
M  V30 2363 C 223.988 -0.389541 -4.41585 0
M  V30 2364 H 221.208 -0.210429 -0.637151 0
M  V30 2365 H 223.752 -1.21632 -1.64396 0
M  V30 2366 H 221.907 -0.120023 -3.87214 0
M  V30 2367 H 222.321 -2.13385 -4.79132 0
M  V30 2368 H 223.795 -0.572972 -5.49018 0
M  V30 2369 H 224.272 0.673756 -4.34001 0
M  V30 2370 H 224.878 -0.986089 -4.1371 0
M  V30 2371 N 223.193 1.4272 -0.668489 0
M  V30 2372 C 224.103 2.34596 0.0139753 0
M  V30 2373 C 225.119 1.5474 0.795703 0
M  V30 2374 O 226.295 1.87334 0.739466 0
M  V30 2375 C 223.36 3.33202 0.957982 0
M  V30 2376 C 222.421 4.28957 0.17149 0
M  V30 2377 C 221.654 5.22853 1.07053 0
M  V30 2378 O 221.877 5.21531 2.31001 0
M  V30 2379 O 220.811 5.9952 0.534727 0
M  V30 2380 H 224.637 2.9448 -0.742661 0
M  V30 2381 H 222.222 1.43117 -0.428705 0
M  V30 2382 H 224.104 3.93796 1.50008 0
M  V30 2383 H 222.779 2.758 1.69458 0
M  V30 2384 H 221.686 3.71796 -0.414558 0
M  V30 2385 H 223.019 4.89383 -0.52586 0
M  V30 2386 N 224.671 0.411399 1.52136 0
M  V30 2387 C 225.618 -0.412975 2.27075 0
M  V30 2388 C 226.588 -1.03912 1.29582 0
M  V30 2389 O 227.773 -1.06296 1.58448 0
M  V30 2390 C 224.913 -1.52247 3.09701 0
M  V30 2391 C 224.026 -0.917021 4.22155 0
M  V30 2392 C 223.161 -1.9994 4.92135 0
M  V30 2393 C 222.2 -1.37101 5.96548 0
M  V30 2394 N 221.337 -2.39364 6.60038 0
M  V30 2395 H 226.177 0.232499 2.97092 0
M  V30 2396 H 223.714 0.126496 1.46555 0
M  V30 2397 H 225.672 -2.17674 3.55913 0
M  V30 2398 H 224.302 -2.13794 2.41851 0
M  V30 2399 H 223.354 -0.151742 3.80097 0
M  V30 2400 H 224.666 -0.418006 4.97045 0
M  V30 2401 H 223.82 -2.73088 5.41763 0
M  V30 2402 H 222.559 -2.53208 4.16818 0
M  V30 2403 H 221.564 -0.624873 5.46237 0
M  V30 2404 H 222.789 -0.845998 6.7381 0
M  V30 2405 H 220.735 -2.91759 5.87548 0
M  V30 2406 H 220.652 -1.9428 7.3061 0
M  V30 2407 H 221.92 -3.12074 7.14304 0
M  V30 2408 N 226.149 -1.5696 0.141893 0
M  V30 2409 C 227.379 -2.00031 -0.516828 0
M  V30 2410 C 227.787 -1.02091 -1.59293 0
M  V30 2411 O 227.13 -0.00909657 -1.83698 0
M  V30 2412 C 227.192 -3.39534 -1.1814 0
M  V30 2413 C 226.856 -4.56313 -0.250513 0
M  V30 2414 C 227.853 -5.17295 0.519839 0
M  V30 2415 C 225.538 -5.02061 -0.154907 0
M  V30 2416 C 227.532 -6.2243 1.3733 0
M  V30 2417 C 225.219 -6.07053 0.702161 0
M  V30 2418 C 226.217 -6.67106 1.46487 0
M  V30 2419 O 225.905 -7.70066 2.30767 0
M  V30 2420 H 225.637 -0.661451 -0.139493 0
M  V30 2421 H 228.191 -2.04086 0.231926 0
M  V30 2422 H 226.421 -3.32302 -1.97769 0
M  V30 2423 H 228.11 -3.66745 -1.73933 0
M  V30 2424 H 228.876 -4.82852 0.45598 0
M  V30 2425 H 224.755 -4.5505 -0.7383 0
M  V30 2426 H 228.299 -6.69233 1.96909 0
M  V30 2427 H 224.196 -6.40923 0.76733 0
M  V30 2428 H 224.964 -7.87264 2.23959 0
M  V30 2429 N 227.627 0.131896 -1.57047 0
M  V30 2430 C 229.043 0.485031 -1.52051 0
M  V30 2431 C 229.243 1.82563 -0.85281 0
M  V30 2432 O 228.299 2.48817 -0.429694 0
M  V30 2433 C 229.612 0.481409 -2.96821 0
M  V30 2434 C 231.16 0.565868 -3.07842 0
M  V30 2435 C 231.635 0.592762 -4.54148 0
M  V30 2436 N 233.126 0.654564 -4.58552 0
M  V30 2437 C 233.861 0.696608 -5.69153 0
M  V30 2438 N 233.357 0.697078 -6.89284 0
M  V30 2439 N 235.15 0.738639 -5.57226 0
M  V30 2440 H 227.301 -0.746664 -1.98843 0
M  V30 2441 H 229.564 -0.273999 -0.90754 0
M  V30 2442 H 229.27 -0.435731 -3.4899 0
M  V30 2443 H 229.144 1.3139 -3.53577 0
M  V30 2444 H 231.531 1.47343 -2.55684 0
M  V30 2445 H 231.612 -0.29406 -2.54104 0
M  V30 2446 H 231.256 -0.310701 -5.06949 0
M  V30 2447 H 231.186 1.46939 -5.05684 0
M  V30 2448 H 233.677 0.660887 -3.72076 0
M  V30 2449 H 233.99 0.731426 -7.69331 0
M  V30 2450 H 232.335 0.66471 -6.91814 0
M  V30 2451 H 235.526 0.735545 -4.62285 0
M  V30 2452 H 235.699 0.767938 -6.43434 0
M  V30 2453 N 229.106 1.52395 0.401703 0
M  V30 2454 C 230.355 1.66044 1.14509 0
M  V30 2455 C 230.668 0.400216 1.91462 0
M  V30 2456 O 231.874 0.416632 2.68284 0
M  V30 2457 C 230.33 2.93388 2.0845 0
M  V30 2458 C 229.938 4.26545 1.36978 0
M  V30 2459 C 231.682 3.16402 2.83001 0
M  V30 2460 C 229.589 5.45007 2.29611 0
M  V30 2461 H 228.519 0.618562 0.431158 0
M  V30 2462 H 231.17 1.78886 0.40892 0
M  V30 2463 H 229.552 2.74263 2.8565 0
M  V30 2464 H 230.726 4.56179 0.650916 0
M  V30 2465 H 229.041 4.09692 0.74438 0
M  V30 2466 H 231.638 4.02085 3.52465 0
M  V30 2467 H 231.981 2.30943 3.46368 0
M  V30 2468 H 232.514 3.36034 2.12898 0
M  V30 2469 H 229.253 6.32835 1.70879 0
M  V30 2470 H 228.773 5.19702 2.9945 0
M  V30 2471 H 230.452 5.7838 2.89974 0
M  V30 2472 N 230.584 -0.659388 1.43143 0
M  V30 2473 C 231.995 -1.24041 1.39537 0
M  V30 2474 C 232.346 -1.95963 0.0963364 0
M  V30 2475 O 231.471 -2.00892 -0.804438 0
M  V30 2476 C 232.066 -2.25601 2.52764 0
M  V30 2477 C 230.625 -2.79195 2.52443 0
M  V30 2478 C 229.772 -1.53743 2.30778 0
M  V30 2479 H 232.723 -0.451792 1.52133 0
M  V30 2480 H 232.744 -3.07651 2.23899 0
M  V30 2481 H 232.256 -1.73226 3.47296 0
M  V30 2482 H 230.357 -3.35649 1.61773 0
M  V30 2483 H 230.47 -3.2716 3.50004 0
M  V30 2484 H 228.834 -1.80869 1.79328 0
M  V30 2485 H 229.617 -1.03312 3.27386 0
M  V30 2486 N 232.062 -1.29571 -0.897171 0
M  V30 2487 C 233.308 -1.17863 -1.65034 0
M  V30 2488 C 233.641 0.268729 -1.92332 0
M  V30 2489 O 232.916 1.19378 -1.53555 0
M  V30 2490 C 233.199 -1.995 -2.99786 0
M  V30 2491 C 233.052 -3.5239 -2.79538 0
M  V30 2492 C 234.371 -1.82335 -4.00552 0
M  V30 2493 H 231.49 -0.429528 -0.598895 0
M  V30 2494 H 234.132 -1.59072 -1.03905 0
M  V30 2495 H 232.282 -1.64485 -3.51962 0
M  V30 2496 H 233.954 -3.97401 -2.34244 0
M  V30 2497 H 232.197 -3.77187 -2.14273 0
M  V30 2498 H 232.868 -4.04787 -3.75302 0
M  V30 2499 H 235.344 -2.12924 -3.57495 0
M  V30 2500 H 234.22 -2.41801 -4.92771 0
M  V30 2501 H 234.481 -0.779209 -4.35179 0
M  V30 2502 N 233.54 1.10788 -1.12088 0
M  V30 2503 C 234.951 1.64181 -0.88891 0
M  V30 2504 C 235.302 1.87508 0.577498 0
M  V30 2505 O 234.427 1.61434 1.44112 0
M  V30 2506 C 235.022 2.98257 -1.60712 0
M  V30 2507 C 233.581 3.4853 -1.42139 0
M  V30 2508 C 232.728 2.23208 -1.6454 0
M  V30 2509 H 235.679 0.943368 -1.27618 0
M  V30 2510 H 235.7 3.65552 -1.05604 0
M  V30 2511 H 235.212 2.81246 -2.67436 0
M  V30 2512 H 233.313 3.70692 -0.376552 0
M  V30 2513 H 233.426 4.26882 -2.17505 0
M  V30 2514 H 231.79 2.31169 -1.06925 0
M  V30 2515 H 232.573 2.08733 -2.72554 0
M  V30 2516 N 235.018 0.912232 1.28515 0
M  V30 2517 C 236.267 0.540504 1.94323 0
M  V30 2518 C 236.58 -0.920044 1.72611 0
M  V30 2519 O 237.786 -1.39986 2.32629 0
M  V30 2520 C 236.242 0.915803 3.48053 0
M  V30 2521 C 235.85 2.39598 3.78546 0
M  V30 2522 C 237.594 0.614588 4.20027 0
M  V30 2523 C 235.501 2.71148 5.25578 0
M  V30 2524 H 234.431 0.198418 0.727424 0
M  V30 2525 H 237.082 1.11094 1.46049 0
M  V30 2526 H 235.464 0.274168 3.9505 0
M  V30 2527 H 236.638 3.08422 3.42364 0
M  V30 2528 H 234.953 2.66749 3.1974 0
M  V30 2529 H 237.55 0.827002 5.28266 0
M  V30 2530 H 237.893 -0.447531 4.13887 0
M  V30 2531 H 238.426 1.21462 3.78803 0
M  V30 2532 H 235.165 3.76207 5.36794 0
M  V30 2533 H 234.685 2.0696 5.62963 0
M  V30 2534 H 236.364 2.58072 5.93302 0
M  V30 2535 N 236.496 -1.42363 0.676048 0
M  V30 2536 C 237.426 -2.33497 0.0124832 0
M  V30 2537 C 238.407 -1.50748 -0.787981 0
M  V30 2538 O 239.592 -1.79346 -0.744884 0
M  V30 2539 C 236.722 -3.34377 -0.938582 0
M  V30 2540 C 235.676 -4.27289 -0.246622 0
M  V30 2541 C 235.002 -5.18386 -1.31071 0
M  V30 2542 C 236.302 -5.14916 0.875125 0
M  V30 2543 H 237.996 -2.89233 0.773593 0
M  V30 2544 H 235.542 -1.39073 0.37346 0
M  V30 2545 H 237.495 -3.97044 -1.41188 0
M  V30 2546 H 236.219 -2.76947 -1.73113 0
M  V30 2547 H 234.878 -3.66018 0.206456 0
M  V30 2548 H 234.526 -4.57282 -2.09528 0
M  V30 2549 H 234.226 -5.81378 -0.852839 0
M  V30 2550 H 235.75 -5.83929 -1.78492 0
M  V30 2551 H 237.164 -5.71262 0.482983 0
M  V30 2552 H 235.561 -5.86747 1.25887 0
M  V30 2553 H 236.631 -4.53242 1.72335 0
M  V30 2554 N 237.974 -0.419461 -1.51915 0
M  V30 2555 C 239.385 0.0477853 -1.86639 0
M  V30 2556 C 239.736 1.43531 -1.33766 0
M  V30 2557 O 238.861 2.05401 -0.68113 0
M  V30 2558 C 239.456 0.0934885 -3.38671 0
M  V30 2559 C 238.015 0.505097 -3.72996 0
M  V30 2560 C 237.162 -0.313792 -2.75519 0
M  V30 2561 H 240.113 -0.636088 -1.45395 0
M  V30 2562 H 240.134 0.906667 -3.6954 0
M  V30 2563 H 239.646 -0.916501 -3.77123 0
M  V30 2564 H 237.747 1.52135 -3.40126 0
M  V30 2565 H 237.86 0.242309 -4.78487 0
M  V30 2566 H 236.224 0.225363 -2.53701 0
M  V30 2567 H 237.007 -1.32232 -3.16812 0
M  V30 2568 N 239.452 1.56882 -0.150215 0
M  V30 2569 C 240.7 1.9584 0.499105 0
M  V30 2570 C 241.021 1.03623 1.65188 0
M  V30 2571 O 240.291 0.0984084 1.95653 0
M  V30 2572 H 238.871 0.723119 0.187373 0
M  V30 2573 H 241.533 1.9358 -0.226466 0
M  V30 2574 H 240.629 2.99638 0.873122 0
M  V30 2575 N 240.93 -0.123565 1.57115 0
M  V30 2576 C 241.86 -1.15309 2.03042 0
M  V30 2577 C 242.841 -1.43454 0.914061 0
M  V30 2578 O 244.026 -1.53973 1.18347 0
M  V30 2579 C 241.156 -2.48043 2.43089 0
M  V30 2580 C 240.11 -2.3437 3.58127 0
M  V30 2581 C 239.436 -3.72026 3.84059 0
M  V30 2582 C 240.736 -1.80804 4.90007 0
M  V30 2583 H 242.43 -0.771102 2.893 0
M  V30 2584 H 239.976 -0.369479 1.39179 0
M  V30 2585 H 241.929 -3.20311 2.73823 0
M  V30 2586 H 240.653 -2.88122 1.53796 0
M  V30 2587 H 239.312 -1.64551 3.27595 0
M  V30 2588 H 238.96 -4.09582 2.91979 0
M  V30 2589 H 238.66 -3.63732 4.6149 0
M  V30 2590 H 240.184 -4.45806 4.1724 0
M  V30 2591 H 241.598 -2.42886 5.19307 0
M  V30 2592 H 239.995 -1.83343 5.71407 0
M  V30 2593 H 241.065 -0.76528 4.78823 0
M  V30 2594 N 242.408 -1.52605 -0.393616 0
M  V30 2595 C 243.819 -1.59417 -0.971761 0
M  V30 2596 C 244.17 -0.444173 -1.91106 0
M  V30 2597 O 243.295 0.433382 -2.12016 0
M  V30 2598 C 243.89 -2.88936 -1.76921 0
M  V30 2599 C 242.449 -2.98175 -2.29714 0
M  V30 2600 C 241.596 -2.54491 -1.10135 0
M  V30 2601 H 244.547 -1.57751 -0.173317 0
M  V30 2602 H 244.568 -2.75163 -2.62804 0
M  V30 2603 H 244.08 -3.72616 -1.08532 0
M  V30 2604 H 242.181 -2.19024 -3.01429 0
M  V30 2605 H 242.294 -4.02726 -2.59517 0
M  V30 2606 H 240.658 -2.08702 -1.45999 0
M  V30 2607 H 241.441 -3.4056 -0.432874 0
M  V30 2608 N 243.887 0.651787 -1.4349 0
M  V30 2609 C 244.82 1.77668 -1.43211 0
M  V30 2610 C 245.798 1.59931 -0.29338 0
M  V30 2611 O 246.982 1.82095 -0.487191 0
M  V30 2612 C 244.109 3.14986 -1.24505 0
M  V30 2613 C 243.155 3.51421 -2.41673 0
M  V30 2614 S 243.988 3.51234 -4.04222 0
M  V30 2615 C 245.144 4.91206 -3.87902 0
M  V30 2616 H 245.377 1.77635 -2.38397 0
M  V30 2617 H 242.91 0.824558 -1.30539 0
M  V30 2618 H 244.868 3.94237 -1.144 0
M  V30 2619 H 243.529 3.1258 -0.308651 0
M  V30 2620 H 242.722 4.51291 -2.24393 0
M  V30 2621 H 242.324 2.79585 -2.48411 0
M  V30 2622 H 244.616 5.79902 -3.50315 0
M  V30 2623 H 245.559 5.13537 -4.8753 0
M  V30 2624 H 245.967 4.64808 -3.20334 0
M  V30 2625 N 245.365 1.30045 0.890287 0
M  V30 2626 C 246.313 1.15873 2.01683 0
M  V30 2627 C 247.307 0.0719403 1.69247 0
M  V30 2628 O 248.513 0.232414 1.78493 0
M  V30 2629 H 244.888 0.358203 0.661207 0
M  V30 2630 H 246.859 2.11229 2.10772 0
M  V30 2631 C 245.608 0.861842 3.36849 0
M  V30 2632 H 244.931 1.69016 3.62317 0
M  V30 2633 H 246.371 0.802762 4.16331 0
M  V30 2634 C 244.83 -0.435132 3.34078 0
M  V30 2635 O 245.36 -1.4583 3.74295 0
M  V30 2636 N 243.566 -0.444377 2.87182 0
M  V30 2637 H 243.113 0.388723 2.5465 0
M  V30 2638 H 243.071 -1.31213 2.85711 0
M  V30 2639 N 246.843 -1.10192 1.12674 0
M  V30 2640 C 247.791 -2.18694 0.792196 0
M  V30 2641 C 248.785 -1.67938 -0.222058 0
M  V30 2642 O 249.991 -1.79822 -0.0800074 0
M  V30 2643 H 246.366 -0.713223 0.238364 0
M  V30 2644 H 248.337 -2.44149 1.71564 0
M  V30 2645 C 247.086 -3.46682 0.265859 0
M  V30 2646 H 246.409 -3.86101 1.03761 0
M  V30 2647 H 247.849 -4.23942 0.0701128 0
M  V30 2648 C 246.308 -3.21506 -1.00675 0
M  V30 2649 O 246.838 -3.43408 -2.08408 0
M  V30 2650 N 245.044 -2.75158 -0.934692 0
M  V30 2651 H 244.591 -2.57535 -0.0578604 0
M  V30 2652 H 244.549 -2.58691 -1.7868 0
M  V30 2653 N 248.321 -0.919034 -1.28029 0
M  V30 2654 C 249.271 -0.382574 -2.24767 0
M  V30 2655 C 250.255 0.508286 -1.52661 0
M  V30 2656 O 251.447 0.347145 -1.73562 0
M  V30 2657 C 248.576 0.371432 -3.41285 0
M  V30 2658 C 247.662 -0.535449 -4.20706 0
M  V30 2659 N 248.053 -1.65141 -4.78082 0
M  V30 2660 C 246.351 -0.336824 -4.44726 0
M  V30 2661 C 247.052 -2.21475 -5.37888 0
M  V30 2662 N 246.028 -1.50537 -5.22341 0
M  V30 2663 H 249.83 -1.23477 -2.66703 0
M  V30 2664 H 247.344 -0.772299 -1.42861 0
M  V30 2665 H 249.341 0.772638 -4.09678 0
M  V30 2666 H 248.001 1.22066 -3.00882 0
M  V30 2667 H 249.012 -2.03392 -4.7629 0
M  V30 2668 H 245.689 0.47246 -4.14818 0
M  V30 2669 H 247.079 -3.15379 -5.93284 0
M  V30 2670 N 249.799 1.42003 -0.683588 0
M  V30 2671 C 251.047 2.01015 -0.209101 0
M  V30 2672 C 251.368 1.54365 1.19149 0
M  V30 2673 O 250.638 0.769083 1.80172 0
M  V30 2674 H 249.218 0.743294 -0.074315 0
M  V30 2675 H 251.88 1.73798 -0.882066 0
M  V30 2676 H 250.976 3.11343 -0.2172 0
M  V30 2677 N 251.277 0.427512 1.51691 0
M  V30 2678 C 252.225 -0.403359 2.29076 0
M  V30 2679 C 253.219 -1.02962 1.34518 0
M  V30 2680 O 254.425 -0.965715 1.51901 0
M  V30 2681 H 250.8 -0.148879 0.737115 0
M  V30 2682 H 252.771 0.270295 2.97173 0
M  V30 2683 C 251.52 -1.49763 3.13794 0
M  V30 2684 H 250.843 -1.02508 3.86435 0
M  V30 2685 H 252.283 -2.05244 3.71014 0
M  V30 2686 C 250.742 -2.47536 2.28533 0
M  V30 2687 O 251.272 -3.51848 1.93819 0
M  V30 2688 N 249.478 -2.18187 1.91945 0
M  V30 2689 H 249.025 -1.33389 2.20375 0
M  V30 2690 H 248.983 -2.83848 1.35195 0
M  V30 2691 N 252.755 -1.56801 0.158532 0
M  V30 2692 C 253.985 -2.00568 -0.495583 0
M  V30 2693 C 254.393 -1.03774 -1.58201 0
M  V30 2694 O 253.736 -0.0285797 -1.83678 0
M  V30 2695 C 253.798 -3.40768 -1.14532 0
M  V30 2696 C 253.462 -4.56553 -0.202101 0
M  V30 2697 C 254.459 -5.16714 0.574675 0
M  V30 2698 C 252.144 -5.02197 -0.101648 0
M  V30 2699 C 254.138 -6.20939 1.43924 0
M  V30 2700 C 251.825 -6.06274 0.766508 0
M  V30 2701 C 252.823 -6.65515 1.53555 0
M  V30 2702 O 252.511 -7.67575 2.38922 0
M  V30 2703 H 252.243 -0.662893 -0.13247 0
M  V30 2704 H 254.797 -2.03829 0.253559 0
M  V30 2705 H 253.027 -3.34381 -1.94233 0
M  V30 2706 H 254.716 -3.6857 -1.70033 0
M  V30 2707 H 255.482 -4.82341 0.507167 0
M  V30 2708 H 251.361 -4.55807 -0.689994 0
M  V30 2709 H 254.905 -6.67107 2.03996 0
M  V30 2710 H 250.802 -6.40073 0.835266 0
M  V30 2711 H 251.57 -7.84844 2.32296 0
M  V30 2712 N 254.233 0.115231 -1.57178 0
M  V30 2713 C 255.482 0.820945 -1.84237 0
M  V30 2714 C 255.795 1.80866 -0.744761 0
M  V30 2715 O 257.001 2.56083 -0.901871 0
M  V30 2716 C 255.457 1.51072 -3.26658 0
M  V30 2717 C 255.065 0.563795 -4.44438 0
M  V30 2718 C 256.809 2.20134 -3.62962 0
M  V30 2719 C 254.716 1.25701 -5.77887 0
M  V30 2720 H 253.646 0.310328 -0.687177 0
M  V30 2721 H 256.297 0.0737134 -1.83352 0
M  V30 2722 H 254.679 2.30471 -3.22024 0
M  V30 2723 H 255.853 -0.197247 -4.60378 0
M  V30 2724 H 254.168 -0.0200638 -4.16395 0
M  V30 2725 H 256.765 2.72696 -4.59936 0
M  V30 2726 H 257.108 2.98107 -2.90582 0
M  V30 2727 H 257.641 1.47619 -3.69396 0
M  V30 2728 H 254.38 0.518493 -6.53446 0
M  V30 2729 H 253.9 1.98997 -5.65827 0
M  V30 2730 H 255.579 1.78915 -6.2177 0
M  V30 2731 N 255.711 1.52812 0.385517 0
M  V30 2732 C 256.957 1.68275 1.13188 0
M  V30 2733 C 257.29 0.423179 1.89533 0
M  V30 2734 O 256.565 -0.579113 1.85679 0
M  V30 2735 C 256.848 2.92001 2.1073 0
M  V30 2736 C 256.701 4.28067 1.38125 0
M  V30 2737 C 258.02 3.11283 3.11113 0
M  V30 2738 H 255.139 0.612352 0.410115 0
M  V30 2739 H 257.781 1.85415 0.414869 0
M  V30 2740 H 255.931 2.77519 2.71874 0
M  V30 2741 H 257.603 4.54324 0.799187 0
M  V30 2742 H 255.846 4.28388 0.683092 0
M  V30 2743 H 256.517 5.10733 2.09417 0
M  V30 2744 H 258.993 3.2482 2.6006 0
M  V30 2745 H 257.869 3.99325 3.76605 0
M  V30 2746 H 258.13 2.25656 3.80173 0
M  V30 2747 N 257.189 -0.644168 1.43834 0
M  V30 2748 C 258.605 -0.960875 1.27434 0
M  V30 2749 C 258.805 -2.00499 0.200618 0
M  V30 2750 O 257.861 -2.49018 -0.417906 0
M  V30 2751 C 259.174 -1.43653 2.64167 0
M  V30 2752 C 260.722 -1.55271 2.71772 0
M  V30 2753 C 261.197 -2.06224 4.08944 0
M  V30 2754 N 262.688 -2.13513 4.11055 0
M  V30 2755 C 263.423 -2.54081 5.14033 0
M  V30 2756 N 262.919 -2.9388 6.27381 0
M  V30 2757 N 264.712 -2.54101 5.01387 0
M  V30 2758 H 256.863 0.0465779 2.12349 0
M  V30 2759 H 259.126 -0.0417638 0.94708 0
M  V30 2760 H 258.832 -0.743706 3.43747 0
M  V30 2761 H 258.706 -2.40993 2.90176 0
M  V30 2762 H 261.093 -2.23653 1.92519 0
M  V30 2763 H 261.174 -0.563395 2.49519 0
M  V30 2764 H 260.818 -1.38441 4.88668 0
M  V30 2765 H 260.748 -3.06003 4.28567 0
M  V30 2766 H 263.239 -1.85493 3.29242 0
M  V30 2767 H 263.552 -3.2361 7.01781 0
M  V30 2768 H 261.897 -2.91663 6.30839 0
M  V30 2769 H 265.088 -2.22391 4.11898 0
M  V30 2770 H 265.261 -2.85394 5.81768 0
M  V30 2771 N 258.668 -1.30515 -0.883378 0
M  V30 2772 C 259.598 -1.19607 -2.00541 0
M  V30 2773 C 260.579 -0.086346 -1.69881 0
M  V30 2774 O 261.764 -0.268654 -1.92333 0
M  V30 2775 C 258.894 -0.888758 -3.35736 0
M  V30 2776 C 257.848 -1.95659 -3.8066 0
M  V30 2777 C 257.174 -1.50224 -5.13164 0
M  V30 2778 C 258.474 -3.36788 -3.99213 0
M  V30 2779 H 260.168 -2.13476 -2.09925 0
M  V30 2780 H 257.714 -1.02775 -1.00863 0
M  V30 2781 H 259.667 -0.799094 -4.13754 0
M  V30 2782 H 258.391 0.0856125 -3.26488 0
M  V30 2783 H 257.05 -2.03591 -3.04871 0
M  V30 2784 H 256.698 -0.516092 -5.00345 0
M  V30 2785 H 256.398 -2.2165 -5.44192 0
M  V30 2786 H 257.922 -1.42639 -5.93706 0
M  V30 2787 H 259.336 -3.31605 -4.67665 0
M  V30 2788 H 257.733 -4.06314 -4.41621 0
M  V30 2789 H 258.803 -3.78561 -3.03017 0
M  V30 2790 N 260.146 1.09593 -1.13257 0
M  V30 2791 C 261.394 1.81375 -0.891492 0
M  V30 2792 C 261.715 1.86049 0.584009 0
M  V30 2793 O 260.985 1.34481 1.42449 0
M  V30 2794 H 259.565 0.671708 -0.326828 0
M  V30 2795 H 262.227 1.3256 -1.42877 0
M  V30 2796 H 261.323 2.84612 -1.28071 0
M  V30 2797 N 261.624 0.925811 1.2754 0
M  V30 2798 C 262.574 0.394488 2.24561 0
M  V30 2799 C 263.558 -0.500183 1.52928 0
M  V30 2800 O 264.75 -0.337936 1.73744 0
M  V30 2801 C 261.879 -0.353328 3.41477 0
M  V30 2802 C 260.965 0.557752 4.20416 0
M  V30 2803 N 261.356 1.67674 4.77199 0
M  V30 2804 C 259.654 0.360404 4.44541 0
M  V30 2805 C 260.355 2.24324 5.36706 0
M  V30 2806 N 259.331 1.53305 5.21535 0
M  V30 2807 H 263.133 1.2489 2.66045 0
M  V30 2808 H 260.647 0.779864 1.4245 0
M  V30 2809 H 262.644 -0.7509 4.10082 0
M  V30 2810 H 261.304 -1.20469 3.01525 0
M  V30 2811 H 262.315 2.05915 4.75204 0
M  V30 2812 H 258.992 -0.450454 4.15063 0
M  V30 2813 H 260.382 3.18521 5.91603 0
M  V30 2814 N 263.102 -1.41638 0.69111 0
M  V30 2815 C 264.032 -2.3347 0.037248 0
M  V30 2816 C 265.013 -1.51575 -0.771947 0
M  V30 2817 O 266.198 -1.80126 -0.72582 0
M  V30 2818 C 263.328 -3.35354 -0.903064 0
M  V30 2819 C 262.282 -4.27526 -0.201288 0
M  V30 2820 C 261.608 -5.19747 -1.25565 0
M  V30 2821 C 262.908 -5.13959 0.929689 0
M  V30 2822 H 264.602 -2.88397 0.804227 0
M  V30 2823 H 262.148 -1.38669 0.388189 0
M  V30 2824 H 264.101 -3.98519 -1.36969 0
M  V30 2825 H 262.825 -2.78767 -1.70166 0
M  V30 2826 H 261.484 -3.65779 0.245265 0
M  V30 2827 H 261.132 -4.59479 -2.04666 0
M  V30 2828 H 260.832 -5.8225 -0.791128 0
M  V30 2829 H 262.356 -5.85789 -1.72288 0
M  V30 2830 H 263.77 -5.70718 0.543546 0
M  V30 2831 H 262.167 -5.85379 1.32103 0
M  V30 2832 H 263.237 -4.51389 1.77133 0
M  V30 2833 N 264.58 -0.43555 -1.51462 0
M  V30 2834 C 265.826 0.131709 -2.02372 0
M  V30 2835 C 266.159 1.42516 -1.3192 0
M  V30 2836 O 265.434 1.89606 -0.433573 0
M  V30 2837 C 265.717 0.352301 -3.58373 0
M  V30 2838 C 265.57 -0.959676 -4.39443 0
M  V30 2839 C 266.889 1.12286 -4.25535 0
M  V30 2840 H 264.008 0.0463936 -0.735538 0
M  V30 2841 H 266.65 -0.574197 -1.81116 0
M  V30 2842 H 264.8 0.9536 -3.76615 0
M  V30 2843 H 266.472 -1.59482 -4.32855 0
M  V30 2844 H 264.715 -1.56468 -4.04599 0
M  V30 2845 H 265.386 -0.759394 -5.46752 0
M  V30 2846 H 267.862 0.613545 -4.11552 0
M  V30 2847 H 266.738 1.24598 -5.34571 0
M  V30 2848 H 266.999 2.15048 -3.86273 0
M  V30 2849 N 266.058 1.56714 -0.166846 0
M  V30 2850 C 267.283 2.01557 0.488833 0
M  V30 2851 C 267.708 1.0463 1.56314 0
M  V30 2852 O 267.066 0.0251304 1.81283 0
M  V30 2853 C 267.114 3.4503 1.04818 0
M  V30 2854 O 266.218 3.51163 2.16236 0
M  V30 2855 H 265.559 0.653516 0.117526 0
M  V30 2856 H 268.089 2.02818 -0.269421 0
M  V30 2857 H 268.099 3.84243 1.37191 0
M  V30 2858 H 266.774 4.15077 0.261572 0
M  V30 2859 H 265.351 3.23807 1.84942 0
M  V30 2860 N 267.536 -0.106894 1.57237 0
M  V30 2861 C 268.782 -0.808678 1.86633 0
M  V30 2862 C 269.137 -1.76917 0.756178 0
M  V30 2863 O 268.43 -1.90055 -0.242834 0
M  V30 2864 C 268.624 -1.58628 3.20268 0
M  V30 2865 C 268.453 -0.702592 4.44178 0
M  V30 2866 C 267.223 -0.352808 5.04067 0
M  V30 2867 C 269.421 -0.0148031 5.14298 0
M  V30 2868 N 267.403 0.540279 6.11518 0
M  V30 2869 C 268.774 0.736809 6.15606 0
M  V30 2870 C 270.829 0.0603524 4.97863 0
M  V30 2871 C 269.532 1.55654 7.02257 0
M  V30 2872 C 271.558 0.866942 5.85011 0
M  V30 2873 C 270.92 1.60671 6.85831 0
M  V30 2874 H 267.019 -0.27246 0.733001 0
M  V30 2875 H 269.603 -0.0717858 1.94568 0
M  V30 2876 H 267.774 -2.29413 3.13408 0
M  V30 2877 H 269.506 -2.23434 3.3743 0
M  V30 2878 H 266.261 -0.697802 4.68431 0
M  V30 2879 H 266.685 0.979029 6.69884 0
M  V30 2880 H 271.327 -0.497236 4.19866 0
M  V30 2881 H 269.045 2.12524 7.79653 0
M  V30 2882 H 272.631 0.927612 5.74358 0
M  V30 2883 H 271.511 2.2208 7.52097 0
M  V30 2884 N 269.014 -1.53014 -0.377408 0
M  V30 2885 C 269.947 -1.73382 -1.48371 0
M  V30 2886 C 270.925 -0.581879 -1.51832 0
M  V30 2887 O 272.109 -0.81307 -1.70063 0
M  V30 2888 C 269.236 -1.80192 -2.8679 0
M  V30 2889 C 268.282 -3.02056 -3.01105 0
M  V30 2890 S 269.115 -4.61811 -2.71093 0
M  V30 2891 C 270.271 -4.71453 -4.11683 0
M  V30 2892 H 270.504 -2.66946 -1.30872 0
M  V30 2893 H 268.037 -1.43453 -0.571012 0
M  V30 2894 H 269.995 -1.84802 -3.6655 0
M  V30 2895 H 268.656 -0.877008 -3.01608 0
M  V30 2896 H 267.849 -3.03396 -4.02451 0
M  V30 2897 H 267.451 -2.95498 -2.29253 0
M  V30 2898 H 269.743 -4.50781 -5.0577 0
M  V30 2899 H 270.686 -5.73487 -4.15353 0
M  V30 2900 H 271.094 -4.00189 -3.98132 0
M  V30 2901 N 270.492 0.636531 -1.44174 0
M  V30 2902 C 271.74 1.39343 -1.46383 0
M  V30 2903 C 272.061 1.94766 -0.0955715 0
M  V30 2904 O 271.331 1.75452 0.871395 0
M  V30 2905 H 269.911 0.517199 -0.538994 0
M  V30 2906 H 272.573 0.74957 -1.7991 0
M  V30 2907 H 271.669 2.22746 -2.18611 0
M  V30 2908 N 271.97 1.30982 0.876444 0
M  V30 2909 C 272.88 1.2003 2.01569 0
M  V30 2910 C 273.896 0.11838 1.73597 0
M  V30 2911 O 275.072 0.33495 1.98595 0
M  V30 2912 C 272.137 0.901637 3.34771 0
M  V30 2913 C 271.198 2.06979 3.76109 0
M  V30 2914 C 270.431 1.78529 5.02954 0
M  V30 2915 O 270.654 0.717296 5.65872 0
M  V30 2916 O 269.588 2.64019 5.40905 0
M  V30 2917 H 273.414 2.15753 2.13739 0
M  V30 2918 H 270.999 1.10658 1.00375 0
M  V30 2919 H 272.881 0.750645 4.1466 0
M  V30 2920 H 271.556 -0.0256141 3.2369 0
M  V30 2921 H 270.463 2.27616 2.96887 0
M  V30 2922 H 271.796 2.97907 3.91807 0
M  V30 2923 N 273.449 -1.08991 1.13837 0
M  V30 2924 C 274.381 -2.15606 0.777612 0
M  V30 2925 C 275.394 -1.61533 -0.202739 0
M  V30 2926 O 276.583 -1.78491 0.0181055 0
M  V30 2927 C 273.683 -3.3864 0.132623 0
M  V30 2928 C 272.856 -4.22115 1.1462 0
M  V30 2929 C 271.915 -5.23564 0.526074 0
M  V30 2930 O 270.941 -5.56678 1.18735 0
M  V30 2931 N 272.143 -5.76266 -0.699866 0
M  V30 2932 H 274.908 -2.47159 1.69506 0
M  V30 2933 H 272.469 -1.24747 1.03198 0
M  V30 2934 H 274.461 -4.03626 -0.29459 0
M  V30 2935 H 273.031 -3.04938 -0.687849 0
M  V30 2936 H 272.251 -3.53199 1.75055 0
M  V30 2937 H 273.539 -4.74709 1.83109 0
M  V30 2938 H 272.937 -5.51585 -1.25581 0
M  V30 2939 H 271.494 -6.42963 -1.06968 0
M  V30 2940 N 274.927 -0.932562 -1.27047 0
M  V30 2941 C 275.89 -0.440064 -2.24936 0
M  V30 2942 C 276.89 0.444071 -1.54547 0
M  V30 2943 O 278.08 0.244465 -1.72476 0
M  V30 2944 C 275.212 0.36678 -3.38921 0
M  V30 2945 H 276.405 -1.305 -2.70018 0
M  V30 2946 H 273.958 -0.713707 -1.39054 0
M  V30 2947 H 274.693 1.25033 -2.99228 0
M  V30 2948 H 274.478 -0.267204 -3.91188 0
M  V30 2949 H 275.968 0.701567 -4.11665 0
M  V30 2950 N 276.405 1.4127 -0.698611 0
M  V30 2951 C 277.315 2.34573 -0.0357891 0
M  V30 2952 C 278.331 1.56393 0.762701 0
M  V30 2953 O 279.507 1.8886 0.699564 0
M  V30 2954 C 276.572 3.35159 0.887089 0
M  V30 2955 C 275.633 4.29225 0.0804634 0
M  V30 2956 C 274.866 5.25006 0.959387 0
M  V30 2957 O 275.089 5.26314 2.19886 0
M  V30 2958 O 274.023 6.00519 0.407439 0
M  V30 2959 H 277.849 2.92838 -0.804957 0
M  V30 2960 H 275.434 1.42175 -0.458966 0
M  V30 2961 H 277.316 3.9689 1.41621 0
M  V30 2962 H 275.991 2.79333 1.6357 0
M  V30 2963 H 274.898 3.70833 -0.493328 0
M  V30 2964 H 276.231 4.88157 -0.629547 0
M  V30 2965 N 277.883 0.443576 1.51229 0
M  V30 2966 C 278.846 -0.353132 2.26463 0
M  V30 2967 C 279.846 -0.944338 1.3015 0
M  V30 2968 O 281.036 -0.817813 1.5381 0
M  V30 2969 C 278.168 -1.50023 3.06114 0
M  V30 2970 H 279.361 0.3063 2.98332 0
M  V30 2971 H 276.914 0.196902 1.55055 0
M  V30 2972 H 277.649 -2.19553 2.38677 0
M  V30 2973 H 277.434 -1.08241 3.76864 0
M  V30 2974 H 278.924 -2.06296 3.63087 0
M  V30 2975 N 279.361 -1.56624 0.175154 0
M  V30 2976 C 280.291 -2.21155 -0.749195 0
M  V30 2977 C 281.272 -1.16836 -1.23626 0
M  V30 2978 O 282.457 -1.45277 -1.28873 0
M  V30 2979 C 279.587 -2.8553 -1.97711 0
M  V30 2980 C 278.541 -3.95921 -1.62575 0
M  V30 2981 C 277.867 -4.47365 -2.92864 0
M  V30 2982 C 279.167 -5.15323 -0.850838 0
M  V30 2983 H 280.861 -2.98653 -0.211295 0
M  V30 2984 H 278.407 -1.43651 -0.100188 0
M  V30 2985 H 280.36 -3.2935 -2.62881 0
M  V30 2986 H 279.084 -2.05406 -2.53921 0
M  V30 2987 H 277.743 -3.52762 -0.997719 0
M  V30 2988 H 277.391 -3.64027 -3.47122 0
M  V30 2989 H 277.091 -5.21839 -2.70106 0
M  V30 2990 H 278.615 -4.93873 -3.59056 0
M  V30 2991 H 280.029 -5.55812 -1.40521 0
M  V30 2992 H 278.426 -5.95739 -0.722154 0
M  V30 2993 H 279.496 -4.84661 0.152082 0
M  V30 2994 N 280.839 0.0985539 -1.57292 0
M  V30 2995 C 282.087 0.801092 -1.85545 0
M  V30 2996 C 282.408 1.79438 -0.763353 0
M  V30 2997 O 281.678 1.94763 0.21073 0
M  V30 2998 H 280.258 0.29884 -0.684619 0
M  V30 2999 H 282.92 0.0810064 -1.94732 0
M  V30 3000 H 282.016 1.3338 -2.82163 0
M  V30 3001 N 282.317 1.53212 0.369288 0
M  V30 3002 C 283.563 1.69466 1.11397 0
M  V30 3003 C 283.896 0.443257 1.89074 0
M  V30 3004 O 283.171 -0.559386 1.86282 0
M  V30 3005 C 283.454 2.9422 2.07621 0
M  V30 3006 C 283.307 4.29508 1.33577 0
M  V30 3007 C 284.626 3.14565 3.07794 0
M  V30 3008 H 281.745 0.616667 0.403597 0
M  V30 3009 H 284.387 1.85845 0.395179 0
M  V30 3010 H 282.537 2.80387 2.68916 0
M  V30 3011 H 284.209 4.55147 0.750955 0
M  V30 3012 H 282.452 4.29088 0.637618 0
M  V30 3013 H 283.123 5.12926 2.03989 0
M  V30 3014 H 285.599 3.2756 2.56601 0
M  V30 3015 H 284.475 4.03297 3.72348 0
M  V30 3016 H 284.736 2.29675 3.77759 0
M  V30 3017 N 283.795 -0.628877 1.44509 0
M  V30 3018 C 284.705 -1.7694 1.54044 0
M  V30 3019 C 285.721 -1.68705 0.425987 0
M  V30 3020 O 286.897 -1.89442 0.683656 0
M  V30 3021 C 283.962 -3.13332 1.48405 0
M  V30 3022 C 283.023 -3.33181 2.70719 0
M  V30 3023 C 282.256 -4.63067 2.6534 0
M  V30 3024 O 282.479 -5.44017 1.71469 0
M  V30 3025 O 281.413 -4.85167 3.56226 0
M  V30 3026 H 285.239 -1.71848 2.50403 0
M  V30 3027 H 282.824 -0.790378 1.26781 0
M  V30 3028 H 284.706 -3.94634 1.47791 0
M  V30 3029 H 283.381 -3.1896 0.551898 0
M  V30 3030 H 282.288 -2.51549 2.769 0
M  V30 3031 H 283.621 -3.32416 3.62988 0
M  V30 3032 N 285.273 -1.31445 -0.869486 0
M  V30 3033 C 286.519 -1.21337 -1.62496 0
M  V30 3034 C 286.852 0.227872 -1.92858 0
M  V30 3035 O 286.127 1.16094 -1.56053 0
M  V30 3036 C 286.41 -2.05814 -2.95487 0
M  V30 3037 C 286.263 -3.5824 -2.72 0
M  V30 3038 C 287.582 -1.9079 -3.96594 0
M  V30 3039 H 284.701 -0.442135 -0.589649 0
M  V30 3040 H 287.343 -1.6124 -1.00507 0
M  V30 3041 H 285.493 -1.71913 -3.48394 0
M  V30 3042 H 287.165 -4.0228 -2.25762 0
M  V30 3043 H 285.408 -3.81647 -2.06224 0
M  V30 3044 H 286.079 -4.12657 -3.66631 0
M  V30 3045 H 288.555 -2.20459 -3.52898 0
M  V30 3046 H 287.431 -2.52199 -4.87531 0
M  V30 3047 H 287.692 -0.871341 -4.33428 0
M  V30 3048 N 286.751 1.08385 -1.14413 0
M  V30 3049 C 287.981 1.8425 -0.934644 0
M  V30 3050 C 288.389 1.81907 0.520234 0
M  V30 3051 O 287.732 1.22126 1.37226 0
M  V30 3052 C 287.794 3.32853 -1.35828 0
M  V30 3053 C 287.458 3.5893 -2.82875 0
M  V30 3054 C 288.455 3.53756 -3.80989 0
M  V30 3055 C 286.14 3.86934 -3.20293 0
M  V30 3056 C 288.134 3.76216 -5.14529 0
M  V30 3057 C 285.821 4.09047 -4.54008 0
M  V30 3058 C 286.819 4.03682 -5.50936 0
M  V30 3059 O 286.507 4.25214 -6.82238 0
M  V30 3060 H 286.239 0.588502 -0.332628 0
M  V30 3061 H 288.793 1.37792 -1.52324 0
M  V30 3062 H 287.023 3.8007 -0.713019 0
M  V30 3063 H 288.712 3.90154 -1.11957 0
M  V30 3064 H 289.478 3.32135 -3.53428 0
M  V30 3065 H 285.357 3.9023 -2.45442 0
M  V30 3066 H 288.901 3.71943 -5.90173 0
M  V30 3067 H 284.798 4.30151 -4.8129 0
M  V30 3068 H 285.566 4.42619 -6.88499 0
M  V30 3069 N 288.23 0.939286 1.26551 0
M  V30 3070 C 289.641 0.628782 1.75793 0
M  V30 3071 C 289.992 -0.856046 1.7654 0
M  V30 3072 O 289.117 -1.66994 1.3763 0
M  V30 3073 C 289.712 1.13465 3.19235 0
M  V30 3074 C 288.271 0.874601 3.66098 0
M  V30 3075 C 287.418 1.28667 2.45642 0
M  V30 3076 H 290.369 1.1178 1.12654 0
M  V30 3077 H 290.39 0.487609 3.77363 0
M  V30 3078 H 289.902 2.21535 3.1866 0
M  V30 3079 H 288.003 -0.191793 3.72106 0
M  V30 3080 H 288.116 1.50028 4.55004 0
M  V30 3081 H 286.48 0.705109 2.44745 0
M  V30 3082 H 287.263 2.37625 2.47769 0
M  V30 3083 N 289.708 -1.40897 0.706093 0
M  V30 3084 C 290.956 -2.00657 0.241054 0
M  V30 3085 C 291.277 -1.56241 -1.16678 0
M  V30 3086 O 290.547 -0.79765 -1.78926 0
M  V30 3087 H 289.127 -0.742018 0.0861308 0
M  V30 3088 H 291.789 -1.72372 0.909604 0
M  V30 3089 H 290.885 -3.10958 0.266705 0
M  V30 3090 N 291.186 -0.45159 -1.50991 0
M  V30 3091 C 292.416 0.108177 -2.06317 0
M  V30 3092 C 292.824 1.35774 -1.31765 0
M  V30 3093 O 292.167 1.79838 -0.374694 0
M  V30 3094 C 292.229 0.481659 -3.56259 0
M  V30 3095 C 291.893 -0.663114 -4.52163 0
M  V30 3096 C 292.89 -1.53947 -4.96585 0
M  V30 3097 C 290.575 -0.8479 -4.95092 0
M  V30 3098 C 292.569 -2.58518 -5.82621 0
M  V30 3099 C 290.256 -1.89686 -5.80915 0
M  V30 3100 C 291.254 -2.76388 -6.24579 0
M  V30 3101 O 290.942 -3.79482 -7.08695 0
M  V30 3102 H 290.674 0.00499183 -0.675982 0
M  V30 3103 H 293.228 -0.633659 -1.95381 0
M  V30 3104 H 291.458 1.27641 -3.65027 0
M  V30 3105 H 293.147 0.974233 -3.94035 0
M  V30 3106 H 293.913 -1.4083 -4.64103 0
M  V30 3107 H 289.792 -0.18258 -4.60638 0
M  V30 3108 H 293.336 -3.26224 -6.16623 0
M  V30 3109 H 289.233 -2.02817 -6.12809 0
M  V30 3110 H 290.001 -3.76234 -7.26905 0
M  V30 3111 N 292.664 1.56529 -0.183458 0
M  V30 3112 C 293.627 2.17324 0.728223 0
M  V30 3113 C 294.627 1.12453 1.14939 0
M  V30 3114 O 295.817 1.37902 1.06437 0
M  V30 3115 C 292.949 2.76591 1.99274 0
M  V30 3116 H 294.142 2.99241 0.198772 0
M  V30 3117 H 291.695 1.5616 0.0661391 0
M  V30 3118 H 292.43 1.98441 2.56499 0
M  V30 3119 H 292.215 3.5335 1.69959 0
M  V30 3120 H 293.705 3.23311 2.6431 0
M  V30 3121 N 294.142 -0.090211 1.57342 0
M  V30 3122 C 295.105 -1.09335 2.01441 0
M  V30 3123 C 296.105 -1.32666 0.908641 0
M  V30 3124 O 297.295 -1.28697 1.174 0
M  V30 3125 C 294.427 -2.44136 2.3793 0
M  V30 3126 H 295.62 -0.713662 2.91285 0
M  V30 3127 H 293.173 -0.335404 1.52659 0
M  V30 3128 H 293.908 -2.86972 1.51055 0
M  V30 3129 H 293.693 -2.28548 3.18603 0
M  V30 3130 H 295.183 -3.16277 2.72688 0
M  V30 3131 N 295.62 -1.53406 -0.361157 0
M  V30 3132 C 296.583 -1.79479 -1.42548 0
M  V30 3133 C 297.583 -0.665327 -1.4639 0
M  V30 3134 O 298.773 -0.933549 -1.47073 0
M  V30 3135 C 295.905 -1.92087 -2.8163 0
M  V30 3136 H 297.098 -2.74538 -1.20701 0
M  V30 3137 H 294.651 -1.4455 -0.594546 0
M  V30 3138 H 295.386 -0.991099 -3.08784 0
M  V30 3139 H 295.171 -2.74241 -2.80239 0
M  V30 3140 H 296.661 -2.13836 -3.58697 0
M  V30 3141 N 297.098 0.621204 -1.44841 0
M  V30 3142 C 298.008 1.7612 -1.5498 0
M  V30 3143 C 299.024 1.68477 -0.434927 0
M  V30 3144 O 300.2 1.89076 -0.693693 0
M  V30 3145 C 297.265 3.1254 -1.50065 0
M  V30 3146 C 296.326 3.31741 -2.72482 0
M  V30 3147 C 295.559 4.61653 -2.67792 0
M  V30 3148 O 295.782 5.431 -1.74352 0
M  V30 3149 O 294.716 4.83271 -3.58794 0
M  V30 3150 H 298.542 1.70518 -2.51311 0
M  V30 3151 H 296.127 0.783643 -1.27198 0
M  V30 3152 H 298.009 3.93844 -1.49882 0
M  V30 3153 H 296.684 3.18663 -0.568806 0
M  V30 3154 H 295.591 2.50077 -2.7823 0
M  V30 3155 H 296.924 3.30486 -3.64746 0
M  V30 3156 N 298.576 1.31904 0.862503 0
M  V30 3157 C 299.822 1.22197 1.61851 0
M  V30 3158 C 300.155 -0.217641 1.92977 0
M  V30 3159 O 299.43 -1.15264 1.56666 0
M  V30 3160 C 299.713 2.07378 2.94391 0
M  V30 3161 C 299.566 3.59678 2.70096 0
M  V30 3162 C 300.885 1.92891 3.95577 0
M  V30 3163 H 298.004 0.445255 0.587296 0
M  V30 3164 H 300.646 1.6177 0.99651 0
M  V30 3165 H 298.796 1.73758 3.47477 0
M  V30 3166 H 300.468 4.03472 2.23625 0
M  V30 3167 H 298.711 3.82735 2.04197 0
M  V30 3168 H 299.382 4.14595 3.64438 0
M  V30 3169 H 301.858 2.22327 3.51724 0
M  V30 3170 H 300.734 2.54781 4.86187 0
M  V30 3171 H 300.995 0.894315 4.3296 0
M  V30 3172 N 300.054 -1.07777 1.14986 0
M  V30 3173 C 300.984 -2.16865 0.865557 0
M  V30 3174 C 301.965 -1.69123 -0.182083 0
M  V30 3175 O 303.15 -1.94164 -0.0373815 0
M  V30 3176 C 300.28 -3.45539 0.349313 0
M  V30 3177 C 299.234 -4.06708 1.33313 0
M  V30 3178 C 298.56 -5.30411 0.675918 0
M  V30 3179 C 299.86 -4.47241 2.69764 0
M  V30 3180 H 301.554 -2.40905 1.77778 0
M  V30 3181 H 299.1 -1.15781 0.856203 0
M  V30 3182 H 301.053 -4.21174 0.137983 0
M  V30 3183 H 299.777 -3.21072 -0.598362 0
M  V30 3184 H 298.436 -3.33112 1.53075 0
M  V30 3185 H 298.084 -5.02232 -0.277767 0
M  V30 3186 H 297.784 -5.72293 1.33244 0
M  V30 3187 H 299.308 -6.08755 0.474262 0
M  V30 3188 H 300.722 -5.14025 2.53873 0
M  V30 3189 H 299.119 -5.00062 3.3175 0
M  V30 3190 H 300.189 -3.58818 3.26156 0
M  V30 3191 N 301.532 -0.945985 -1.26051 0
M  V30 3192 C 302.779 -0.596118 -1.93527 0
M  V30 3193 C 303.107 0.865559 -1.74179 0
M  V30 3194 O 302.362 1.63524 -1.0751 0
M  V30 3195 C 302.661 -0.890475 -3.46129 0
M  V30 3196 C 302.327 -2.3368 -3.85622 0
M  V30 3197 C 300.989 -2.73216 -3.96114 0
M  V30 3198 C 303.341 -3.27648 -4.05334 0
M  V30 3199 C 300.669 -4.05806 -4.2372 0
M  V30 3200 C 303.021 -4.59841 -4.3443 0
M  V30 3201 C 301.685 -4.99185 -4.43137 0
M  V30 3202 H 300.955 -0.218135 -0.708165 0
M  V30 3203 H 303.602 -1.1934 -1.49768 0
M  V30 3204 H 301.907 -0.210711 -3.91233 0
M  V30 3205 H 303.604 -0.598478 -3.96509 0
M  V30 3206 H 300.194 -2.02015 -3.78005 0
M  V30 3207 H 304.378 -2.98298 -3.96651 0
M  V30 3208 H 299.634 -4.35945 -4.28675 0
M  V30 3209 H 303.808 -5.32641 -4.48628 0
M  V30 3210 H 301.435 -6.01952 -4.64282 0
M  V30 3211 N 303.011 1.40521 -0.713556 0
M  V30 3212 C 303.961 2.27971 -0.036165 0
M  V30 3213 C 304.945 1.43151 0.734623 0
M  V30 3214 O 306.137 1.66261 0.607158 0
M  V30 3215 C 303.266 3.31661 0.886331 0
M  V30 3216 C 302.352 4.23955 0.110836 0
M  V30 3217 N 302.743 4.97641 -0.904847 0
M  V30 3218 C 301.041 4.44674 0.343692 0
M  V30 3219 C 301.742 5.65322 -1.37064 0
M  V30 3220 N 300.718 5.39162 -0.693168 0
M  V30 3221 H 304.52 2.82384 -0.814645 0
M  V30 3222 H 302.034 1.52948 -0.545963 0
M  V30 3223 H 304.031 3.93154 1.38692 0
M  V30 3224 H 302.691 2.78808 1.66421 0
M  V30 3225 H 303.702 5.01689 -1.28563 0
M  V30 3226 H 300.379 4.02801 1.09805 0
M  V30 3227 H 301.769 6.34359 -2.21447 0
M  V30 3228 N 304.489 0.459591 1.5075 0
M  V30 3229 C 305.766 -0.160371 1.94941 0
M  V30 3230 C 306.146 -1.58048 1.39943 0
M  V30 3231 O 305.494 -2.206 0.595629 0
M  V30 3232 C 305.704 -0.115432 3.48809 0
M  V30 3233 C 307.052 -0.310026 4.23467 0
M  V30 3234 O 308.076 -0.192543 3.55679 0
M  V30 3235 O 306.935 -0.546031 5.43765 0
M  V30 3236 H 304.029 -0.117925 0.818549 0
M  V30 3237 H 306.575 0.519169 1.61563 0
M  V30 3238 H 305.347 0.87652 3.81357 0
M  V30 3239 H 304.97 -0.836928 3.88692 0
M  V30 3240 N 305.967 -1.56429 0.191757 0
M  V30 3241 C 307.244 -1.89224 -0.495332 0
M  V30 3242 C 307.624 -1.10478 -1.79883 0
M  V30 3243 O 306.972 -0.204852 -2.2758 0
M  V30 3244 C 307.182 -3.41548 -0.717367 0
M  V30 3245 C 308.53 -4.11711 -1.03823 0
M  V30 3246 O 309.554 -3.4698 -0.805204 0
M  V30 3247 O 308.413 -5.2611 -1.47887 0
M  V30 3248 H 305.507 -0.785788 -0.25781 0
M  V30 3249 H 308.053 -1.68111 0.231721 0
M  V30 3250 H 306.825 -3.90772 0.203287 0
M  V30 3251 H 306.448 -3.68342 -1.497 0
M  V30 3252 N 307.445 0.0818655 -1.57387 0
M  V30 3253 C 308.693 0.781368 -1.86384 0
M  V30 3254 C 309.014 1.78618 -0.782342 0
M  V30 3255 O 308.284 1.94976 0.190061 0
M  V30 3256 H 306.864 0.291562 -0.687751 0
M  V30 3257 H 309.526 0.060348 -1.94807 0
M  V30 3258 H 308.622 1.3038 -2.83562 0
M  V30 3259 N 308.923 1.53595 0.353017 0
M  V30 3260 C 310.148 1.7462 1.11904 0
M  V30 3261 C 310.573 0.479721 1.8188 0
M  V30 3262 O 309.931 -0.567066 1.72204 0
M  V30 3263 C 309.979 2.92029 2.11545 0
M  V30 3264 O 309.083 2.61516 3.18878 0
M  V30 3265 H 308.424 0.579531 0.324099 0
M  V30 3266 H 310.954 2.00525 0.406301 0
M  V30 3267 H 310.964 3.18551 2.5493 0
M  V30 3268 H 309.639 3.83888 1.60008 0
M  V30 3269 H 308.216 2.45852 2.80377 0
M  V30 3270 N 310.401 -0.613514 1.45168 0
M  V30 3271 C 311.647 -1.37471 1.49096 0
M  V30 3272 C 311.98 -1.93765 0.129901 0
M  V30 3273 O 311.255 -1.74707 -0.854858 0
M  V30 3274 C 311.538 -2.52701 2.56542 0
M  V30 3275 C 311.391 -2.01643 4.0207 0
M  V30 3276 C 312.71 -3.54849 2.60327 0
M  V30 3277 H 309.829 -0.498502 0.54283 0
M  V30 3278 H 312.471 -0.692125 1.76945 0
M  V30 3279 H 310.621 -3.10931 2.32926 0
M  V30 3280 H 312.293 -1.48108 4.36877 0
M  V30 3281 H 310.536 -1.32688 4.13009 0
M  V30 3282 H 311.207 -2.84681 4.72928 0
M  V30 3283 H 313.683 -3.0645 2.81474 0
M  V30 3284 H 312.559 -4.32973 3.37381 0
M  V30 3285 H 312.82 -4.10079 1.6519 0
M  V30 3286 N 311.879 -1.3236 -0.855495 0
M  V30 3287 C 312.826 -1.21225 -1.964 0
M  V30 3288 C 313.796 -0.0946204 -1.6583 0
M  V30 3289 O 314.981 -0.27002 -1.8888 0
M  V30 3290 C 312.121 -0.940419 -3.32039 0
M  V30 3291 C 311.234 -2.14276 -3.75113 0
M  V30 3292 C 310.369 -1.80648 -4.9954 0
M  V30 3293 C 309.408 -2.97208 -5.35102 0
M  V30 3294 N 308.545 -2.63678 -6.50706 0
M  V30 3295 H 313.385 -2.16042 -2.05255 0
M  V30 3296 H 310.922 -1.07451 -1.00463 0
M  V30 3297 H 312.88 -0.763311 -4.10158 0
M  V30 3298 H 311.51 -0.0290413 -3.22787 0
M  V30 3299 H 310.562 -2.43017 -2.92655 0
M  V30 3300 H 311.874 -3.01468 -3.97389 0
M  V30 3301 H 311.028 -1.59484 -5.85363 0
M  V30 3302 H 309.767 -0.906678 -4.79198 0
M  V30 3303 H 308.772 -3.19004 -4.47791 0
M  V30 3304 H 309.997 -3.87918 -5.57401 0
M  V30 3305 H 307.943 -1.76238 -6.31883 0
M  V30 3306 H 307.86 -3.444 -6.72997 0
M  V30 3307 H 309.128 -2.45942 -7.39684 0
M  V30 3308 N 313.357 1.07166 -1.15556 0
M  V30 3309 C 314.605 1.79443 -0.929764 0
M  V30 3310 C 314.926 1.87246 0.544414 0
M  V30 3311 O 314.196 1.37473 1.39564 0
M  V30 3312 H 312.776 0.664625 -0.341003 0
M  V30 3313 H 315.438 1.29499 -1.45657 0
M  V30 3314 H 314.534 2.81832 -1.34079 0
M  V30 3315 N 314.835 0.952656 1.25548 0
M  V30 3316 C 316.084 0.602053 1.92505 0
M  V30 3317 C 316.397 -0.864663 1.75451 0
M  V30 3318 O 317.603 -1.32514 2.36965 0
M  V30 3319 C 316.059 1.02607 3.44963 0
M  V30 3320 C 315.667 2.51519 3.70732 0
M  V30 3321 C 317.411 0.747905 4.1786 0
M  V30 3322 C 315.318 2.87732 5.16686 0
M  V30 3323 H 314.248 0.22146 0.720744 0
M  V30 3324 H 316.899 1.15684 1.42441 0
M  V30 3325 H 315.281 0.399712 3.93978 0
M  V30 3326 H 316.455 3.19157 3.32378 0
M  V30 3327 H 314.77 2.76786 3.11092 0
M  V30 3328 H 317.367 0.994647 5.25367 0
M  V30 3329 H 317.71 -0.315629 4.15102 0
M  V30 3330 H 318.243 1.33452 3.74747 0
M  V30 3331 H 314.982 3.93095 5.24554 0
M  V30 3332 H 314.502 2.24765 5.56094 0
M  V30 3333 H 316.181 2.76817 5.84792 0
M  V30 3334 N 316.313 -1.40141 0.720998 0
M  V30 3335 C 317.276 -2.29058 0.0805834 0
M  V30 3336 C 318.276 -1.45632 -0.681758 0
M  V30 3337 O 319.466 -1.6648 -0.512856 0
M  V30 3338 C 316.598 -3.28925 -0.895593 0
M  V30 3339 H 317.791 -2.87191 0.863793 0
M  V30 3340 H 315.344 -1.48553 0.485975 0
M  V30 3341 H 316.079 -2.75822 -1.70566 0
M  V30 3342 H 315.864 -3.90519 -0.351766 0
M  V30 3343 H 317.354 -3.95494 -1.34069 0
M  V30 3344 N 317.792 -0.46758 -1.50504 0
M  V30 3345 C 319.02 0.0864133 -2.06719 0
M  V30 3346 C 319.435 1.33819 -1.33184 0
M  V30 3347 O 318.792 1.78061 -0.400083 0
M  V30 3348 C 318.843 0.378079 -3.59517 0
M  V30 3349 O 318.564 -0.824044 -4.3028 0
M  V30 3350 C 320.065 0.979426 -4.32345 0
M  V30 3351 H 317.285 -0.00551697 -0.670977 0
M  V30 3352 H 319.829 -0.655354 -1.93715 0
M  V30 3353 H 317.984 1.06977 -3.72337 0
M  V30 3354 H 318.398 -0.566518 -5.21432 0
M  V30 3355 H 319.872 1.1333 -5.40241 0
M  V30 3356 H 320.349 1.9686 -3.9261 0
M  V30 3357 H 320.955 0.326216 -4.24047 0
M  V30 3358 N 319.27 1.56325 -0.20005 0
M  V30 3359 C 320.218 2.20666 0.735482 0
M  V30 3360 C 321.212 1.17934 1.21605 0
M  V30 3361 O 322.418 1.36068 1.17837 0
M  V30 3362 H 318.793 0.70725 0.255542 0
M  V30 3363 H 320.764 2.9792 0.169166 0
M  V30 3364 C 319.513 2.88391 1.94232 0
M  V30 3365 H 318.836 3.67185 1.58161 0
M  V30 3366 H 320.276 3.3684 2.57517 0
M  V30 3367 C 318.735 1.89692 2.78421 0
M  V30 3368 O 319.265 1.40032 3.76502 0
M  V30 3369 N 317.471 1.57813 2.44015 0
M  V30 3370 H 317.018 1.9839 1.64314 0
M  V30 3371 H 316.976 0.920325 3.00628 0
M  V30 3372 N 320.748 -0.0735177 1.57428 0
M  V30 3373 C 322.025 -0.805903 1.78226 0
M  V30 3374 C 322.405 -1.95874 0.787189 0
M  V30 3375 O 321.753 -2.2779 -0.180029 0
M  V30 3376 C 321.963 -1.28045 3.24662 0
M  V30 3377 C 323.311 -1.71453 3.88444 0
M  V30 3378 O 324.335 -1.37616 3.28543 0
M  V30 3379 O 323.194 -2.34093 4.93825 0
M  V30 3380 H 320.288 -0.386041 0.73137 0
M  V30 3381 H 322.834 -0.0537269 1.69615 0
M  V30 3382 H 321.606 -0.455476 3.8864 0
M  V30 3383 H 321.229 -2.094 3.37991 0
M  V30 3384 N 322.226 -1.5378 -0.344866 0
M  V30 3385 C 323.472 -1.71216 -1.08687 0
M  V30 3386 C 323.805 -0.473281 -1.88345 0
M  V30 3387 O 323.08 0.52968 -1.87149 0
M  V30 3388 C 323.363 -2.97486 -2.02914 0
M  V30 3389 C 323.216 -4.31579 -1.26727 0
M  V30 3390 C 324.535 -3.19422 -3.0275 0
M  V30 3391 H 321.654 -0.62301 -0.393735 0
M  V30 3392 H 324.296 -1.8645 -0.365563 0
M  V30 3393 H 322.446 -2.84629 -2.64421 0
M  V30 3394 H 324.118 -4.56284 -0.67845 0
M  V30 3395 H 322.361 -4.30049 -0.569273 0
M  V30 3396 H 323.032 -5.16106 -1.95803 0
M  V30 3397 H 325.508 -3.316 -2.51357 0
M  V30 3398 H 324.384 -4.09169 -3.65885 0
M  V30 3399 H 324.645 -2.35656 -3.74057 0
M  V30 3400 N 323.704 0.605807 -1.45491 0
M  V30 3401 C 324.952 1.36207 -1.49305 0
M  V30 3402 C 325.273 1.94519 -0.136863 0
M  V30 3403 O 324.543 1.77261 0.833983 0
M  V30 3404 H 323.123 0.50565 -0.549843 0
M  V30 3405 H 325.785 0.711239 -1.81459 0
M  V30 3406 H 324.881 2.18058 -2.23287 0
M  V30 3407 N 325.182 1.32811 0.848464 0
M  V30 3408 C 326.431 1.23075 1.59798 0
M  V30 3409 C 326.744 -0.204419 1.94529 0
M  V30 3410 O 327.95 -0.423701 2.68173 0
M  V30 3411 C 326.406 2.15594 2.88179 0
M  V30 3412 C 326.014 3.64228 2.60849 0
M  V30 3413 C 327.758 2.14709 3.66197 0
M  V30 3414 C 325.665 4.48689 3.85269 0
M  V30 3415 H 324.595 0.457091 0.599653 0
M  V30 3416 H 327.246 1.57813 0.936342 0
M  V30 3417 H 325.628 1.73778 3.55833 0
M  V30 3418 H 326.802 4.14424 2.01467 0
M  V30 3419 H 325.117 3.67306 1.96151 0
M  V30 3420 H 327.714 2.75046 4.58534 0
M  V30 3421 H 328.057 1.13966 4.00397 0
M  V30 3422 H 328.59 2.54837 3.05455 0
M  V30 3423 H 325.329 5.5027 3.56207 0
M  V30 3424 H 324.849 4.03241 4.44024 0
M  V30 3425 H 326.528 4.62006 4.52946 0
M  V30 3426 N 326.66 -1.06551 1.16123 0
M  V30 3427 C 327.592 -2.13908 0.823171 0
M  V30 3428 C 328.605 -1.61926 -0.16843 0
M  V30 3429 O 329.794 -1.78412 0.055962 0
M  V30 3430 C 326.894 -3.38283 0.204424 0
M  V30 3431 C 326.067 -4.19589 1.23548 0
M  V30 3432 C 325.126 -5.2233 0.637011 0
M  V30 3433 O 324.152 -5.54034 1.30516 0
M  V30 3434 N 325.354 -5.77621 -0.577474 0
M  V30 3435 H 328.119 -2.43508 1.74711 0
M  V30 3436 H 325.68 -1.2253 1.05821 0
M  V30 3437 H 327.672 -4.0416 -0.208909 0
M  V30 3438 H 326.242 -3.06329 -0.623012 0
M  V30 3439 H 325.462 -3.49406 1.82507 0
M  V30 3440 H 326.75 -4.70718 1.93137 0
M  V30 3441 H 326.148 -5.54125 -1.13853 0
M  V30 3442 H 324.705 -6.45087 -0.933053 0
M  V30 3443 N 328.138 -0.959301 -1.25041 0
M  V30 3444 C 329.085 -0.482057 -2.2571 0
M  V30 3445 C 330.055 0.467939 -1.59372 0
M  V30 3446 O 331.24 0.380159 -1.86974 0
M  V30 3447 C 328.38 0.229623 -3.44335 0
M  V30 3448 C 327.493 -0.758156 -4.25295 0
M  V30 3449 C 326.628 -0.0234403 -5.31195 0
M  V30 3450 C 325.667 -1.00184 -6.03846 0
M  V30 3451 N 324.804 -0.29769 -7.01469 0
M  V30 3452 H 329.644 -1.34538 -2.65901 0
M  V30 3453 H 327.181 -0.674592 -1.3072 0
M  V30 3454 H 329.139 0.658856 -4.11965 0
M  V30 3455 H 327.769 1.05696 -3.05005 0
M  V30 3456 H 326.821 -1.30586 -3.57284 0
M  V30 3457 H 328.133 -1.50458 -4.75567 0
M  V30 3458 H 327.287 0.464201 -6.04922 0
M  V30 3459 H 326.026 0.755741 -4.81809 0
M  V30 3460 H 325.031 -1.50044 -5.2893 0
M  V30 3461 H 326.256 -1.78133 -6.55321 0
M  V30 3462 H 324.202 0.462668 -6.54366 0
M  V30 3463 H 324.119 -0.983128 -7.4958 0
M  V30 3464 H 325.387 0.16826 -7.79318 0
M  V30 3465 N 329.616 1.39756 -0.72842 0
M  V30 3466 C 330.893 1.94574 -0.200079 0
M  V30 3467 C 331.273 1.66569 1.29684 0
M  V30 3468 O 330.621 0.990326 2.05924 0
M  V30 3469 C 330.831 3.45004 -0.526608 0
M  V30 3470 C 332.179 4.21965 -0.472318 0
M  V30 3471 O 333.203 3.53173 -0.463413 0
M  V30 3472 O 332.062 5.44552 -0.461075 0
M  V30 3473 H 329.156 0.826289 -0.0342851 0
M  V30 3474 H 331.702 1.49293 -0.806829 0
M  V30 3475 H 330.474 3.58796 -1.56144 0
M  V30 3476 H 330.097 3.97449 0.109449 0
M  V30 3477 N 331.094 0.475555 1.50254 0
M  V30 3478 C 332.342 -0.077738 2.0195 0
M  V30 3479 C 332.663 -1.39813 1.35931 0
M  V30 3480 O 331.933 -1.89249 0.506123 0
M  V30 3481 H 330.513 -0.031719 0.746326 0
M  V30 3482 H 333.175 0.626995 1.84539 0
M  V30 3483 H 332.271 -0.225995 3.11281 0
M  V30 3484 N 332.573 -1.56217 0.208337 0
M  V30 3485 C 333.536 -2.18455 -0.693557 0
M  V30 3486 C 334.536 -1.14268 -1.13135 0
M  V30 3487 O 335.726 -1.39577 -1.0423 0
M  V30 3488 C 332.858 -2.79727 -1.94848 0
M  V30 3489 H 334.051 -2.99519 -0.15114 0
M  V30 3490 H 331.604 -1.56245 -0.041287 0
M  V30 3491 H 332.339 -2.02497 -2.53309 0
M  V30 3492 H 332.124 -3.56009 -1.64316 0
M  V30 3493 H 333.614 -3.27475 -2.59133 0
M  V30 3494 N 334.051 0.0651679 -1.57465 0
M  V30 3495 C 335.462 0.616213 -1.76238 0
M  V30 3496 C 335.813 1.7756 -0.834689 0
M  V30 3497 O 334.938 2.1639 -0.0204156 0
M  V30 3498 C 335.533 1.12462 -3.1959 0
M  V30 3499 C 334.092 1.62147 -3.39684 0
M  V30 3500 C 333.239 0.543739 -2.71917 0
M  V30 3501 H 336.19 -0.161022 -1.57881 0
M  V30 3502 H 336.211 1.99324 -3.24114 0
M  V30 3503 H 335.723 0.280592 -3.87084 0
M  V30 3504 H 333.824 2.48854 -2.77313 0
M  V30 3505 H 333.937 1.69385 -4.48158 0
M  V30 3506 H 332.301 0.990352 -2.34657 0
M  V30 3507 H 333.084 -0.290216 -3.42071 0
M  V30 3508 N 335.529 1.53961 0.336706 0
M  V30 3509 C 336.476 1.82428 1.41381 0
M  V30 3510 C 337.446 0.670444 1.51968 0
M  V30 3511 O 338.631 0.915565 1.67398 0
M  V30 3512 C 335.771 2.04564 2.77934 0
M  V30 3513 C 334.884 3.32267 2.76084 0
M  V30 3514 C 334.019 3.44434 4.04399 0
M  V30 3515 C 333.058 4.66061 3.96804 0
M  V30 3516 N 332.195 4.75224 5.16823 0
M  V30 3517 H 337.035 2.74324 1.16405 0
M  V30 3518 H 334.572 1.35869 0.563752 0
M  V30 3519 H 336.53 2.15388 3.57301 0
M  V30 3520 H 335.16 1.15974 3.01247 0
M  V30 3521 H 334.212 3.3025 1.88784 0
M  V30 3522 H 335.524 4.21733 2.66351 0
M  V30 3523 H 334.678 3.54728 4.92192 0
M  V30 3524 H 333.417 2.53037 4.16921 0
M  V30 3525 H 332.422 4.55838 3.07396 0
M  V30 3526 H 333.647 5.58829 3.85858 0
M  V30 3527 H 331.593 3.86739 5.29876 0
M  V30 3528 H 331.51 5.58636 5.09374 0
M  V30 3529 H 332.778 4.89835 6.06367 0
M  V30 3530 N 337.007 -0.598083 1.45811 0
M  V30 3531 C 337.97 -1.69018 1.54808 0
M  V30 3532 C 338.97 -1.55037 0.426652 0
M  V30 3533 O 340.16 -1.59932 0.690456 0
M  V30 3534 C 337.292 -3.0835 1.45371 0
M  V30 3535 H 338.485 -1.62403 2.52121 0
M  V30 3536 H 336.038 -0.814626 1.33392 0
M  V30 3537 H 336.773 -3.20534 0.492793 0
M  V30 3538 H 336.558 -3.19907 2.26721 0
M  V30 3539 H 338.048 -3.8788 1.54721 0
M  V30 3540 N 338.485 -1.33259 -0.841409 0
M  V30 3541 C 339.713 -1.27605 -1.62864 0
M  V30 3542 C 340.128 0.153507 -1.88175 0
M  V30 3543 O 339.485 1.09485 -1.46011 0
M  V30 3544 C 339.536 -2.04596 -2.98031 0
M  V30 3545 O 339.257 -3.41975 -2.73834 0
M  V30 3546 C 340.758 -2.06122 -3.92465 0
M  V30 3547 H 337.978 -0.439718 -0.506842 0
M  V30 3548 H 340.522 -1.75591 -1.04824 0
M  V30 3549 H 338.677 -1.60299 -3.5268 0
M  V30 3550 H 339.091 -3.81549 -3.59889 0
M  V30 3551 H 340.565 -2.64451 -4.84531 0
M  V30 3552 H 341.042 -1.05083 -4.26444 0
M  V30 3553 H 341.648 -2.50427 -3.43753 0
M  V30 3554 N 339.963 1.05934 -1.16686 0
M  V30 3555 C 341.21 1.788 -0.950622 0
M  V30 3556 C 341.538 1.87384 0.521305 0
M  V30 3557 O 340.793 1.36438 1.40297 0
M  V30 3558 C 341.092 3.23105 -1.52767 0
M  V30 3559 C 340.758 3.34594 -3.02254 0
M  V30 3560 C 339.42 3.37437 -3.43059 0
M  V30 3561 C 341.772 3.36219 -3.98254 0
M  V30 3562 C 339.1 3.39525 -4.78477 0
M  V30 3563 C 341.452 3.39845 -5.33562 0
M  V30 3564 C 340.116 3.40971 -5.73842 0
M  V30 3565 H 339.386 0.654275 -0.347857 0
M  V30 3566 H 342.033 1.24555 -1.45459 0
M  V30 3567 H 340.338 3.80227 -0.94524 0
M  V30 3568 H 342.035 3.7809 -1.336 0
M  V30 3569 H 338.625 3.3309 -2.6972 0
M  V30 3570 H 342.809 3.33231 -3.67792 0
M  V30 3571 H 338.065 3.38703 -5.09009 0
M  V30 3572 H 342.239 3.4005 -6.07733 0
M  V30 3573 H 339.866 3.42342 -6.78753 0
M  V30 3574 N 341.441 0.965919 1.2453 0
M  V30 3575 C 342.351 0.502154 2.29163 0
M  V30 3576 C 343.367 -0.436017 1.68448 0
M  V30 3577 O 344.543 -0.309497 1.99008 0
M  V30 3578 C 341.608 -0.201956 3.46111 0
M  V30 3579 C 340.669 0.775821 4.22232 0
M  V30 3580 C 339.902 0.105217 5.33596 0
M  V30 3581 O 340.125 -1.10683 5.59558 0
M  V30 3582 O 339.059 0.796475 5.96607 0
M  V30 3583 H 342.885 1.37194 2.70946 0
M  V30 3584 H 340.47 0.732875 1.30189 0
M  V30 3585 H 342.352 -0.597564 4.17142 0
M  V30 3586 H 341.027 -1.04673 3.06309 0
M  V30 3587 H 339.934 1.22185 3.53584 0
M  V30 3588 H 341.267 1.58896 4.65846 0
M  V30 3589 N 342.919 -1.39368 0.735821 0
M  V30 3590 C 344.335 -1.54204 0.411492 0
M  V30 3591 C 344.535 -1.70268 -1.07755 0
M  V30 3592 O 343.591 -1.70364 -1.86366 0
M  V30 3593 C 344.904 -2.75925 1.19523 0
M  V30 3594 C 346.452 -2.89761 1.18354 0
M  V30 3595 C 346.927 -4.14421 1.94986 0
M  V30 3596 N 348.418 -4.21462 1.92156 0
M  V30 3597 C 349.153 -5.16871 2.48258 0
M  V30 3598 N 348.649 -6.18063 3.13001 0
M  V30 3599 N 350.442 -5.09093 2.38287 0
M  V30 3600 H 342.593 -1.27189 1.70108 0
M  V30 3601 H 344.856 -0.616517 0.720147 0
M  V30 3602 H 344.562 -2.70401 2.24892 0
M  V30 3603 H 344.436 -3.68614 0.800222 0
M  V30 3604 H 346.823 -2.94777 0.137975 0
M  V30 3605 H 346.904 -1.98133 1.61793 0
M  V30 3606 H 346.548 -4.10166 2.99543 0
M  V30 3607 H 346.478 -5.05095 1.48953 0
M  V30 3608 H 348.969 -3.48979 1.44991 0
M  V30 3609 H 349.282 -6.87326 3.53275 0
M  V30 3610 H 347.627 -6.18448 3.17091 0
M  V30 3611 H 350.818 -4.28973 1.8735 0
M  V30 3612 H 350.991 -5.83272 2.82308 0
M  V30 3613 N 344.397 -0.483516 -1.5 0
M  V30 3614 C 345.645 0.067027 -2.01989 0
M  V30 3615 C 345.966 1.3909 -1.36671 0
M  V30 3616 O 345.236 1.88978 -0.516152 0
M  V30 3617 H 343.816 0.0277606 -0.746484 0
M  V30 3618 H 346.478 -0.636773 -1.84204 0
M  V30 3619 H 345.574 0.209484 -3.11396 0
M  V30 3620 N 345.875 1.56104 -0.216619 0
M  V30 3621 C 346.805 2.23063 0.690296 0
M  V30 3622 C 347.786 1.20072 1.20485 0
M  V30 3623 O 348.971 1.48643 1.24976 0
M  V30 3624 C 346.101 2.90672 1.90072 0
M  V30 3625 C 345.055 4.00092 1.5202 0
M  V30 3626 C 344.381 4.54972 2.80899 0
M  V30 3627 C 345.681 5.17398 0.71391 0
M  V30 3628 H 347.375 2.99109 0.132038 0
M  V30 3629 H 344.921 1.43866 0.0620664 0
M  V30 3630 H 346.874 3.36204 2.54057 0
M  V30 3631 H 345.598 2.12066 2.48386 0
M  V30 3632 H 344.257 3.55283 0.903839 0
M  V30 3633 H 343.905 3.73102 3.37348 0
M  V30 3634 H 343.605 5.28817 2.56176 0
M  V30 3635 H 345.129 5.0322 3.45836 0
M  V30 3636 H 346.543 5.59342 1.25735 0
M  V30 3637 H 344.94 5.97444 0.563951 0
M  V30 3638 H 346.01 4.84088 -0.280527 0
M  V30 3639 N 347.353 -0.0568162 1.57498 0
M  V30 3640 C 348.263 -1.08346 2.08083 0
M  V30 3641 C 349.279 -1.41439 1.01346 0
M  V30 3642 O 350.455 -1.51316 1.32912 0
M  V30 3643 C 347.52 -2.37352 2.52715 0
M  V30 3644 C 346.581 -2.11093 3.73816 0
M  V30 3645 C 345.814 -3.33949 4.1631 0
M  V30 3646 O 346.037 -4.43622 3.58547 0
M  V30 3647 O 344.971 -3.21279 5.08983 0
M  V30 3648 H 348.797 -0.683667 2.95905 0
M  V30 3649 H 346.382 -0.271965 1.46904 0
M  V30 3650 H 348.264 -3.13246 2.81877 0
M  V30 3651 H 346.939 -2.76681 1.68016 0
M  V30 3652 H 345.846 -1.32856 3.49714 0
M  V30 3653 H 347.179 -1.76637 4.59413 0
M  V30 3654 N 348.832 -1.54138 -0.328536 0
M  V30 3655 C 349.762 -1.86167 -1.40939 0
M  V30 3656 C 350.743 -0.718044 -1.54202 0
M  V30 3657 O 351.928 -0.971328 -1.68163 0
M  V30 3658 C 349.058 -2.08461 -2.77779 0
M  V30 3659 C 348.012 -3.24299 -2.7931 0
M  V30 3660 C 347.338 -3.31955 -4.19178 0
M  V30 3661 C 348.638 -4.62065 -2.43502 0
M  V30 3662 H 350.332 -2.76689 -1.14383 0
M  V30 3663 H 347.878 -1.33132 -0.548806 0
M  V30 3664 H 349.831 -2.29453 -3.53454 0
M  V30 3665 H 348.555 -1.14684 -3.05802 0
M  V30 3666 H 347.214 -3.03187 -2.0609 0
M  V30 3667 H 346.862 -2.35745 -4.44335 0
M  V30 3668 H 346.562 -4.09805 -4.2111 0
M  V30 3669 H 348.086 -3.55175 -4.96672 0
M  V30 3670 H 349.5 -4.8297 -3.08889 0
M  V30 3671 H 347.897 -5.42429 -2.56693 0
M  V30 3672 H 348.967 -4.64652 -1.38659 0
M  V30 3673 N 350.31 0.590341 -1.46126 0
M  V30 3674 C 351.26 1.69466 -1.5253 0
M  V30 3675 C 352.244 1.56179 -0.386917 0
M  V30 3676 O 353.436 1.65223 -0.634858 0
M  V30 3677 C 350.565 3.08245 -1.5113 0
M  V30 3678 C 349.651 3.26856 -2.70233 0
M  V30 3679 N 350.042 3.15657 -3.95214 0
M  V30 3680 C 348.34 3.57775 -2.66296 0
M  V30 3681 C 349.041 3.36066 -4.74799 0
M  V30 3682 N 348.017 3.60865 -4.06543 0
M  V30 3683 H 351.819 1.59326 -2.46966 0
M  V30 3684 H 349.333 0.79414 -1.41659 0
M  V30 3685 H 351.33 3.87492 -1.53804 0
M  V30 3686 H 349.99 3.19521 -0.577636 0
M  V30 3687 H 351.001 2.93686 -4.26578 0
M  V30 3688 H 347.678 3.75782 -1.81918 0
M  V30 3689 H 349.068 3.32655 -5.83772 0
M  V30 3690 N 351.788 1.33704 0.83433 0
M  V30 3691 C 352.751 1.24244 1.92603 0
M  V30 3692 C 353.751 0.160383 1.59998 0
M  V30 3693 O 354.941 0.412228 1.69252 0
M  V30 3694 C 352.073 0.91555 3.28376 0
M  V30 3695 H 353.266 2.21287 2.02416 0
M  V30 3696 H 350.819 1.17827 1.02696 0
M  V30 3697 H 351.554 -0.0521886 3.24258 0
M  V30 3698 H 351.339 1.69811 3.53422 0
M  V30 3699 H 352.829 0.874231 4.08347 0
M  V30 3700 N 353.266 -1.05314 1.17247 0
M  V30 3701 C 354.213 -2.13031 0.888058 0
M  V30 3702 C 355.183 -1.65253 -0.167537 0
M  V30 3703 O 356.368 -1.90775 -0.0305974 0
M  V30 3704 C 353.508 -3.42702 0.406147 0
M  V30 3705 C 352.621 -4.04161 1.52572 0
M  V30 3706 C 351.756 -5.21744 0.997808 0
M  V30 3707 C 350.795 -5.75207 2.09291 0
M  V30 3708 N 349.932 -6.84094 1.57986 0
M  V30 3709 H 354.772 -2.36698 1.81048 0
M  V30 3710 H 352.309 -1.16121 0.903013 0
M  V30 3711 H 354.267 -4.17059 0.108305 0
M  V30 3712 H 352.897 -3.19222 -0.479313 0
M  V30 3713 H 351.949 -3.27253 1.93931 0
M  V30 3714 H 353.261 -4.39881 2.35172 0
M  V30 3715 H 352.415 -6.03168 0.653739 0
M  V30 3716 H 351.154 -4.87495 0.141232 0
M  V30 3717 H 350.159 -4.92414 2.44557 0
M  V30 3718 H 351.384 -6.11505 2.95362 0
M  V30 3719 H 349.33 -6.51745 0.74598 0
M  V30 3720 H 349.247 -7.18811 2.34195 0
M  V30 3721 H 350.515 -7.69172 1.26468 0
M  V30 3722 N 354.744 -0.972509 -1.24016 0
M  V30 3723 C 355.99 -0.637978 -1.92504 0
M  V30 3724 C 356.323 0.825383 -1.75787 0
M  V30 3725 O 355.598 1.59442 -1.11393 0
M  V30 3726 C 355.881 -1.01942 -3.45369 0
M  V30 3727 C 355.734 -2.53983 -3.71231 0
M  V30 3728 C 357.053 -0.55751 -4.36555 0
M  V30 3729 H 354.172 -0.233248 -0.699117 0
M  V30 3730 H 356.814 -1.21238 -1.46292 0
M  V30 3731 H 354.964 -0.530656 -3.84859 0
M  V30 3732 H 356.636 -3.10374 -3.41271 0
M  V30 3733 H 354.879 -2.96968 -3.16216 0
M  V30 3734 H 355.55 -2.75723 -4.78206 0
M  V30 3735 H 358.026 -0.977029 -4.04467 0
M  V30 3736 H 356.902 -0.85292 -5.42233 0
M  V30 3737 H 357.163 0.542328 -4.38761 0
M  V30 3738 N 356.222 1.38976 -0.743202 0
M  V30 3739 C 357.45 2.04636 -0.30525 0
M  V30 3740 C 357.865 1.56044 1.06281 0
M  V30 3741 O 357.222 0.728921 1.67311 0
M  V30 3742 C 357.273 3.60193 -0.307177 0
M  V30 3743 O 356.994 4.06998 -1.62124 0
M  V30 3744 C 358.495 4.4306 0.145928 0
M  V30 3745 H 355.715 0.65788 -0.132041 0
M  V30 3746 H 358.259 1.77866 -1.00915 0
M  V30 3747 H 356.414 3.85835 0.347898 0
M  V30 3748 H 356.828 5.01371 -1.54036 0
M  V30 3749 H 358.302 5.51921 0.0934183 0
M  V30 3750 H 358.779 4.22706 1.19231 0
M  V30 3751 H 359.385 4.22584 -0.479886 0
M  V30 3752 N 357.7 0.491464 1.49741 0
M  V30 3753 C 358.949 -0.0582189 2.01616 0
M  V30 3754 C 359.262 -1.38927 1.3769 0
M  V30 3755 O 360.468 -2.02509 1.80838 0
M  V30 3756 C 358.924 -0.154235 3.59569 0
M  V30 3757 C 358.532 1.1696 4.32463 0
M  V30 3758 C 360.276 -0.65479 4.1942 0
M  V30 3759 C 358.183 1.03627 5.8225 0
M  V30 3760 H 357.113 -0.0255317 0.753568 0
M  V30 3761 H 359.764 0.629445 1.72367 0
M  V30 3762 H 358.146 -0.906138 3.85493 0
M  V30 3763 H 359.32 1.93405 4.18248 0
M  V30 3764 H 357.635 1.60285 3.84315 0
M  V30 3765 H 360.232 -0.771903 5.29099 0
M  V30 3766 H 360.575 -1.65127 3.8215 0
M  V30 3767 H 361.108 0.040304 3.9778 0
M  V30 3768 H 357.847 2.00672 6.24028 0
M  V30 3769 H 357.367 0.312546 5.98985 0
M  V30 3770 H 359.046 0.711114 6.4308 0
M  V30 3771 N 359.178 -1.55987 0.224894 0
M  V30 3772 C 360.425 -1.9839 -0.4059 0
M  V30 3773 C 360.753 -1.11261 -1.59535 0
M  V30 3774 O 360.008 -0.158314 -1.95059 0
M  V30 3775 C 360.307 -3.46394 -0.880106 0
M  V30 3776 C 359.973 -4.5046 0.19918 0
M  V30 3777 C 358.635 -4.7864 0.495661 0
M  V30 3778 C 360.987 -5.12855 0.928939 0
M  V30 3779 C 358.315 -5.66497 1.52636 0
M  V30 3780 C 360.667 -6.01828 1.949 0
M  V30 3781 C 359.331 -6.28351 2.25236 0
M  V30 3782 H 358.601 -0.725961 -0.148529 0
M  V30 3783 H 361.248 -1.88668 0.328113 0
M  V30 3784 H 359.553 -3.53337 -1.69294 0
M  V30 3785 H 361.25 -3.76577 -1.37808 0
M  V30 3786 H 357.84 -4.28579 -0.0420526 0
M  V30 3787 H 362.024 -4.9115 0.713129 0
M  V30 3788 H 357.28 -5.8531 1.76698 0
M  V30 3789 H 361.454 -6.49225 2.51951 0
M  V30 3790 H 359.081 -6.96226 3.05244 0
M  V30 3791 N 360.656 0.0484629 -1.57525 0
M  V30 3792 C 361.619 1.03956 -2.04269 0
M  V30 3793 C 362.619 1.30211 -0.943496 0
M  V30 3794 O 363.809 1.25539 -1.20771 0
M  V30 3795 C 360.941 2.37742 -2.44319 0
M  V30 3796 H 362.134 0.636182 -2.93075 0
M  V30 3797 H 359.687 0.294811 -1.53494 0
M  V30 3798 H 360.422 2.82866 -1.5861 0
M  V30 3799 H 360.207 2.20021 -3.24551 0
M  V30 3800 H 361.697 3.08936 -2.80978 0
M  V30 3801 N 362.134 1.5431 0.320358 0
M  V30 3802 C 363.044 1.86946 1.41734 0
M  V30 3803 C 364.06 0.761689 1.56443 0
M  V30 3804 O 365.236 1.05629 1.71477 0
M  V30 3805 C 362.301 2.09293 2.76401 0
M  V30 3806 C 361.362 3.33082 2.70841 0
M  V30 3807 C 360.595 3.54353 3.99086 0
M  V30 3808 O 360.818 2.79002 4.97508 0
M  V30 3809 O 359.752 4.47838 4.0215 0
M  V30 3810 H 363.578 2.80232 1.17062 0
M  V30 3811 H 361.163 1.40255 0.514673 0
M  V30 3812 H 363.045 2.25303 3.56113 0
M  V30 3813 H 361.72 1.19194 3.00956 0
M  V30 3814 H 360.627 3.22454 1.89668 0
M  V30 3815 H 361.96 4.23249 2.5124 0
M  V30 3816 N 363.613 -0.582584 1.46437 0
M  V30 3817 C 364.861 -1.33814 1.51453 0
M  V30 3818 C 365.182 -1.94277 0.167792 0
M  V30 3819 O 364.452 -1.78566 -0.805677 0
M  V30 3820 H 363.032 -0.496838 0.557818 0
M  V30 3821 H 365.694 -0.682281 1.82568 0
M  V30 3822 H 364.79 -2.14479 2.26728 0
M  V30 3823 N 365.091 -1.34144 -0.827227 0
M  V30 3824 C 366.331 -1.27603 -1.59677 0
M  V30 3825 C 366.695 0.153035 -1.91389 0
M  V30 3826 O 367.896 0.342566 -2.66608 0
M  V30 3827 C 366.167 -2.13784 -2.86411 0
M  V30 3828 S 367.726 -2.24552 -3.76991 0
M  V30 3829 H 364.544 -0.453789 -0.547354 0
M  V30 3830 H 367.146 -1.69309 -0.977479 0
M  V30 3831 H 365.85 -3.16627 -2.61104 0
M  V30 3832 H 365.381 -1.72959 -3.5334 0
M  V30 3833 H 367.396 -1.41514 -4.75593 0
M  V30 3834 N 366.569 1.04691 -1.17803 0
M  V30 3835 C 367.519 2.10856 -0.867391 0
M  V30 3836 C 368.503 1.601 0.160206 0
M  V30 3837 O 369.695 1.76948 -0.042947 0
M  V30 3838 C 366.824 3.411 -0.388012 0
M  V30 3839 C 365.91 3.9864 -1.44732 0
M  V30 3840 N 366.301 4.30075 -2.66212 0
M  V30 3841 C 364.599 4.26439 -1.30637 0
M  V30 3842 C 365.3 4.76033 -3.34317 0
M  V30 3843 N 364.276 4.76462 -2.61696 0
M  V30 3844 H 368.078 2.33029 -1.79094 0
M  V30 3845 H 365.592 1.22386 -1.0675 0
M  V30 3846 H 367.589 4.16641 -0.146994 0
M  V30 3847 H 366.249 3.20357 0.529271 0
M  V30 3848 H 367.26 4.19917 -3.03134 0
M  V30 3849 H 363.937 4.15056 -0.451129 0
M  V30 3850 H 365.327 5.09427 -4.38103 0
M  V30 3851 N 368.047 0.979072 1.23499 0
M  V30 3852 C 369.295 0.645941 1.91499 0
M  V30 3853 C 369.616 -0.822948 1.76784 0
M  V30 3854 O 368.886 -1.58854 1.14639 0
M  V30 3855 H 367.466 0.235919 0.708767 0
M  V30 3856 H 370.128 1.2426 1.50152 0
M  V30 3857 H 369.224 0.896411 2.9895 0
M  V30 3858 N 369.525 -1.3858 0.750561 0
M  V30 3859 C 370.475 -2.27795 0.0965949 0
M  V30 3860 C 371.459 -1.45048 -0.696411 0
M  V30 3861 O 372.651 -1.67812 -0.562863 0
M  V30 3862 C 369.78 -3.33894 -0.798085 0
M  V30 3863 C 368.866 -4.241 0.0016067 0
M  V30 3864 N 369.257 -4.95067 1.03647 0
M  V30 3865 C 367.555 -4.45429 -0.225674 0
M  V30 3866 C 368.256 -5.61489 1.52004 0
M  V30 3867 N 367.232 -5.37135 0.835874 0
M  V30 3868 H 371.034 -2.80125 0.889228 0
M  V30 3869 H 368.548 -1.51446 0.586323 0
M  V30 3870 H 370.545 -3.96693 -1.28219 0
M  V30 3871 H 369.205 -2.83123 -1.5897 0
M  V30 3872 H 370.216 -4.98104 1.41819 0
M  V30 3873 H 366.893 -4.05571 -0.990872 0
M  V30 3874 H 368.283 -6.28264 2.38188 0
M  V30 3875 N 371.003 -0.499398 -1.49478 0
M  V30 3876 C 371.933 0.269244 -2.31943 0
M  V30 3877 C 372.914 0.964054 -1.40143 0
M  V30 3878 O 374.099 0.955767 -1.69052 0
M  V30 3879 C 371.229 1.33504 -3.20615 0
M  V30 3880 C 370.183 0.760202 -4.21195 0
M  V30 3881 C 369.509 1.9264 -4.98792 0
M  V30 3882 C 370.809 -0.247661 -5.21712 0
M  V30 3883 H 372.503 -0.419082 -2.96452 0
M  V30 3884 H 370.049 -0.202988 -1.42562 0
M  V30 3885 H 372.002 1.88048 -3.77115 0
M  V30 3886 H 370.726 2.05253 -2.54045 0
M  V30 3887 H 369.385 0.23653 -3.65836 0
M  V30 3888 H 369.033 2.63154 -4.28671 0
M  V30 3889 H 368.733 1.54785 -5.66847 0
M  V30 3890 H 370.257 2.4762 -5.58137 0
M  V30 3891 H 371.671 0.209579 -5.72917 0
M  V30 3892 H 370.068 -0.541962 -5.97648 0
M  V30 3893 H 371.138 -1.16409 -4.7072 0
M  V30 3894 N 372.481 1.55866 -0.233164 0
M  V30 3895 C 373.444 2.1953 0.658715 0
M  V30 3896 C 374.444 1.16053 1.11303 0
M  V30 3897 O 375.634 1.41218 1.01996 0
M  V30 3898 C 372.766 2.82791 1.90373 0
M  V30 3899 H 373.959 2.99721 0.10347 0
M  V30 3900 H 371.512 1.56291 0.0164245 0
M  V30 3901 H 372.247 2.06501 2.50056 0
M  V30 3902 H 372.032 3.58578 1.58632 0
M  V30 3903 H 373.522 3.31556 2.53891 0
M  V30 3904 N 373.959 -0.0401083 1.57549 0
M  V30 3905 C 374.906 -1.04413 2.05831 0
M  V30 3906 C 375.876 -1.36585 0.945184 0
M  V30 3907 O 377.061 -1.47112 1.21502 0
M  V30 3908 C 374.201 -2.34336 2.53339 0
M  V30 3909 C 373.314 -2.08419 3.78398 0
M  V30 3910 C 372.449 -3.32133 4.14561 0
M  V30 3911 C 371.488 -3.01721 5.3257 0
M  V30 3912 N 370.625 -4.17855 5.64218 0
M  V30 3913 H 375.465 -0.625442 2.91363 0
M  V30 3914 H 373.002 -0.297218 1.44066 0
M  V30 3915 H 374.96 -3.10234 2.78946 0
M  V30 3916 H 373.59 -2.73948 1.7074 0
M  V30 3917 H 372.642 -1.23069 3.59942 0
M  V30 3918 H 373.954 -1.81978 4.64419 0
M  V30 3919 H 373.108 -4.16406 4.41238 0
M  V30 3920 H 371.847 -3.61678 3.2717 0
M  V30 3921 H 370.852 -2.15849 5.05657 0
M  V30 3922 H 372.077 -2.73466 6.21605 0
M  V30 3923 H 370.023 -4.47372 4.79786 0
M  V30 3924 H 369.94 -3.94798 6.44725 0
M  V30 3925 H 371.208 -5.03033 5.95465 0
M  V30 3926 N 375.437 -1.54477 -0.31217 0
M  V30 3927 C 376.369 -1.81011 -1.40598 0
M  V30 3928 C 377.382 -0.692546 -1.47335 0
M  V30 3929 O 378.571 -0.969847 -1.49854 0
M  V30 3930 C 375.671 -1.92307 -2.79054 0
M  V30 3931 C 374.844 -3.22594 -2.95384 0
M  V30 3932 C 373.903 -3.24448 -4.1427 0
M  V30 3933 O 372.929 -3.98035 -4.06887 0
M  V30 3934 N 374.131 -2.49042 -5.24365 0
M  V30 3935 H 376.896 -2.75408 -1.18196 0
M  V30 3936 H 374.457 -1.53914 -0.502202 0
M  V30 3937 H 376.449 -1.90962 -3.56813 0
M  V30 3938 H 375.019 -1.04955 -2.94454 0
M  V30 3939 H 374.239 -3.36806 -2.04831 0
M  V30 3940 H 375.527 -4.08593 -3.03198 0
M  V30 3941 H 374.925 -1.88867 -5.33241 0
M  V30 3942 H 373.482 -2.53463 -6.005 0
M  V30 3943 N 376.915 0.57481 -1.46744 0
M  V30 3944 C 377.845 1.69337 -1.60771 0
M  V30 3945 C 378.826 1.63825 -0.457736 0
M  V30 3946 O 380.011 1.8172 -0.684947 0
M  V30 3947 C 377.141 3.0798 -1.60517 0
M  V30 3948 C 376.095 3.28327 -2.74564 0
M  V30 3949 C 375.421 4.67578 -2.59373 0
M  V30 3950 C 376.721 3.15398 -4.16319 0
M  V30 3951 H 378.415 1.57853 -2.54407 0
M  V30 3952 H 375.961 0.75799 -1.22436 0
M  V30 3953 H 377.914 3.86061 -1.68923 0
M  V30 3954 H 376.638 3.20381 -0.634305 0
M  V30 3955 H 375.297 2.52649 -2.65639 0
M  V30 3956 H 374.945 4.76755 -1.60353 0
M  V30 3957 H 374.645 4.82144 -3.35873 0
M  V30 3958 H 376.169 5.47817 -2.69682 0
M  V30 3959 H 377.583 3.83315 -4.26313 0
M  V30 3960 H 375.98 3.41482 -4.93468 0
M  V30 3961 H 377.05 2.12372 -4.3592 0
M  V30 3962 N 378.394 1.34581 0.820102 0
M  V30 3963 C 379.624 1.29991 1.6058 0
M  V30 3964 C 380.032 -0.127588 1.88769 0
M  V30 3965 O 379.375 -1.08595 1.48165 0
M  V30 3966 C 379.437 2.02548 2.9701 0
M  V30 3967 C 379.101 3.51794 2.91701 0
M  V30 3968 C 380.098 4.46647 2.66087 0
M  V30 3969 C 377.783 3.94249 3.11245 0
M  V30 3970 C 379.777 5.81929 2.60071 0
M  V30 3971 C 377.464 5.2963 3.04853 0
M  V30 3972 C 378.462 6.23282 2.793 0
M  V30 3973 O 378.15 7.56181 2.72847 0
M  V30 3974 H 377.882 0.448539 0.505756 0
M  V30 3975 H 380.436 1.77811 1.02822 0
M  V30 3976 H 378.666 1.49345 3.56697 0
M  V30 3977 H 380.355 1.91211 3.58041 0
M  V30 3978 H 381.121 4.15168 2.5072 0
M  V30 3979 H 377 3.21749 3.30149 0
M  V30 3980 H 380.544 6.54999 2.40046 0
M  V30 3981 H 376.441 5.60727 3.19774 0
M  V30 3982 H 377.209 7.6595 2.88553 0
M  V30 3983 N 379.872 -1.04064 1.18357 0
M  V30 3984 C 380.819 -2.12077 0.910603 0
M  V30 3985 C 381.789 -1.65421 -0.15 0
M  V30 3986 O 382.974 -1.90797 -0.0103614 0
M  V30 3987 C 380.114 -3.42252 0.442472 0
M  V30 3988 C 379.227 -4.0252 1.5685 0
M  V30 3989 C 378.362 -5.20657 1.05309 0
M  V30 3990 C 377.401 -5.72955 2.1538 0
M  V30 3991 N 376.538 -6.8238 1.65233 0
M  V30 3992 H 381.378 -2.34764 1.83548 0
M  V30 3993 H 378.915 -1.15157 0.915279 0
M  V30 3994 H 380.873 -4.16921 0.152534 0
M  V30 3995 H 379.503 -3.19712 -0.445428 0
M  V30 3996 H 378.555 -3.25178 1.97391 0
M  V30 3997 H 379.867 -4.37362 2.39824 0
M  V30 3998 H 379.021 -6.0244 0.717677 0
M  V30 3999 H 377.76 -4.87318 0.19293 0
M  V30 4000 H 376.765 -4.89793 2.49766 0
M  V30 4001 H 377.99 -6.08337 3.01832 0
M  V30 4002 H 375.936 -6.50917 0.815064 0
M  V30 4003 H 375.853 -7.16286 2.41805 0
M  V30 4004 H 377.121 -7.67788 1.34619 0
M  V30 4005 N 381.35 -0.985608 -1.22978 0
M  V30 4006 C 382.297 -0.529825 -2.24636 0
M  V30 4007 C 383.267 0.434028 -1.60329 0
M  V30 4008 O 384.452 0.340414 -1.87739 0
M  V30 4009 C 381.592 0.156533 -3.44745 0
M  V30 4010 C 380.705 -0.848197 -4.23591 0
M  V30 4011 C 379.84 -0.136109 -5.31026 0
M  V30 4012 C 378.879 -1.1297 -6.01585 0
M  V30 4013 N 378.016 -0.446415 -7.00679 0
M  V30 4014 H 382.856 -1.40148 -2.62988 0
M  V30 4015 H 380.393 -0.702168 -1.29259 0
M  V30 4016 H 382.351 0.571324 -4.1327 0
M  V30 4017 H 380.981 0.992025 -3.07179 0
M  V30 4018 H 380.033 -1.38135 -3.54433 0
M  V30 4019 H 381.345 -1.60512 -4.72268 0
M  V30 4020 H 380.499 0.335784 -6.0577 0
M  V30 4021 H 379.238 0.653373 -4.83304 0
M  V30 4022 H 378.243 -1.6123 -5.25628 0
M  V30 4023 H 379.468 -1.91993 -6.51395 0
M  V30 4024 H 377.414 0.323763 -6.55201 0
M  V30 4025 H 377.331 -1.1419 -7.47326 0
M  V30 4026 H 378.599 0.00291697 -7.795 0
M  V30 4027 N 382.828 1.3818 -0.7579 0
M  V30 4028 C 384.075 2.00019 -0.315985 0
M  V30 4029 C 384.403 1.60163 1.10355 0
M  V30 4030 O 383.658 0.83264 1.77103 0
M  V30 4031 C 383.957 3.55252 -0.391218 0
M  V30 4032 C 383.623 4.14834 -1.76702 0
M  V30 4033 C 382.285 4.30821 -2.14353 0
M  V30 4034 C 384.637 4.47658 -2.66931 0
M  V30 4035 C 381.965 4.76928 -3.41696 0
M  V30 4036 C 384.317 4.95184 -3.93669 0
M  V30 4037 C 382.981 5.09377 -4.31383 0
M  V30 4038 H 382.251 0.731923 -0.115627 0
M  V30 4039 H 384.898 1.65161 -0.969223 0
M  V30 4040 H 383.203 3.90273 0.34558 0
M  V30 4041 H 384.9 4.00988 -0.030805 0
M  V30 4042 H 381.49 4.02808 -1.46435 0
M  V30 4043 H 385.674 4.34904 -2.39106 0
M  V30 4044 H 380.93 4.86103 -3.70829 0
M  V30 4045 H 385.104 5.19551 -4.63724 0
M  V30 4046 H 382.731 5.44865 -5.30119 0
M  V30 4047 N 384.306 0.507319 1.49211 0
M  V30 4048 C 385.583 -0.0982702 1.95353 0
M  V30 4049 C 385.963 -1.53516 1.449 0
M  V30 4050 O 385.311 -2.18594 0.66551 0
M  V30 4051 C 385.521 -0.00440283 3.49 0
M  V30 4052 C 386.869 -0.175147 4.24239 0
M  V30 4053 O 387.893 -0.0792891 3.56112 0
M  V30 4054 O 386.752 -0.37276 5.45227 0
M  V30 4055 H 383.846 -0.0918236 0.821887 0
M  V30 4056 H 386.392 0.570307 1.5983 0
M  V30 4057 H 385.164 0.997402 3.78375 0
M  V30 4058 H 384.787 -0.712845 3.91158 0
M  V30 4059 N 385.784 -1.5574 0.241426 0
M  V30 4060 C 386.714 -2.24133 -0.654722 0
M  V30 4061 C 387.695 -1.21974 -1.1856 0
M  V30 4062 O 388.88 -1.50612 -1.22595 0
M  V30 4063 C 386.01 -2.93659 -1.85423 0
M  V30 4064 C 384.964 -4.0246 -1.45636 0
M  V30 4065 C 384.29 -4.59383 -2.73626 0
M  V30 4066 C 385.59 -5.18468 -0.631506 0
M  V30 4067 H 387.284 -2.99281 -0.0844353 0
M  V30 4068 H 384.83 -1.43947 -0.0391707 0
M  V30 4069 H 386.783 -3.40203 -2.48676 0
M  V30 4070 H 385.507 -2.15991 -2.44981 0
M  V30 4071 H 384.166 -3.56676 -0.847202 0
M  V30 4072 H 383.814 -3.78422 -3.3137 0
M  V30 4073 H 383.514 -5.32826 -2.4773 0
M  V30 4074 H 385.038 -5.08658 -3.37786 0
M  V30 4075 H 386.452 -5.61272 -1.1682 0
M  V30 4076 H 384.849 -5.98266 -0.468831 0
M  V30 4077 H 385.919 -4.8358 0.357506 0
M  V30 4078 N 387.262 0.0317525 -1.57568 0
M  V30 4079 C 388.678 0.38735 -1.54828 0
M  V30 4080 C 388.878 1.7677 -0.967187 0
M  V30 4081 O 387.934 2.45581 -0.587063 0
M  V30 4082 C 389.247 0.291667 -2.99282 0
M  V30 4083 C 390.795 0.368946 -3.10818 0
M  V30 4084 C 391.27 0.302741 -4.56998 0
M  V30 4085 N 392.761 0.361617 -4.61786 0
M  V30 4086 C 393.496 0.333238 -5.72431 0
M  V30 4087 N 392.992 0.257308 -6.92322 0
M  V30 4088 N 394.785 0.382769 -5.60795 0
M  V30 4089 H 386.936 -0.871609 -1.93692 0
M  V30 4090 H 389.199 -0.331161 -0.888277 0
M  V30 4091 H 388.905 -0.656794 -3.45513 0
M  V30 4092 H 388.779 1.08638 -3.61217 0
M  V30 4093 H 391.166 1.30784 -2.64536 0
M  V30 4094 H 391.247 -0.455066 -2.5172 0
M  V30 4095 H 390.891 -0.632473 -5.03947 0
M  V30 4096 H 390.821 1.14482 -5.14005 0
M  V30 4097 H 393.312 0.422923 -3.75526 0
M  V30 4098 H 393.625 0.24068 -7.72425 0
M  V30 4099 H 391.97 0.223396 -6.94641 0
M  V30 4100 H 395.161 0.44006 -4.66027 0
M  V30 4101 H 395.334 0.357184 -6.47015 0
M  V30 4102 N 388.74 1.54641 0.303973 0
M  V30 4103 C 389.703 1.84646 1.35789 0
M  V30 4104 C 390.703 0.7192 1.4382 0
M  V30 4105 O 391.893 0.987491 1.43507 0
M  V30 4106 C 389.025 2.02407 2.74307 0
M  V30 4107 H 390.218 2.78829 1.10429 0
M  V30 4108 H 387.771 1.46658 0.540487 0
M  V30 4109 H 388.506 1.10502 3.04893 0
M  V30 4110 H 388.291 2.84453 2.69868 0
M  V30 4111 H 389.781 2.27002 3.50514 0
M  V30 4112 N 390.218 -0.567019 1.47046 0
M  V30 4113 C 391.166 -1.69593 1.59188 0
M  V30 4114 C 392.16 -1.63046 0.459609 0
M  V30 4115 O 393.366 -1.6835 0.637058 0
M  V30 4116 H 389.741 -0.560993 0.500791 0
M  V30 4117 H 391.712 -1.56488 2.54075 0
M  V30 4118 C 390.461 -3.07964 1.61411 0
M  V30 4119 H 389.784 -3.13679 2.47881 0
M  V30 4120 H 391.224 -3.86671 1.73958 0
M  V30 4121 C 389.683 -3.35123 0.34559 0
M  V30 4122 O 390.213 -3.97812 -0.557521 0
M  V30 4123 N 388.419 -2.89699 0.22864 0
M  V30 4124 H 387.966 -2.38863 0.964479 0
M  V30 4125 H 387.924 -3.08242 -0.619192 0
M  V30 4126 N 391.696 -1.35014 -0.812953 0
M  V30 4127 C 392.936 -1.29289 -1.58315 0
M  V30 4128 C 393.3 0.132727 -1.91541 0
M  V30 4129 O 394.501 0.314269 -2.66957 0
M  V30 4130 C 392.772 -2.1681 -2.84127 0
M  V30 4131 S 394.331 -2.28538 -3.74588 0
M  V30 4132 H 391.149 -0.459569 -0.542511 0
M  V30 4133 H 393.751 -1.70336 -0.959467 0
M  V30 4134 H 392.455 -3.19379 -2.57731 0
M  V30 4135 H 391.986 -1.76697 -3.51485 0
M  V30 4136 H 394.001 -1.4655 -4.74065 0
M  V30 4137 N 393.175 1.03435 -1.18907 0
M  V30 4138 C 394.085 2.15075 -0.937015 0
M  V30 4139 C 395.101 1.73706 0.101085 0
M  V30 4140 O 396.277 2.01232 -0.0822948 0
M  V30 4141 C 393.342 3.43458 -0.473057 0
M  V30 4142 C 392.403 3.99172 -1.57989 0
M  V30 4143 C 391.636 5.21427 -1.13797 0
M  V30 4144 O 391.859 5.704 0.000725941 0
M  V30 4145 O 390.793 5.69837 -1.9383 0
M  V30 4146 H 394.619 2.39198 -1.87131 0
M  V30 4147 H 392.204 1.13506 -0.971427 0
M  V30 4148 H 394.086 4.20811 -0.222702 0
M  V30 4149 H 392.761 3.20793 0.432869 0
M  V30 4150 H 391.668 3.23178 -1.88433 0
M  V30 4151 H 393.001 4.2619 -2.46217 0
M  V30 4152 N 394.653 0.992116 1.22453 0
M  V30 4153 C 396.064 0.702776 1.72968 0
M  V30 4154 C 396.415 -0.780399 1.80012 0
M  V30 4155 O 395.54 -1.61007 1.44589 0
M  V30 4156 C 396.135 1.26903 3.14135 0
M  V30 4157 C 394.694 1.02909 3.62059 0
M  V30 4158 C 393.841 1.38969 2.39964 0
M  V30 4159 H 396.792 1.16457 1.07812 0
M  V30 4160 H 396.813 0.647223 3.74955 0
M  V30 4161 H 396.325 2.34851 3.08977 0
M  V30 4162 H 394.426 -0.0337979 3.72585 0
M  V30 4163 H 394.539 1.69191 4.48231 0
M  V30 4164 H 392.903 0.808279 2.41535 0
M  V30 4165 H 393.686 2.4792 2.37467 0
M  V30 4166 N 396.131 -1.37776 0.765217 0
M  V30 4167 C 397.063 -2.28958 0.105361 0
M  V30 4168 C 398.076 -1.48316 -0.67128 0
M  V30 4169 O 399.265 -1.71046 -0.51045 0
M  V30 4170 C 396.365 -3.27421 -0.874569 0
M  V30 4171 C 395.538 -4.37132 -0.153123 0
M  V30 4172 C 394.597 -5.1571 -1.04547 0
M  V30 4173 O 393.623 -5.66896 -0.511672 0
M  V30 4174 N 394.825 -5.29808 -2.37243 0
M  V30 4175 H 397.59 -2.86227 0.888495 0
M  V30 4176 H 395.151 -1.49682 0.617 0
M  V30 4177 H 397.143 -3.7687 -1.47483 0
M  V30 4178 H 395.713 -2.70967 -1.55871 0
M  V30 4179 H 394.933 -3.89166 0.627975 0
M  V30 4180 H 396.221 -5.07625 0.345643 0
M  V30 4181 H 395.619 -4.89793 -2.83054 0
M  V30 4182 H 394.176 -5.82589 -2.9229 0
M  V30 4183 N 397.609 -0.515225 -1.4894 0
M  V30 4184 C 398.837 0.0206034 -2.0689 0
M  V30 4185 C 399.252 1.29514 -1.37374 0
M  V30 4186 O 398.609 1.76698 -0.456529 0
M  V30 4187 C 398.66 0.26351 -3.60538 0
M  V30 4188 O 398.381 -0.960517 -4.27441 0
M  V30 4189 C 399.882 0.841383 -4.35242 0
M  V30 4190 H 397.102 -0.0268608 -0.670462 0
M  V30 4191 H 399.646 -0.716651 -1.91532 0
M  V30 4192 H 397.801 0.950777 -3.75552 0
M  V30 4193 H 398.215 -0.73212 -5.19365 0
M  V30 4194 H 399.689 0.96085 -5.43573 0
M  V30 4195 H 400.166 1.8427 -3.98674 0
M  V30 4196 H 400.772 0.191143 -4.2487 0
M  V30 4197 N 399.087 1.5561 -0.249682 0
M  V30 4198 C 400.317 2.03116 0.377803 0
M  V30 4199 C 400.725 1.12822 1.51881 0
M  V30 4200 O 400.068 0.13562 1.83199 0
M  V30 4201 C 400.13 3.46866 0.944693 0
M  V30 4202 C 399.794 4.56955 -0.0644259 0
M  V30 4203 C 400.791 5.12485 -0.874957 0
M  V30 4204 C 398.476 5.01936 -0.19132 0
M  V30 4205 C 400.47 6.11491 -1.79881 0
M  V30 4206 C 398.157 6.00773 -1.11868 0
M  V30 4207 C 399.155 6.5543 -1.92095 0
M  V30 4208 O 398.843 7.5234 -2.83267 0
M  V30 4209 H 398.575 0.669489 0.0935961 0
M  V30 4210 H 401.129 2.02004 -0.371966 0
M  V30 4211 H 399.359 3.45136 1.74407 0
M  V30 4212 H 401.048 3.77856 1.48255 0
M  V30 4213 H 401.814 4.78564 -0.787523 0
M  V30 4214 H 397.693 4.59055 0.423072 0
M  V30 4215 H 401.237 6.54078 -2.42543 0
M  V30 4216 H 397.134 6.34114 -1.20703 0
M  V30 4217 H 397.902 7.69966 -2.7766 0
M  V30 4218 N 400.565 -0.0233959 1.57583 0
M  V30 4219 C 401.813 -0.711654 1.89156 0
M  V30 4220 C 402.134 -1.75591 0.848096 0
M  V30 4221 O 401.404 -1.95547 -0.117566 0
M  V30 4222 H 399.984 -0.265835 0.698098 0
M  V30 4223 H 402.646 0.0119948 1.94896 0
M  V30 4224 H 401.742 -1.19766 2.88206 0
M  V30 4225 N 402.043 -1.548 -0.295768 0
M  V30 4226 C 403.292 -1.73538 -1.02798 0
M  V30 4227 C 403.605 -0.531159 -1.8825 0
M  V30 4228 O 404.811 -0.600458 -2.64777 0
M  V30 4229 C 403.267 -3.07051 -1.87744 0
M  V30 4230 C 402.875 -4.34968 -1.07269 0
M  V30 4231 C 404.619 -3.35146 -2.60533 0
M  V30 4232 C 402.526 -5.5953 -1.91521 0
M  V30 4233 H 401.456 -0.646794 -0.387522 0
M  V30 4234 H 404.107 -1.81278 -0.284718 0
M  V30 4235 H 402.489 -2.93289 -2.66078 0
M  V30 4236 H 403.663 -4.5958 -0.335117 0
M  V30 4237 H 401.978 -4.13847 -0.460384 0
M  V30 4238 H 404.575 -4.2541 -3.23929 0
M  V30 4239 H 404.918 -2.54255 -3.29636 0
M  V30 4240 H 405.451 -3.49902 -1.89244 0
M  V30 4241 H 402.19 -6.43103 -1.26878 0
M  V30 4242 H 401.71 -5.39096 -2.62937 0
M  V30 4243 H 403.389 -5.96982 -2.49442 0
M  V30 4244 N 403.521 0.559213 -1.47345 0
M  V30 4245 C 404.769 1.31388 -1.53563 0
M  V30 4246 C 405.09 1.93985 -0.198678 0
M  V30 4247 O 404.36 1.79825 0.777167 0
M  V30 4248 H 402.94 0.487901 -0.565652 0
M  V30 4249 H 405.602 0.65315 -1.8363 0
M  V30 4250 H 404.698 2.10844 -2.30111 0
M  V30 4251 N 404.999 1.35443 0.805782 0
M  V30 4252 C 405.929 1.31095 1.93226 0
M  V30 4253 C 406.91 0.185244 1.69088 0
M  V30 4254 O 408.095 0.380332 1.90439 0
M  V30 4255 C 405.225 1.08299 3.29983 0
M  V30 4256 C 404.179 2.17519 3.68605 0
M  V30 4257 C 403.505 1.79887 5.03532 0
M  V30 4258 C 404.805 3.5949 3.78898 0
M  V30 4259 H 406.499 2.25352 1.97122 0
M  V30 4260 H 404.045 1.0848 0.946996 0
M  V30 4261 H 405.998 1.03897 4.08391 0
M  V30 4262 H 404.722 0.104885 3.26432 0
M  V30 4263 H 403.381 2.2102 2.92482 0
M  V30 4264 H 403.029 0.80693 4.96485 0
M  V30 4265 H 402.729 2.53001 5.30344 0
M  V30 4266 H 404.253 1.77011 5.84379 0
M  V30 4267 H 405.667 3.58307 4.47536 0
M  V30 4268 H 404.064 4.31371 4.1718 0
M  V30 4269 H 405.134 3.95584 2.80431 0
M  V30 4270 N 406.477 -1.02803 1.19454 0
M  V30 4271 C 407.424 -2.11099 0.933046 0
M  V30 4272 C 408.394 -1.65571 -0.132447 0
M  V30 4273 O 409.579 -1.90797 0.00987576 0
M  V30 4274 C 406.719 -3.41763 0.478747 0
M  V30 4275 C 405.832 -4.00833 1.6111 0
M  V30 4276 C 404.967 -5.19511 1.10825 0
M  V30 4277 C 404.006 -5.70639 2.21445 0
M  V30 4278 N 403.143 -6.80589 1.72461 0
M  V30 4279 H 407.983 -2.32804 1.86028 0
M  V30 4280 H 405.52 -1.14179 0.927441 0
M  V30 4281 H 407.478 -4.16736 0.196745 0
M  V30 4282 H 406.108 -3.20166 -0.411493 0
M  V30 4283 H 405.16 -3.23066 2.00829 0
M  V30 4284 H 406.472 -4.34794 2.4445 0
M  V30 4285 H 405.626 -6.01645 0.781533 0
M  V30 4286 H 404.365 -4.87086 0.244606 0
M  V30 4287 H 403.37 -4.87116 2.54947 0
M  V30 4288 H 404.595 -6.05102 3.08267 0
M  V30 4289 H 402.541 -6.50016 0.884056 0
M  V30 4290 H 402.458 -7.13681 2.49389 0
M  V30 4291 H 403.726 -7.66317 1.42755 0
M  V30 4292 N 407.956 -0.998596 -1.21925 0
M  V30 4293 C 408.866 -0.562736 -2.27751 0
M  V30 4294 C 409.882 0.391203 -1.69545 0
M  V30 4295 O 411.058 0.256625 -1.99758 0
M  V30 4296 C 408.123 0.11012 -3.46525 0
M  V30 4297 C 407.184 -0.887495 -4.20026 0
M  V30 4298 C 406.417 -0.246654 -5.3313 0
M  V30 4299 O 406.64 0.958088 -5.62296 0
M  V30 4300 O 405.574 -0.954374 -5.94286 0
M  V30 4301 H 409.4 -1.44329 -2.67213 0
M  V30 4302 H 406.985 -0.767135 -1.28201 0
M  V30 4303 H 408.867 0.486756 -4.18579 0
M  V30 4304 H 407.542 0.965154 -3.08976 0
M  V30 4305 H 406.449 -1.31517 -3.5022 0
M  V30 4306 H 407.782 -1.71191 -4.6147 0
M  V30 4307 N 409.434 1.37368 -0.772513 0
M  V30 4308 C 410.364 2.32856 -0.173304 0
M  V30 4309 C 411.345 1.55818 0.682262 0
M  V30 4310 O 412.53 1.84052 0.619566 0
M  V30 4311 C 409.66 3.40048 0.706007 0
M  V30 4312 C 408.614 4.27973 -0.0483144 0
M  V30 4313 C 407.94 5.26184 0.950491 0
M  V30 4314 C 409.24 5.07665 -1.22776 0
M  V30 4315 H 410.934 2.83217 -0.971002 0
M  V30 4316 H 408.48 1.3617 -0.468377 0
M  V30 4317 H 410.433 4.05827 1.13501 0
M  V30 4318 H 409.157 2.88214 1.53623 0
M  V30 4319 H 407.816 3.63726 -0.458107 0
M  V30 4320 H 407.464 4.7063 1.77529 0
M  V30 4321 H 407.164 5.85872 0.450314 0
M  V30 4322 H 408.688 5.94838 1.37842 0
M  V30 4323 H 410.102 5.66578 -0.875366 0
M  V30 4324 H 408.499 5.76681 -1.66007 0
M  V30 4325 H 409.569 4.40294 -2.03149 0
M  V30 4326 N 410.912 0.523116 1.48665 0
M  V30 4327 C 412.158 -0.00540031 2.03399 0
M  V30 4328 C 412.513 -1.3264 1.39372 0
M  V30 4329 O 411.806 -1.84184 0.527916 0
M  V30 4330 C 412 -0.191671 3.56886 0
M  V30 4331 C 411.829 1.10972 4.35793 0
M  V30 4332 C 410.599 1.66769 4.76987 0
M  V30 4333 C 412.797 2.01861 4.73029 0
M  V30 4334 N 410.779 2.91268 5.40404 0
M  V30 4335 C 412.15 3.10937 5.36394 0
M  V30 4336 C 414.205 2.02271 4.54962 0
M  V30 4337 C 412.908 4.20478 5.83601 0
M  V30 4338 C 414.934 3.10802 5.03146 0
M  V30 4339 C 414.296 4.18597 5.6653 0
M  V30 4340 H 410.395 0.0393531 0.781009 0
M  V30 4341 H 412.979 0.702876 1.8157 0
M  V30 4342 H 411.15 -0.869025 3.78553 0
M  V30 4343 H 412.882 -0.719177 3.98259 0
M  V30 4344 H 409.637 1.20996 4.57883 0
M  V30 4345 H 410.061 3.54635 5.76683 0
M  V30 4346 H 414.703 1.2023 4.05345 0
M  V30 4347 H 412.421 5.03303 6.32228 0
M  V30 4348 H 416.007 3.12166 4.90962 0
M  V30 4349 H 414.887 5.01193 6.03138 0
M  V30 4350 N 412.39 -1.55475 0.257931 0
M  V30 4351 C 413.636 -1.99502 -0.364266 0
M  V30 4352 C 413.969 -1.146 -1.56782 0
M  V30 4353 O 413.244 -0.211968 -1.93342 0
M  V30 4354 C 413.527 -3.51917 -0.763333 0
M  V30 4355 C 413.38 -4.4758 0.446371 0
M  V30 4356 C 414.699 -4.09742 -1.60623 0
M  V30 4357 H 411.818 -0.725277 -0.130929 0
M  V30 4358 H 414.46 -1.8653 0.361446 0
M  V30 4359 H 412.61 -3.63101 -1.38166 0
M  V30 4360 H 414.282 -4.48362 1.08487 0
M  V30 4361 H 412.525 -4.19947 1.08753 0
M  V30 4362 H 413.196 -5.51862 0.123645 0
M  V30 4363 H 415.672 -4.01727 -1.08418 0
M  V30 4364 H 414.548 -5.16631 -1.85429 0
M  V30 4365 H 414.809 -3.58889 -2.58169 0
M  V30 4366 N 413.868 0.0150385 -1.57593 0
M  V30 4367 C 415.117 0.702115 -1.89085 0
M  V30 4368 C 415.43 1.75764 -0.858277 0
M  V30 4369 O 416.636 2.49829 -1.0629 0
M  V30 4370 C 415.092 1.29992 -3.35604 0
M  V30 4371 C 414.7 0.280007 -4.47124 0
M  V30 4372 C 416.444 1.96606 -3.76227 0
M  V30 4373 C 414.351 0.886949 -5.84711 0
M  V30 4374 H 413.281 0.265997 -0.705522 0
M  V30 4375 H 415.932 -0.0430408 -1.8345 0
M  V30 4376 H 414.314 2.09525 -3.36029 0
M  V30 4377 H 415.488 -0.489631 -4.58191 0
M  V30 4378 H 413.803 -0.284835 -4.15425 0
M  V30 4379 H 416.4 2.42893 -4.76347 0
M  V30 4380 H 416.743 2.79024 -3.08952 0
M  V30 4381 H 417.276 1.23828 -3.78036 0
M  V30 4382 H 414.015 0.101876 -6.55421 0
M  V30 4383 H 413.535 1.6261 -5.77337 0
M  V30 4384 H 415.214 1.39011 -6.3189 0
M  V30 4385 N 415.346 1.54954 0.287554 0
M  V30 4386 C 416.623 1.65569 1.04146 0
M  V30 4387 C 417.003 0.512672 2.0478 0
M  V30 4388 O 416.351 -0.489038 2.23205 0
M  V30 4389 C 416.561 3.04163 1.71131 0
M  V30 4390 C 417.909 3.61429 2.22832 0
M  V30 4391 O 418.933 3.06702 1.81141 0
M  V30 4392 O 417.792 4.57281 2.9926 0
M  V30 4393 H 414.886 0.671881 0.482188 0
M  V30 4394 H 417.432 1.67297 0.28457 0
M  V30 4395 H 416.204 3.78796 0.981303 0
M  V30 4396 H 415.827 3.06271 2.53543 0
M  V30 4397 N 416.824 -0.551391 1.4764 0
M  V30 4398 C 417.734 -1.68525 1.63207 0
M  V30 4399 C 418.75 -1.6621 0.514815 0
M  V30 4400 O 419.926 -1.85551 0.783113 0
M  V30 4401 C 416.991 -3.05025 1.64805 0
M  V30 4402 C 416.052 -3.18362 2.88 0
M  V30 4403 C 415.285 -4.4835 2.89513 0
M  V30 4404 O 415.508 -5.34163 2.00065 0
M  V30 4405 O 414.442 -4.65602 3.81443 0
M  V30 4406 H 418.268 -1.58333 2.59161 0
M  V30 4407 H 415.853 -0.722063 1.30792 0
M  V30 4408 H 417.735 -3.86245 1.68502 0
M  V30 4409 H 416.41 -3.15587 0.720197 0
M  V30 4410 H 415.317 -2.36518 2.89845 0
M  V30 4411 H 416.65 -3.12707 3.80099 0
M  V30 4412 N 418.302 -1.35869 -0.798587 0
M  V30 4413 C 419.249 -1.29446 -1.91082 0
M  V30 4414 C 420.219 -0.16487 -1.6528 0
M  V30 4415 O 421.404 -0.349888 -1.87564 0
M  V30 4416 C 418.544 -1.0804 -3.27752 0
M  V30 4417 C 417.657 -2.29993 -3.65687 0
M  V30 4418 C 416.792 -2.01673 -4.91428 0
M  V30 4419 C 415.831 -3.19636 -5.22015 0
M  V30 4420 N 414.968 -2.91039 -6.38937 0
M  V30 4421 H 419.808 -2.24553 -1.95907 0
M  V30 4422 H 417.345 -1.11615 -0.958148 0
M  V30 4423 H 419.303 -0.936586 -4.06551 0
M  V30 4424 H 417.933 -0.16592 -3.22373 0
M  V30 4425 H 416.985 -2.55211 -2.82085 0
M  V30 4426 H 418.297 -3.18052 -3.84245 0
M  V30 4427 H 417.451 -1.84168 -5.78072 0
M  V30 4428 H 416.19 -1.10911 -4.74921 0
M  V30 4429 H 415.195 -3.37709 -4.33858 0
M  V30 4430 H 416.42 -4.11211 -5.40447 0
M  V30 4431 H 414.366 -2.0288 -6.2384 0
M  V30 4432 H 414.283 -3.72635 -6.57784 0
M  V30 4433 H 415.551 -2.77093 -7.28587 0
M  V30 4434 N 419.78 1.02168 -1.19998 0
M  V30 4435 C 420.728 2.12717 -0.940967 0
M  V30 4436 C 421.722 1.69069 0.105841 0
M  V30 4437 O 422.928 1.79946 -0.0440583 0
M  V30 4438 H 419.303 0.695108 -0.28693 0
M  V30 4439 H 421.274 2.3175 -1.87975 0
M  V30 4440 C 420.023 3.44027 -0.504049 0
M  V30 4441 H 419.346 3.78036 -1.30112 0
M  V30 4442 H 420.786 4.22452 -0.361991 0
M  V30 4443 C 419.245 3.27678 0.782878 0
M  V30 4444 O 419.775 3.56949 1.84256 0
M  V30 4445 N 417.981 2.80943 0.742921 0
M  V30 4446 H 417.528 2.57322 -0.119687 0
M  V30 4447 H 417.486 2.70385 1.60435 0
M  V30 4448 N 421.258 1.00505 1.21394 0
M  V30 4449 C 422.504 0.698477 1.91031 0
M  V30 4450 C 422.859 -0.762448 1.76648 0
M  V30 4451 O 422.152 -1.54554 1.13241 0
M  V30 4452 C 422.346 1.0546 3.41486 0
M  V30 4453 C 422.175 2.5486 3.70508 0
M  V30 4454 C 420.945 3.21461 3.8986 0
M  V30 4455 C 423.143 3.53019 3.74008 0
M  V30 4456 N 421.125 4.60211 4.06299 0
M  V30 4457 C 422.496 4.77279 3.95733 0
M  V30 4458 C 424.551 3.47154 3.56915 0
M  V30 4459 C 423.254 5.96388 4.02137 0
M  V30 4460 C 425.28 4.65652 3.64585 0
M  V30 4461 C 424.642 5.88717 3.86771 0
M  V30 4462 H 420.741 0.30707 0.719189 0
M  V30 4463 H 423.325 1.28753 1.46051 0
M  V30 4464 H 421.496 0.494007 3.85246 0
M  V30 4465 H 423.228 0.702765 3.98552 0
M  V30 4466 H 419.983 2.71906 3.87768 0
M  V30 4467 H 420.407 5.32216 4.1842 0
M  V30 4468 H 425.049 2.53015 3.38738 0
M  V30 4469 H 422.767 6.90919 4.19114 0
M  V30 4470 H 426.353 4.62717 3.52681 0
M  V30 4471 H 425.233 6.78877 3.92549 0
M  V30 4472 N 422.737 -1.36956 0.779787 0
M  V30 4473 C 423.684 -2.30175 0.169697 0
M  V30 4474 C 424.654 -1.51501 -0.68094 0
M  V30 4475 O 425.839 -1.80042 -0.631629 0
M  V30 4476 C 422.979 -3.37985 -0.697131 0
M  V30 4477 C 422.092 -4.31661 0.170992 0
M  V30 4478 C 421.227 -5.2655 -0.701298 0
M  V30 4479 C 420.266 -6.11867 0.168869 0
M  V30 4480 N 419.403 -6.98973 -0.661855 0
M  V30 4481 H 424.243 -2.81767 0.970135 0
M  V30 4482 H 421.78 -1.38699 0.489994 0
M  V30 4483 H 423.738 -3.99128 -1.2146 0
M  V30 4484 H 422.368 -2.87739 -1.46309 0
M  V30 4485 H 421.42 -3.71756 0.80634 0
M  V30 4486 H 422.732 -4.91644 0.841875 0
M  V30 4487 H 421.886 -5.92937 -1.28494 0
M  V30 4488 H 420.625 -4.66998 -1.40584 0
M  V30 4489 H 419.63 -5.44452 0.764986 0
M  V30 4490 H 420.855 -6.73493 0.870863 0
M  V30 4491 H 418.801 -6.41941 -1.35086 0
M  V30 4492 H 418.718 -7.55984 -0.0484447 0
M  V30 4493 H 419.986 -7.6974 -1.22963 0
M  V30 4494 N 424.215 -0.530993 -1.48385 0
M  V30 4495 C 425.626 -0.0907905 -1.86479 0
M  V30 4496 C 425.977 1.33213 -1.44044 0
M  V30 4497 O 425.102 1.99783 -0.831615 0
M  V30 4498 C 425.697 -0.157987 -3.38431 0
M  V30 4499 C 424.256 0.227026 -3.75715 0
M  V30 4500 C 423.403 -0.5173 -2.72432 0
M  V30 4501 H 426.354 -0.742186 -1.40276 0
M  V30 4502 H 426.375 0.630053 -3.75247 0
M  V30 4503 H 425.887 -1.19372 -3.69286 0
M  V30 4504 H 423.988 1.26486 -3.50474 0
M  V30 4505 H 424.101 -0.113288 -4.78966 0
M  V30 4506 H 422.465 0.0365527 -2.54674 0
M  V30 4507 H 423.248 -1.55368 -3.0613 0
M  V30 4508 N 425.693 1.55336 -0.266172 0
M  V30 4509 C 426.941 1.99003 0.35246 0
M  V30 4510 C 427.262 1.15591 1.57047 0
M  V30 4511 O 426.532 0.243268 1.94384 0
M  V30 4512 H 425.112 0.735025 0.133217 0
M  V30 4513 H 427.774 1.91367 -0.369434 0
M  V30 4514 H 426.87 3.05289 0.648453 0
M  V30 4515 N 427.171 -0.0066808 1.57599 0
M  V30 4516 C 428.587 -0.36267 1.55425 0
M  V30 4517 C 428.787 -1.75209 0.995187 0
M  V30 4518 O 427.843 -2.44616 0.626058 0
M  V30 4519 C 429.156 -0.244017 2.99708 0
M  V30 4520 C 430.704 -0.319451 3.11366 0
M  V30 4521 C 431.179 -0.229998 4.57422 0
M  V30 4522 N 432.67 -0.288105 4.62303 0
M  V30 4523 C 433.405 -0.242127 5.72889 0
M  V30 4524 N 432.901 -0.147133 6.92644 0
M  V30 4525 N 434.694 -0.293502 5.61333 0
M  V30 4526 H 426.845 0.902314 1.92281 0
M  V30 4527 H 429.108 0.34525 0.882896 0
M  V30 4528 H 428.814 0.711678 3.44424 0
M  V30 4529 H 428.688 -1.02877 3.629 0
M  V30 4530 H 431.075 -1.26559 2.66584 0
M  V30 4531 H 431.156 0.495055 2.50964 0
M  V30 4532 H 430.8 0.712566 5.02877 0
M  V30 4533 H 430.73 -1.0629 5.15761 0
M  V30 4534 H 433.221 -0.363126 3.76151 0
M  V30 4535 H 433.534 -0.117763 7.7271 0
M  V30 4536 H 431.879 -0.112857 6.94908 0
M  V30 4537 H 435.07 -0.365864 4.66668 0
M  V30 4538 H 435.243 -0.254204 6.47501 0
M  V30 4539 N 428.649 -1.55105 -0.279332 0
M  V30 4540 C 429.895 -1.75672 -1.01327 0
M  V30 4541 C 430.228 -0.552739 -1.86168 0
M  V30 4542 O 429.503 0.449827 -1.89227 0
M  V30 4543 C 429.786 -3.05825 -1.90114 0
M  V30 4544 C 429.639 -4.36565 -1.08309 0
M  V30 4545 C 430.958 -3.31975 -2.8893 0
M  V30 4546 H 428.077 -0.639149 -0.366957 0
M  V30 4547 H 430.719 -1.87833 -0.286154 0
M  V30 4548 H 428.869 -2.95588 -2.52111 0
M  V30 4549 H 430.541 -4.58751 -0.484314 0
M  V30 4550 H 428.784 -4.32076 -0.386362 0
M  V30 4551 H 429.455 -5.23946 -1.73737 0
M  V30 4552 H 431.931 -3.41963 -2.37067 0
M  V30 4553 H 430.807 -4.2432 -3.48201 0
M  V30 4554 H 431.068 -2.51309 -3.63725 0
M  V30 4555 N 430.127 0.543554 -1.4793 0
M  V30 4556 C 431.404 1.30458 -1.4574 0
M  V30 4557 C 431.784 2.1048 -0.161692 0
M  V30 4558 O 431.132 2.11831 0.856734 0
M  V30 4559 C 431.342 2.19754 -2.71126 0
M  V30 4560 C 432.69 2.80334 -3.18901 0
M  V30 4561 O 433.714 2.30049 -2.71948 0
M  V30 4562 O 432.573 3.71766 -4.00565 0
M  V30 4563 H 429.667 0.588117 -0.581418 0
M  V30 4564 H 432.213 0.561328 -1.60147 0
M  V30 4565 H 430.985 1.60316 -3.56952 0
M  V30 4566 H 430.608 3.01351 -2.59371 0
M  V30 4567 N 431.605 1.3629 0.791371 0
M  V30 4568 C 432.555 1.26988 1.89362 0
M  V30 4569 C 433.539 0.161795 1.60084 0
M  V30 4570 O 434.731 0.394426 1.72549 0
M  V30 4571 C 431.86 1.05944 3.26544 0
M  V30 4572 C 430.946 2.21211 3.61838 0
M  V30 4573 N 431.337 3.46518 3.68455 0
M  V30 4574 C 429.635 2.12933 3.91887 0
M  V30 4575 C 430.336 4.2241 3.99931 0
M  V30 4576 N 429.312 3.51329 4.14812 0
M  V30 4577 H 433.114 2.21908 1.92702 0
M  V30 4578 H 430.628 1.28982 0.986787 0
M  V30 4579 H 432.625 0.973666 4.05371 0
M  V30 4580 H 431.285 0.119223 3.24481 0
M  V30 4581 H 432.296 3.80677 3.51148 0
M  V30 4582 H 428.973 1.26855 3.97761 0
M  V30 4583 H 430.363 5.30767 4.1199 0
M  V30 4584 N 433.083 -1.0153 1.20538 0
M  V30 4585 C 434.311 -1.78746 1.04199 0
M  V30 4586 C 434.726 -1.84323 -0.408733 0
M  V30 4587 O 434.083 -1.29714 -1.28377 0
M  V30 4588 C 434.134 -3.23152 1.62035 0
M  V30 4589 O 433.855 -3.17918 3.0143 0
M  V30 4590 C 435.356 -4.16911 1.50666 0
M  V30 4591 H 432.576 -0.56208 0.366479 0
M  V30 4592 H 435.12 -1.27794 1.59653 0
M  V30 4593 H 433.275 -3.71248 1.10697 0
M  V30 4594 H 433.689 -4.08567 3.28897 0
M  V30 4595 H 435.163 -5.16072 1.95892 0
M  V30 4596 H 435.64 -4.36791 0.459363 0
M  V30 4597 H 436.246 -3.74698 2.01201 0
M  V30 4598 N 434.561 -1.01147 -1.20859 0
M  V30 4599 C 435.807 -0.698899 -1.90377 0
M  V30 4600 C 436.14 0.76904 -1.78324 0
M  V30 4601 O 435.415 1.55817 -1.16409 0
M  V30 4602 C 435.698 -1.12878 -3.41951 0
M  V30 4603 C 435.551 -2.65665 -3.62963 0
M  V30 4604 C 436.87 -0.696114 -4.3456 0
M  V30 4605 H 433.989 -0.255372 -0.691342 0
M  V30 4606 H 436.631 -1.25831 -1.42361 0
M  V30 4607 H 434.781 -0.652827 -3.82976 0
M  V30 4608 H 436.453 -3.21074 -3.31224 0
M  V30 4609 H 434.696 -3.06878 -3.06608 0
M  V30 4610 H 435.367 -2.90797 -4.69192 0
M  V30 4611 H 437.843 -1.10521 -4.01154 0
M  V30 4612 H 436.719 -1.025 -5.39245 0
M  V30 4613 H 436.98 0.402465 -4.40264 0
M  V30 4614 N 436.039 1.36541 -0.78704 0
M  V30 4615 C 437.287 1.98911 -0.357633 0
M  V30 4616 C 437.608 1.62778 1.07371 0
M  V30 4617 O 436.878 0.900612 1.73971 0
M  V30 4618 H 435.458 0.735734 -0.129246 0
M  V30 4619 H 438.12 1.66776 -1.00855 0
M  V30 4620 H 437.216 3.08874 -0.447549 0
M  V30 4621 N 437.518 0.538854 1.48102 0
M  V30 4622 C 438.764 0.0161732 2.03394 0
M  V30 4623 C 439.119 -1.31154 1.40771 0
M  V30 4624 O 438.412 -1.83613 0.547421 0
M  V30 4625 C 438.606 -0.153808 3.57069 0
M  V30 4626 C 438.435 1.15588 4.34591 0
M  V30 4627 C 437.205 1.71818 4.75191 0
M  V30 4628 C 439.403 2.06867 4.70861 0
M  V30 4629 N 437.385 2.96983 5.37284 0
M  V30 4630 C 438.756 3.16609 5.33066 0
M  V30 4631 C 440.811 2.07085 4.52791 0
M  V30 4632 C 439.514 4.26645 5.79109 0
M  V30 4633 C 441.54 3.16121 4.99821 0
M  V30 4634 C 440.902 4.24582 5.62058 0
M  V30 4635 H 437.001 0.0476346 0.780548 0
M  V30 4636 H 439.585 0.722094 1.80815 0
M  V30 4637 H 437.756 -0.828825 3.79454 0
M  V30 4638 H 439.488 -0.676896 3.98999 0
M  V30 4639 H 436.243 1.25845 4.56574 0
M  V30 4640 H 436.667 3.60732 5.72889 0
M  V30 4641 H 441.309 1.24522 4.04047 0
M  V30 4642 H 439.027 5.0998 6.26854 0
M  V30 4643 H 442.613 3.17355 4.87624 0
M  V30 4644 H 441.493 5.07562 5.97788 0
M  V30 4645 N 438.996 -1.55193 0.274407 0
M  V30 4646 C 440.407 -1.85358 -0.223488 0
M  V30 4647 C 440.758 -1.19642 -1.555 0
M  V30 4648 O 439.883 -0.484498 -2.10907 0
M  V30 4649 C 440.478 -3.36282 -0.412285 0
M  V30 4650 C 439.037 -3.66574 -0.854413 0
M  V30 4651 C 438.184 -2.7725 0.0527056 0
M  V30 4652 H 441.135 -1.50743 0.496215 0
M  V30 4653 H 441.156 -3.59349 -1.25094 0
M  V30 4654 H 440.668 -3.84083 0.556965 0
M  V30 4655 H 438.769 -3.24273 -1.83516 0
M  V30 4656 H 438.882 -4.74073 -0.692226 0
M  V30 4657 H 437.246 -2.50447 -0.463484 0
M  V30 4658 H 438.029 -3.27865 1.01783 0
M  V30 4659 N 440.474 -0.00167713 -1.576 0
M  V30 4660 C 441.404 0.988091 -2.11563 0
M  V30 4661 C 442.385 1.35736 -1.02517 0
M  V30 4662 O 443.57 1.44082 -1.30208 0
M  V30 4663 C 440.7 2.27941 -2.62031 0
M  V30 4664 C 439.654 2.0517 -3.75619 0
M  V30 4665 C 438.98 3.4033 -4.12407 0
M  V30 4666 C 440.28 1.41294 -5.02825 0
M  V30 4667 H 441.974 0.538771 -2.94513 0
M  V30 4668 H 439.52 0.257712 -1.41675 0
M  V30 4669 H 441.473 2.97539 -2.9841 0
M  V30 4670 H 440.197 2.74989 -1.76205 0
M  V30 4671 H 438.856 1.37998 -3.39635 0
M  V30 4672 H 438.504 3.85085 -3.23603 0
M  V30 4673 H 438.204 3.25909 -4.88935 0
M  V30 4674 H 439.728 4.1124 -4.51347 0
M  V30 4675 H 441.142 2.00851 -5.36965 0
M  V30 4676 H 439.539 1.37356 -5.84169 0
M  V30 4677 H 440.609 0.382362 -4.8339 0
M  V30 4678 N 441.952 1.55251 0.271103 0
M  V30 4679 C 443.229 1.66664 1.02384 0
M  V30 4680 C 443.609 0.534363 2.04225 0
M  V30 4681 O 442.957 -0.465337 2.23712 0
M  V30 4682 C 443.167 3.05961 1.67895 0
M  V30 4683 C 444.515 3.63772 2.18986 0
M  V30 4684 O 445.539 3.08606 1.77878 0
M  V30 4685 O 444.398 4.60429 2.94393 0
M  V30 4686 H 441.492 0.676957 0.475035 0
M  V30 4687 H 444.038 1.67589 0.26681 0
M  V30 4688 H 442.81 3.79815 0.941071 0
M  V30 4689 H 442.433 3.08943 2.5028 0
M  V30 4690 N 443.43 -0.535701 1.48216 0
M  V30 4691 C 444.846 -0.863701 1.3421 0
M  V30 4692 C 445.046 -1.98458 0.34879 0
M  V30 4693 O 444.102 -2.51432 -0.23204 0
M  V30 4694 C 445.415 -1.23662 2.74095 0
M  V30 4695 C 446.963 -1.34683 2.82541 0
M  V30 4696 C 447.438 -1.75322 4.23115 0
M  V30 4697 N 448.929 -1.82434 4.2576 0
M  V30 4698 C 449.664 -2.15252 5.31464 0
M  V30 4699 N 449.16 -2.46533 6.47452 0
M  V30 4700 N 450.953 -2.16209 5.18855 0
M  V30 4701 H 443.104 0.203965 2.11418 0
M  V30 4702 H 445.367 0.0286033 0.947568 0
M  V30 4703 H 445.073 -0.486674 3.48316 0
M  V30 4704 H 444.947 -2.18805 3.07253 0
M  V30 4705 H 447.334 -2.08756 2.08579 0
M  V30 4706 H 447.415 -0.376756 2.5301 0
M  V30 4707 H 447.059 -1.01812 4.97591 0
M  V30 4708 H 446.989 -2.7337 4.50085 0
M  V30 4709 H 449.48 -1.6056 3.42095 0
M  V30 4710 H 449.793 -2.70662 7.23852 0
M  V30 4711 H 448.138 -2.44065 6.50736 0
M  V30 4712 H 451.329 -1.91224 4.2726 0
M  V30 4713 H 451.502 -2.41453 6.01335 0
M  V30 4714 N 444.908 -1.36708 -0.784132 0
M  V30 4715 C 445.858 -1.2799 -1.88686 0
M  V30 4716 C 446.842 -0.170282 -1.59996 0
M  V30 4717 O 448.034 -0.403571 -1.72338 0
M  V30 4718 C 445.163 -1.07674 -3.25977 0
M  V30 4719 C 444.249 -2.23127 -3.60659 0
M  V30 4720 N 444.64 -3.48467 -3.66612 0
M  V30 4721 C 442.938 -2.15009 -3.90752 0
M  V30 4722 C 443.639 -4.24525 -3.97685 0
M  V30 4723 N 442.615 -3.53524 -4.12943 0
M  V30 4724 H 446.417 -2.22927 -1.91522 0
M  V30 4725 H 443.931 -1.29503 -0.979933 0
M  V30 4726 H 445.928 -0.995151 -4.04849 0
M  V30 4727 H 444.588 -0.13643 -3.24413 0
M  V30 4728 H 445.599 -3.82534 -3.49125 0
M  V30 4729 H 442.276 -1.28963 -3.97083 0
M  V30 4730 H 443.666 -5.32944 -4.0917 0
M  V30 4731 N 446.386 1.0089 -1.21074 0
M  V30 4732 C 447.614 1.78191 -1.05145 0
M  V30 4733 C 448.029 1.84537 0.398952 0
M  V30 4734 O 447.386 1.30393 1.27687 0
M  V30 4735 C 447.437 3.22288 -1.63746 0
M  V30 4736 O 447.158 3.16315 -3.03111 0
M  V30 4737 C 448.659 4.16106 -1.52875 0
M  V30 4738 H 445.879 0.560129 -0.369454 0
M  V30 4739 H 448.423 1.26945 -1.60328 0
M  V30 4740 H 446.578 3.70655 -1.12664 0
M  V30 4741 H 446.992 4.06817 -3.31059 0
M  V30 4742 H 448.466 5.15026 -1.98626 0
M  V30 4743 H 448.943 4.36541 -0.482521 0
M  V30 4744 H 449.549 3.73625 -2.03185 0
M  V30 4745 N 447.864 1.01787 1.20321 0
M  V30 4746 C 449.094 0.72614 1.93419 0
M  V30 4747 C 449.502 -0.717317 1.75075 0
M  V30 4748 O 448.845 -1.49836 1.06278 0
M  V30 4749 C 448.907 0.983621 3.45782 0
M  V30 4750 C 448.571 2.41645 3.87888 0
M  V30 4751 C 449.568 3.39732 3.93545 0
M  V30 4752 C 447.253 2.75752 4.19841 0
M  V30 4753 C 449.247 4.69988 4.30569 0
M  V30 4754 C 446.934 4.06221 4.56539 0
M  V30 4755 C 447.932 5.0315 4.61876 0
M  V30 4756 O 447.62 6.31284 4.97731 0
M  V30 4757 H 447.352 0.265824 0.621541 0
M  V30 4758 H 449.906 1.3623 1.53722 0
M  V30 4759 H 448.136 0.290301 3.85609 0
M  V30 4760 H 449.825 0.683279 4.00108 0
M  V30 4761 H 450.591 3.14718 3.69022 0
M  V30 4762 H 446.47 2.00993 4.14877 0
M  V30 4763 H 450.014 5.45642 4.3465 0
M  V30 4764 H 445.911 4.31013 4.80518 0
M  V30 4765 H 446.679 6.35591 5.15719 0
M  V30 4766 N 449.342 -1.36122 0.79427 0
M  V30 4767 C 450.59 -1.98718 0.368177 0
M  V30 4768 C 450.911 -1.63345 -1.06506 0
M  V30 4769 O 450.181 -0.909825 -1.73491 0
M  V30 4770 H 448.761 -0.735038 0.133146 0
M  V30 4771 H 451.423 -1.66239 1.01739 0
M  V30 4772 H 450.519 -3.08633 0.463923 0
M  V30 4773 N 450.82 -0.546701 -1.47814 0
M  V30 4774 C 452.068 -0.0187037 -2.02091 0
M  V30 4775 C 452.389 1.33168 -1.42447 0
M  V30 4776 O 451.659 1.86619 -0.595839 0
M  V30 4777 H 450.239 -0.00392531 -0.74699 0
M  V30 4778 H 452.901 -0.714327 -1.81338 0
M  V30 4779 H 451.997 0.0772219 -3.12004 0
M  V30 4780 N 452.299 1.55045 -0.282633 0
M  V30 4781 C 453.524 2.04628 0.337977 0
M  V30 4782 C 453.949 1.15937 1.48123 0
M  V30 4783 O 453.307 0.159532 1.80597 0
M  V30 4784 C 453.355 3.51854 0.78936 0
M  V30 4785 O 452.459 3.66236 1.89592 0
M  V30 4786 H 451.8 0.660434 0.0687261 0
M  V30 4787 H 454.33 2.00261 -0.419124 0
M  V30 4788 H 454.34 3.93361 1.08311 0
M  V30 4789 H 453.015 4.15873 -0.0470419 0
M  V30 4790 H 451.592 3.36633 1.60413 0
M  V30 4791 N 453.777 0.010035 1.57597 0
M  V30 4792 C 455.024 -0.6727 1.91 0
M  V30 4793 C 455.352 -1.73219 0.884614 0
M  V30 4794 O 454.607 -1.95395 -0.109215 0
M  V30 4795 C 454.906 -1.34434 3.31153 0
M  V30 4796 C 454.572 -0.417083 4.48967 0
M  V30 4797 C 453.234 -0.161809 4.80928 0
M  V30 4798 C 455.586 0.220753 5.20732 0
M  V30 4799 C 452.914 0.739426 5.82022 0
M  V30 4800 C 455.266 1.10993 6.22787 0
M  V30 4801 C 453.93 1.37428 6.532 0
M  V30 4802 H 453.2 -0.246158 0.698918 0
M  V30 4803 H 455.847 0.0677145 1.9138 0
M  V30 4804 H 454.152 -2.15905 3.26944 0
M  V30 4805 H 455.849 -1.87883 3.54261 0
M  V30 4806 H 452.439 -0.626217 4.24001 0
M  V30 4807 H 456.623 0.0365643 4.96287 0
M  V30 4808 H 451.879 0.952139 6.03941 0
M  V30 4809 H 456.053 1.61046 6.77523 0
M  V30 4810 H 453.68 2.0743 7.31353 0
M  V30 4811 N 455.255 -1.55392 -0.262866 0
M  V30 4812 C 456.185 -1.91978 -1.32917 0
M  V30 4813 C 457.166 -0.7828 -1.51017 0
M  V30 4814 O 458.351 -1.04178 -1.63892 0
M  V30 4815 C 455.481 -2.20055 -2.68687 0
M  V30 4816 C 454.435 -3.35854 -2.65304 0
M  V30 4817 C 453.761 -3.49435 -4.04721 0
M  V30 4818 C 455.061 -4.71977 -2.23685 0
M  V30 4819 H 456.755 -2.81292 -1.02544 0
M  V30 4820 H 454.301 -1.3534 -0.491846 0
M  V30 4821 H 456.254 -2.44237 -3.43404 0
M  V30 4822 H 454.978 -1.27551 -3.00663 0
M  V30 4823 H 453.637 -3.11655 -1.93045 0
M  V30 4824 H 453.285 -2.54379 -4.33936 0
M  V30 4825 H 452.985 -4.27297 -4.0335 0
M  V30 4826 H 454.509 -3.7592 -4.81161 0
M  V30 4827 H 455.923 -4.95637 -2.88127 0
M  V30 4828 H 454.32 -5.52828 -2.33456 0
M  V30 4829 H 455.39 -4.70115 -1.18827 0
M  V30 4830 N 456.733 0.527833 -1.48498 0
M  V30 4831 C 457.963 1.30633 -1.60058 0
M  V30 4832 C 458.371 1.87394 -0.260786 0
M  V30 4833 O 457.714 1.67227 0.760317 0
M  V30 4834 C 457.776 2.49361 -2.58958 0
M  V30 4835 C 457.44 2.13671 -4.03972 0
M  V30 4836 C 458.437 1.69217 -4.91591 0
M  V30 4837 C 456.122 2.24129 -4.49524 0
M  V30 4838 C 458.116 1.35689 -6.2279 0
M  V30 4839 C 455.803 1.90212 -5.80743 0
M  V30 4840 C 456.801 1.46063 -6.67199 0
M  V30 4841 O 456.489 1.12593 -7.95976 0
M  V30 4842 H 456.221 0.403444 -0.54241 0
M  V30 4843 H 458.775 0.643233 -1.95068 0
M  V30 4844 H 457.005 3.18659 -2.19073 0
M  V30 4845 H 458.694 3.11421 -2.6033 0
M  V30 4846 H 459.46 1.60607 -4.57636 0
M  V30 4847 H 455.339 2.57447 -3.82416 0
M  V30 4848 H 458.883 1.01157 -6.90227 0
M  V30 4849 H 454.78 1.98464 -6.14233 0
M  V30 4850 H 455.548 1.25972 -8.08748 0
M  V30 4851 N 458.211 1.37122 0.776871 0
M  V30 4852 C 459.161 1.28989 1.88005 0
M  V30 4853 C 460.145 0.178765 1.59904 0
M  V30 4854 O 461.337 0.412705 1.72121 0
M  V30 4855 C 458.466 1.09402 3.25402 0
M  V30 4856 C 457.552 2.25036 3.59471 0
M  V30 4857 N 457.943 3.50407 3.64759 0
M  V30 4858 C 456.241 2.17078 3.89607 0
M  V30 4859 C 456.942 4.26628 3.95428 0
M  V30 4860 N 455.918 3.55709 4.11062 0
M  V30 4861 H 459.72 2.2394 1.90337 0
M  V30 4862 H 457.234 1.30021 0.973052 0
M  V30 4863 H 459.231 1.01661 4.04315 0
M  V30 4864 H 457.891 0.153632 3.24336 0
M  V30 4865 H 458.902 3.8438 3.47091 0
M  V30 4866 H 455.579 1.31067 3.96393 0
M  V30 4867 H 456.969 5.35107 4.06338 0
M  V30 4868 N 459.689 -1.00246 1.21608 0
M  V30 4869 C 460.619 -2.10921 1.00172 0
M  V30 4870 C 461.6 -1.69938 -0.0741587 0
M  V30 4871 O 462.785 -1.94009 0.0861753 0
M  V30 4872 C 459.915 -3.42618 0.568355 0
M  V30 4873 C 458.869 -3.97407 1.58909 0
M  V30 4874 C 458.195 -5.25038 1.01187 0
M  V30 4875 C 459.495 -4.2918 2.97661 0
M  V30 4876 H 461.189 -2.29112 1.92739 0
M  V30 4877 H 458.735 -1.10101 0.928102 0
M  V30 4878 H 460.688 -4.19444 0.405555 0
M  V30 4879 H 459.412 -3.24227 -0.392961 0
M  V30 4880 H 458.071 -3.22703 1.73949 0
M  V30 4881 H 457.719 -5.02982 0.0421965 0
M  V30 4882 H 457.419 -5.62661 1.6937 0
M  V30 4883 H 458.943 -6.04507 0.860448 0
M  V30 4884 H 460.357 -4.96839 2.86049 0
M  V30 4885 H 458.754 -4.77952 3.6288 0
M  V30 4886 H 459.824 -3.3735 3.48315 0
M  V30 4887 N 461.167 -1.02423 -1.1978 0
M  V30 4888 C 462.115 -0.594474 -2.24875 0
M  V30 4889 C 463.109 0.370598 -1.65296 0
M  V30 4890 O 464.315 0.239684 -1.78397 0
M  V30 4891 H 460.69 -0.173961 -0.731602 0
M  V30 4892 H 462.661 -1.4916 -2.58445 0
M  V30 4893 C 461.41 0.0436512 -3.47673 0
M  V30 4894 H 460.733 -0.689963 -3.93801 0
M  V30 4895 H 462.173 0.307362 -4.22884 0
M  V30 4896 C 460.632 1.28881 -3.11274 0
M  V30 4897 O 461.162 2.38135 -3.23503 0
M  V30 4898 N 459.368 1.1758 -2.6575 0
M  V30 4899 H 458.915 0.286769 -2.55999 0
M  V30 4900 H 458.873 2.00988 -2.41767 0
M  V30 4901 N 462.645 1.35699 -0.801477 0
M  V30 4902 C 463.555 2.33661 -0.209691 0
M  V30 4903 C 464.571 1.6162 0.644591 0
M  V30 4904 O 465.747 1.93529 0.557545 0
M  V30 4905 C 462.812 3.40816 0.636033 0
M  V30 4906 C 461.873 4.28639 -0.238147 0
M  V30 4907 C 461.106 5.30676 0.567307 0
M  V30 4908 O 461.329 5.41174 1.8024 0
M  V30 4909 O 460.263 6.01887 -0.0391336 0
M  V30 4910 H 464.089 2.8606 -1.01996 0
M  V30 4911 H 461.674 1.38379 -0.563164 0
M  V30 4912 H 463.556 4.06301 1.11791 0
M  V30 4913 H 462.231 2.90696 1.42399 0
M  V30 4914 H 461.138 3.66152 -0.767044 0
M  V30 4915 H 462.471 4.82143 -0.989915 0
M  V30 4916 N 464.123 0.554532 1.47522 0
M  V30 4917 C 465.371 0.0294208 2.02079 0
M  V30 4918 C 465.692 -1.32411 1.43151 0
M  V30 4919 O 464.962 -1.863 0.605728 0
M  V30 4920 H 463.542 0.00788672 0.746958 0
M  V30 4921 H 466.204 0.723934 1.80956 0
M  V30 4922 H 465.3 -0.0606745 3.12041 0
M  V30 4923 N 465.601 -1.54893 0.290851 0
M  V30 4924 C 466.511 -2.26812 -0.59945 0
M  V30 4925 C 467.527 -1.29963 -1.15696 0
M  V30 4926 O 468.703 -1.62928 -1.18391 0
M  V30 4927 C 465.768 -2.98716 -1.75982 0
M  V30 4928 C 464.829 -4.1108 -1.2374 0
M  V30 4929 C 464.062 -4.79546 -2.34246 0
M  V30 4930 O 464.285 -4.47309 -3.53936 0
M  V30 4931 O 463.219 -5.67165 -2.01512 0
M  V30 4932 H 467.045 -3.03696 -0.0163561 0
M  V30 4933 H 464.63 -1.49289 0.0576755 0
M  V30 4934 H 466.512 -3.43851 -2.43607 0
M  V30 4935 H 465.187 -2.24737 -2.3297 0
M  V30 4936 H 464.094 -3.70367 -0.527163 0
M  V30 4937 H 465.427 -4.87007 -0.71307 0
M  V30 4938 N 467.08 -0.0183926 -1.57589 0
M  V30 4939 C 468.491 0.521927 -1.79256 0
M  V30 4940 C 468.842 1.72885 -0.927636 0
M  V30 4941 O 467.967 2.15978 -0.135091 0
M  V30 4942 C 468.562 0.953632 -3.25102 0
M  V30 4943 C 467.121 1.43913 -3.47801 0
M  V30 4944 C 466.268 0.398837 -2.74417 0
M  V30 4945 H 469.219 -0.244485 -1.56805 0
M  V30 4946 H 469.24 1.81863 -3.34224 0
M  V30 4947 H 468.752 0.0750123 -3.88028 0
M  V30 4948 H 466.853 2.33804 -2.90115 0
M  V30 4949 H 466.966 1.45391 -4.56507 0
M  V30 4950 H 465.33 0.864572 -2.39577 0
M  V30 4951 H 466.113 -0.471132 -3.40052 0
M  V30 4952 N 468.558 1.5553 0.254621 0
M  V30 4953 C 469.488 1.9268 1.31897 0
M  V30 4954 C 470.469 0.790797 1.506 0
M  V30 4955 O 471.654 1.05045 1.63337 0
M  V30 4956 C 468.784 2.21477 2.67517 0
M  V30 4957 C 467.738 3.37256 2.63519 0
M  V30 4958 C 467.064 3.51576 4.02862 0
M  V30 4959 C 468.364 4.73157 2.21179 0
M  V30 4960 H 470.058 2.81832 1.01051 0
M  V30 4961 H 467.604 1.35599 0.484662 0
M  V30 4962 H 469.557 2.46055 3.42104 0
M  V30 4963 H 468.281 1.29144 2.99982 0
M  V30 4964 H 466.94 3.12675 1.9139 0
M  V30 4965 H 466.588 2.56676 4.32581 0
M  V30 4966 H 466.288 4.2943 4.01078 0
M  V30 4967 H 467.812 3.78467 4.79161 0
M  V30 4968 H 469.226 4.97158 2.85494 0
M  V30 4969 H 467.623 5.54058 2.30521 0
M  V30 4970 H 468.693 4.70739 1.16332 0
M  V30 4971 N 470.036 -0.519951 1.48776 0
M  V30 4972 C 471.282 -1.27711 1.57536 0
M  V30 4973 C 471.615 -1.92547 0.252866 0
M  V30 4974 O 470.89 -1.7979 -0.742021 0
M  V30 4975 C 471.173 -2.35875 2.72094 0
M  V30 4976 C 471.026 -1.75664 4.1408 0
M  V30 4977 C 472.345 -3.37575 2.82367 0
M  V30 4978 H 469.464 -0.462971 0.573434 0
M  V30 4979 H 472.106 -0.578194 1.80989 0
M  V30 4980 H 470.256 -2.95488 2.52228 0
M  V30 4981 H 471.928 -1.20025 4.45412 0
M  V30 4982 H 470.171 -1.06154 4.20611 0
M  V30 4983 H 470.842 -2.54029 4.90075 0
M  V30 4984 H 473.318 -2.87929 3.00393 0
M  V30 4985 H 472.194 -4.1064 3.64233 0
M  V30 4986 H 472.455 -3.98743 1.90936 0
M  V30 4987 N 471.514 -1.37532 -0.769588 0
M  V30 4988 C 472.477 -1.33292 -1.86456 0
M  V30 4989 C 473.477 -0.236537 -1.59051 0
M  V30 4990 O 474.667 -0.492511 -1.67093 0
M  V30 4991 C 471.799 -1.07118 -3.23633 0
M  V30 4992 H 472.992 -2.30692 -1.91628 0
M  V30 4993 H 470.545 -1.22593 -0.969572 0
M  V30 4994 H 471.28 -0.102578 -3.24138 0
M  V30 4995 H 471.065 -1.86479 -3.44917 0
M  V30 4996 H 472.555 -1.06806 -4.03711 0
M  V30 4997 N 472.992 0.995999 -1.22138 0
M  V30 4998 C 473.922 2.10387 -1.01289 0
M  V30 4999 C 474.903 1.69975 0.0651454 0
M  V30 5000 O 476.088 1.9396 -0.0964628 0
M  V30 5001 C 473.218 3.42312 -0.586517 0
M  V30 5002 C 472.172 3.96558 -1.61014 0
M  V30 5003 C 471.498 5.24494 -1.0397 0
M  V30 5004 C 472.798 4.27595 -2.99933 0
M  V30 5005 H 474.492 2.28086 -1.93951 0
M  V30 5006 H 472.038 1.09607 -0.933928 0
M  V30 5007 H 473.991 4.19223 -0.427793 0
M  V30 5008 H 472.715 3.24431 0.375761 0
M  V30 5009 H 471.374 3.21776 -1.75658 0
M  V30 5010 H 471.022 5.02953 -0.0688703 0
M  V30 5011 H 470.722 5.61755 -1.72352 0
M  V30 5012 H 472.246 6.04042 -0.892494 0
M  V30 5013 H 473.66 4.95315 -2.8868 0
M  V30 5014 H 472.057 4.76021 -3.6541 0
M  V30 5015 H 473.127 3.35498 -3.50099 0
M  V30 5016 N 474.47 1.03057 1.19235 0
M  V30 5017 C 475.718 0.726581 1.88587 0
M  V30 5018 C 476.039 -0.747227 1.80115 0
M  V30 5019 O 475.309 -1.53849 1.21274 0
M  V30 5020 H 473.889 0.265768 0.698124 0
M  V30 5021 H 476.551 1.30516 1.44746 0
M  V30 5022 H 475.647 1.0224 2.94879 0
M  V30 5023 N 475.948 -1.35272 0.808662 0
M  V30 5024 C 476.878 -2.32315 0.234981 0
M  V30 5025 C 477.859 -1.57572 -0.64071 0
M  V30 5026 O 479.044 -1.8563 -0.570551 0
M  V30 5027 C 476.174 -3.41801 -0.615601 0
M  V30 5028 C 475.128 -4.27694 0.161767 0
M  V30 5029 C 474.454 -5.28519 -0.810649 0
M  V30 5030 C 475.754 -5.04231 1.36193 0
M  V30 5031 H 477.448 -2.80543 1.04575 0
M  V30 5032 H 474.994 -1.3488 0.504315 0
M  V30 5033 H 476.947 -4.08693 -1.02702 0
M  V30 5034 H 475.671 -2.92186 -1.45928 0
M  V30 5035 H 474.33 -3.62384 0.554382 0
M  V30 5036 H 473.978 -4.75171 -1.64988 0
M  V30 5037 H 473.678 -5.8686 -0.294822 0
M  V30 5038 H 475.202 -5.98283 -1.22023 0
M  V30 5039 H 476.616 -5.64058 1.02528 0
M  V30 5040 H 475.013 -5.72077 1.81239 0
M  V30 5041 H 476.083 -4.34753 2.14751 0
M  V30 5042 N 477.426 -0.562348 -1.47226 0
M  V30 5043 C 478.672 -0.0402761 -2.0276 0
M  V30 5044 C 479.005 1.30823 -1.43523 0
M  V30 5045 O 478.28 1.85249 -0.592705 0
M  V30 5046 C 478.563 0.047311 -3.60069 0
M  V30 5047 C 478.416 -1.32865 -4.29729 0
M  V30 5048 C 479.735 0.758182 -4.3352 0
M  V30 5049 H 476.854 -0.0161105 -0.736824 0
M  V30 5050 H 479.496 -0.725628 -1.75598 0
M  V30 5051 H 477.646 0.630986 -3.83342 0
M  V30 5052 H 479.318 -1.95593 -4.17781 0
M  V30 5053 H 477.561 -1.90195 -3.89882 0
M  V30 5054 H 478.232 -1.22004 -5.38349 0
M  V30 5055 H 480.708 0.262546 -4.15271 0
M  V30 5056 H 479.584 0.78844 -5.43208 0
M  V30 5057 H 479.845 1.81537 -4.03109 0
M  V30 5058 N 478.904 1.54736 -0.299062 0
M  V30 5059 C 480.15 2.00397 0.311244 0
M  V30 5060 C 480.483 1.18716 1.53688 0
M  V30 5061 O 479.758 0.263154 1.92712 0
M  V30 5062 C 480.041 3.53817 0.669761 0
M  V30 5063 C 479.894 4.46239 -0.564882 0
M  V30 5064 C 481.213 4.13856 1.49702 0
M  V30 5065 H 478.332 0.728493 0.111653 0
M  V30 5066 H 480.974 1.85506 -0.410774 0
M  V30 5067 H 479.124 3.66637 1.28491 0
M  V30 5068 H 480.796 4.45328 -1.20337 0
M  V30 5069 H 479.039 4.16916 -1.19849 0
M  V30 5070 H 479.71 5.5134 -0.269918 0
M  V30 5071 H 482.186 4.04461 0.977284 0
M  V30 5072 H 481.062 5.21365 1.71666 0
M  V30 5073 H 481.323 3.65608 2.48563 0
M  V30 5074 N 480.382 0.0267497 1.57577 0
M  V30 5075 C 481.63 -0.651116 1.91324 0
M  V30 5076 C 481.951 -1.72804 0.90353 0
M  V30 5077 O 481.221 -1.95822 -0.0552946 0
M  V30 5078 H 479.801 -0.243491 0.706202 0
M  V30 5079 H 482.463 0.0739935 1.94759 0
M  V30 5080 H 481.559 -1.10536 2.9187 0
M  V30 5081 N 481.861 -1.55662 -0.24637 0
M  V30 5082 C 482.791 -1.93377 -1.30873 0
M  V30 5083 C 483.772 -0.798773 -1.50179 0
M  V30 5084 O 484.957 -1.0591 -1.62778 0
M  V30 5085 C 482.087 -2.22893 -2.66338 0
M  V30 5086 C 481.041 -3.38649 -2.61727 0
M  V30 5087 C 480.367 -3.53708 -4.00992 0
M  V30 5088 C 481.667 -4.74323 -2.18666 0
M  V30 5089 H 483.361 -2.82363 -0.995552 0
M  V30 5090 H 480.907 -1.35854 -0.477464 0
M  V30 5091 H 482.86 -2.47866 -3.40794 0
M  V30 5092 H 481.584 -1.30733 -2.99293 0
M  V30 5093 H 480.243 -3.13685 -1.89729 0
M  V30 5094 H 479.891 -2.58967 -4.31214 0
M  V30 5095 H 479.591 -4.31551 -3.98795 0
M  V30 5096 H 481.115 -3.81003 -4.77147 0
M  V30 5097 H 482.529 -4.98665 -2.82854 0
M  V30 5098 H 480.926 -5.55273 -2.27579 0
M  V30 5099 H 481.996 -4.71349 -1.13834 0
M  V30 5100 N 483.339 0.512053 -1.4905 0
M  V30 5101 C 484.616 1.27337 -1.48474 0
M  V30 5102 C 484.996 2.1009 -0.206301 0
M  V30 5103 O 484.344 2.136 0.811609 0
M  V30 5104 C 484.554 2.13954 -2.75726 0
M  V30 5105 C 485.902 2.73507 -3.24776 0
M  V30 5106 O 486.926 2.24229 -2.76767 0
M  V30 5107 O 485.785 3.63186 -4.08361 0
M  V30 5108 H 482.879 0.575652 -0.593762 0
M  V30 5109 H 485.425 0.527232 -1.61302 0
M  V30 5110 H 484.197 1.52709 -3.60272 0
M  V30 5111 H 483.82 2.95782 -2.65705 0
M  V30 5112 N 484.817 1.37938 0.762283 0
M  V30 5113 C 486.047 1.36685 1.54922 0
M  V30 5114 C 486.455 -0.0474099 1.89141 0
M  V30 5115 O 485.798 -1.02213 1.52638 0
M  V30 5116 C 485.86 2.14963 2.88152 0
M  V30 5117 C 485.524 3.6385 2.76518 0
M  V30 5118 C 486.521 4.57531 2.46904 0
M  V30 5119 C 484.206 4.07095 2.94243 0
M  V30 5120 C 486.2 5.92436 2.35156 0
M  V30 5121 C 483.887 5.42083 2.82116 0
M  V30 5122 C 484.885 6.34567 2.52614 0
M  V30 5123 O 484.573 7.67073 2.40529 0
M  V30 5124 H 484.305 0.469586 0.486276 0
M  V30 5125 H 486.859 1.82012 0.951876 0
M  V30 5126 H 485.089 1.6434 3.50042 0
M  V30 5127 H 486.778 2.06224 3.49609 0
M  V30 5128 H 487.544 4.25428 2.32886 0
M  V30 5129 H 483.423 3.35462 3.16206 0
M  V30 5130 H 486.967 6.64591 2.12049 0
M  V30 5131 H 482.864 5.73785 2.95704 0
M  V30 5132 H 483.632 7.77499 2.55807 0
M  V30 5133 N 486.295 -0.989507 1.22664 0
M  V30 5134 C 487.227 -2.0824 0.957542 0
M  V30 5135 C 488.24 -1.6267 -0.0651098 0
M  V30 5136 O 489.429 -1.77695 0.169312 0
M  V30 5137 C 486.529 -3.36298 0.419145 0
M  V30 5138 C 485.702 -4.10882 1.49982 0
M  V30 5139 C 484.761 -5.17221 0.967904 0
M  V30 5140 O 483.787 -5.44613 1.65487 0
M  V30 5141 N 484.989 -5.80124 -0.20896 0
M  V30 5142 H 487.754 -2.31904 1.89843 0
M  V30 5143 H 485.315 -1.15552 1.13399 0
M  V30 5144 H 487.307 -4.04671 0.0485451 0
M  V30 5145 H 485.877 -3.09671 -0.426937 0
M  V30 5146 H 485.097 -3.37092 2.04359 0
M  V30 5147 H 486.385 -4.57482 2.22682 0
M  V30 5148 H 485.783 -5.60244 -0.783818 0
M  V30 5149 H 484.34 -6.49715 -0.520913 0
M  V30 5150 N 487.773 -1.03688 -1.18687 0
M  V30 5151 C 488.721 -0.618292 -2.24232 0
M  V30 5152 C 489.715 0.353045 -1.6568 0
M  V30 5153 O 490.921 0.220749 -1.78641 0
M  V30 5154 H 487.296 -0.181711 -0.729716 0
M  V30 5155 H 489.267 -1.51893 -2.56848 0
M  V30 5156 C 488.016 0.00677342 -3.47699 0
M  V30 5157 H 487.339 -0.731692 -3.93047 0
M  V30 5158 H 488.779 0.262492 -4.23187 0
M  V30 5159 C 487.238 1.25572 -3.12623 0
M  V30 5160 O 487.768 2.34691 -3.26011 0
M  V30 5161 N 485.974 1.14755 -2.66982 0
M  V30 5162 H 485.521 0.259601 -2.56289 0
M  V30 5163 H 485.479 1.98412 -2.43885 0
M  V30 5164 N 489.251 1.34841 -0.815825 0
M  V30 5165 C 490.662 1.80937 -0.46029 0
M  V30 5166 C 491.013 1.67685 1.01863 0
M  V30 5167 O 490.138 1.21277 1.79223 0
M  V30 5168 C 490.733 3.28509 -0.828708 0
M  V30 5169 C 489.292 3.72712 -0.525644 0
M  V30 5170 C 488.439 2.56676 -1.04941 0
M  V30 5171 H 491.39 1.22688 -1.00664 0
M  V30 5172 H 491.411 3.80279 -0.129757 0
M  V30 5173 H 490.923 3.38122 -1.90513 0
M  V30 5174 H 489.024 3.68642 0.541666 0
M  V30 5175 H 489.137 4.67119 -1.06474 0
M  V30 5176 H 487.501 2.50302 -0.471286 0
M  V30 5177 H 488.284 2.69063 -2.13214 0
M  V30 5178 N 490.729 0.570148 1.46925 0
M  V30 5179 C 491.959 0.0561151 2.06524 0
M  V30 5180 C 492.367 -1.24874 1.42137 0
M  V30 5181 O 491.71 -1.76292 0.516417 0
M  V30 5182 C 491.772 -0.197035 3.5896 0
M  V30 5183 C 491.436 1.02033 4.45464 0
M  V30 5184 C 492.433 1.92921 4.82781 0
M  V30 5185 C 490.118 1.23864 4.86788 0
M  V30 5186 C 492.112 3.03999 5.60235 0
M  V30 5187 C 489.799 2.35249 5.64004 0
M  V30 5188 C 490.797 3.25146 6.0064 0
M  V30 5189 O 490.485 4.34598 6.76299 0
M  V30 5190 H 490.217 0.0487409 0.674241 0
M  V30 5191 H 492.771 0.786915 1.89728 0
M  V30 5192 H 491.001 -0.982299 3.74016 0
M  V30 5193 H 492.69 -0.658032 4.00531 0
M  V30 5194 H 493.456 1.77265 4.51444 0
M  V30 5195 H 489.335 0.54805 4.57731 0
M  V30 5196 H 492.879 3.74192 5.8875 0
M  V30 5197 H 488.776 2.50873 5.94755 0
M  V30 5198 H 489.544 4.32808 6.94708 0
M  V30 5199 N 492.207 -1.54576 0.307264 0
M  V30 5200 C 493.137 -2.26708 -0.55907 0
M  V30 5201 C 494.118 -1.26893 -1.1328 0
M  V30 5202 O 495.303 -1.55677 -1.16097 0
M  V30 5203 C 492.433 -3.01259 -1.72801 0
M  V30 5204 C 491.387 -4.08275 -1.28435 0
M  V30 5205 C 490.713 -4.70575 -2.53895 0
M  V30 5206 C 492.013 -5.2068 -0.411038 0
M  V30 5207 H 493.707 -2.9937 0.042576 0
M  V30 5208 H 491.253 -1.43983 0.0219173 0
M  V30 5209 H 493.206 -3.50444 -2.34023 0
M  V30 5210 H 491.93 -2.26187 -2.356 0
M  V30 5211 H 490.589 -3.59949 -0.695161 0
M  V30 5212 H 490.237 -3.92136 -3.15021 0
M  V30 5213 H 489.937 -5.42854 -2.24908 0
M  V30 5214 H 491.461 -5.22527 -3.15908 0
M  V30 5215 H 492.875 -5.65721 -0.929097 0
M  V30 5216 H 491.272 -5.99716 -0.214664 0
M  V30 5217 H 492.342 -4.81629 0.562287 0
M  V30 5218 N 493.685 -0.035106 -1.57561 0
M  V30 5219 C 494.91 0.655802 -1.96759 0
M  V30 5220 C 495.335 1.64523 -0.911809 0
M  V30 5221 O 494.693 1.80857 0.126673 0
M  V30 5222 C 494.741 1.33326 -3.35047 0
M  V30 5223 O 493.845 2.44866 -3.31835 0
M  V30 5224 H 493.186 0.171807 -0.641388 0
M  V30 5225 H 495.716 -0.0987369 -2.04362 0
M  V30 5226 H 495.726 1.68867 -3.71413 0
M  V30 5227 H 494.401 0.608033 -4.11431 0
M  V30 5228 H 492.978 2.11392 -3.07193 0
M  V30 5229 N 495.163 1.55791 0.238111 0
M  V30 5230 C 496.574 1.68383 0.806472 0
M  V30 5231 C 496.925 0.634157 1.85669 0
M  V30 5232 O 496.05 -0.217913 2.153 0
M  V30 5233 C 496.645 3.05268 1.46959 0
M  V30 5234 C 495.204 3.1977 1.98555 0
M  V30 5235 C 494.351 2.64279 0.839763 0
M  V30 5236 H 497.302 1.58694 0.0137535 0
M  V30 5237 H 497.323 3.00203 2.33792 0
M  V30 5238 H 496.835 3.81643 0.704993 0
M  V30 5239 H 494.936 2.48234 2.77868 0
M  V30 5240 H 495.049 4.26788 2.17689 0
M  V30 5241 H 493.413 2.22329 1.24265 0
M  V30 5242 H 494.196 3.43187 0.0881032 0
M  V30 5243 N 496.642 -0.504142 1.49319 0
M  V30 5244 C 497.889 -1.25846 1.58647 0
M  V30 5245 C 498.217 -1.92592 0.27177 0
M  V30 5246 O 497.472 -1.81167 -0.74007 0
M  V30 5247 C 497.771 -2.35021 2.69258 0
M  V30 5248 C 497.437 -1.85755 4.1086 0
M  V30 5249 C 496.099 -1.72038 4.49395 0
M  V30 5250 C 498.451 -1.48844 4.99495 0
M  V30 5251 C 495.779 -1.19783 5.74342 0
M  V30 5252 C 498.131 -0.980422 6.24956 0
M  V30 5253 C 496.795 -0.829622 6.62324 0
M  V30 5254 H 496.065 -0.460505 0.580531 0
M  V30 5255 H 498.712 -0.559716 1.83138 0
M  V30 5256 H 497.017 -3.10672 2.38726 0
M  V30 5257 H 498.714 -2.93083 2.73685 0
M  V30 5258 H 495.304 -1.9739 3.80441 0
M  V30 5259 H 499.488 -1.5829 4.70381 0
M  V30 5260 H 494.744 -1.06817 6.01997 0
M  V30 5261 H 498.918 -0.685608 6.93017 0
M  V30 5262 H 496.545 -0.42253 7.59025 0
M  V30 5263 N 498.12 -1.38341 -0.754957 0
M  V30 5264 C 499.536 -1.19508 -1.05783 0
M  V30 5265 C 499.736 -0.0428005 -2.01455 0
M  V30 5266 O 498.792 0.611861 -2.44975 0
M  V30 5267 C 500.105 -2.52091 -1.63923 0
M  V30 5268 C 501.653 -2.58762 -1.76101 0
M  V30 5269 C 502.128 -3.91517 -2.37652 0
M  V30 5270 N 503.619 -3.93049 -2.45085 0
M  V30 5271 C 504.354 -4.9253 -2.93602 0
M  V30 5272 N 503.85 -6.02408 -3.42165 0
M  V30 5273 N 505.643 -4.79921 -2.92629 0
M  V30 5274 H 497.794 -2.1206 -0.120056 0
M  V30 5275 H 500.057 -0.94089 -0.11589 0
M  V30 5276 H 499.763 -3.36858 -1.01093 0
M  V30 5277 H 499.637 -2.70388 -2.63003 0
M  V30 5278 H 502.024 -1.74391 -2.38058 0
M  V30 5279 H 502.105 -2.44333 -0.757294 0
M  V30 5280 H 501.749 -4.76309 -1.76329 0
M  V30 5281 H 501.679 -4.03256 -3.38662 0
M  V30 5282 H 504.17 -3.13685 -2.10736 0
M  V30 5283 H 504.483 -6.74248 -3.77637 0
M  V30 5284 H 502.828 -6.0603 -3.40225 0
M  V30 5285 H 506.019 -3.93194 -2.54001 0
M  V30 5286 H 506.192 -5.57601 -3.30128 0
M  V30 5287 N 499.598 0.982988 -1.23187 0
M  V30 5288 C 500.508 2.10907 -1.02739 0
M  V30 5289 C 501.524 1.73979 0.0273188 0
M  V30 5290 O 502.7 2.00702 -0.16757 0
M  V30 5291 C 499.765 3.41142 -0.618304 0
M  V30 5292 C 498.826 3.92112 -1.74777 0
M  V30 5293 C 498.059 5.16131 -1.3581 0
M  V30 5294 O 498.282 5.6989 -0.241201 0
M  V30 5295 O 497.216 5.61103 -2.17824 0
M  V30 5296 H 501.042 2.31046 -1.97108 0
M  V30 5297 H 498.627 1.09284 -1.01869 0
M  V30 5298 H 500.509 4.19488 -0.400982 0
M  V30 5299 H 499.184 3.2234 0.296421 0
M  V30 5300 H 498.091 3.14895 -2.0197 0
M  V30 5301 H 499.424 4.15364 -2.64071 0
M  V30 5302 N 501.076 1.04316 1.18135 0
M  V30 5303 C 502.323 0.74802 1.88178 0
M  V30 5304 C 502.651 -0.72441 1.80506 0
M  V30 5305 O 501.906 -1.54463 1.20165 0
M  V30 5306 C 502.205 1.16271 3.37958 0
M  V30 5307 C 501.871 2.63585 3.65833 0
M  V30 5308 C 500.533 3.03829 3.73151 0
M  V30 5309 C 502.885 3.58822 3.78016 0
M  V30 5310 C 500.213 4.38194 3.90132 0
M  V30 5311 C 502.565 4.92909 3.96514 0
M  V30 5312 C 501.229 5.3282 4.02068 0
M  V30 5313 H 500.499 0.27372 0.688592 0
M  V30 5314 H 503.146 1.30863 1.39811 0
M  V30 5315 H 501.451 0.520938 3.88321 0
M  V30 5316 H 503.148 0.911672 3.90499 0
M  V30 5317 H 499.738 2.31414 3.60757 0
M  V30 5318 H 503.922 3.28875 3.71692 0
M  V30 5319 H 499.178 4.68631 3.92677 0
M  V30 5320 H 503.352 5.66606 4.04883 0
M  V30 5321 H 500.979 6.36943 4.14979 0
M  V30 5322 N 502.554 -1.34406 0.822964 0
M  V30 5323 C 503.486 -2.28305 0.202375 0
M  V30 5324 C 504.499 -1.5103 -0.60777 0
M  V30 5325 O 505.688 -1.73057 -0.437444 0
M  V30 5326 C 502.788 -3.30836 -0.734911 0
M  V30 5327 C 501.961 -4.37388 0.0324177 0
M  V30 5328 C 501.02 -5.1968 -0.825803 0
M  V30 5329 O 500.046 -5.68556 -0.270771 0
M  V30 5330 N 501.248 -5.39393 -2.14558 0
M  V30 5331 H 504.013 -2.82201 1.00909 0
M  V30 5332 H 501.574 -1.4693 0.67993 0
M  V30 5333 H 503.566 -3.82786 -1.31365 0
M  V30 5334 H 502.136 -2.77334 -1.44238 0
M  V30 5335 H 501.356 -3.86152 0.792469 0
M  V30 5336 H 502.644 -5.05702 0.560633 0
M  V30 5337 H 502.042 -5.01357 -2.62025 0
M  V30 5338 H 500.599 -5.94461 -2.67318 0
M  V30 5339 N 504.032 -0.577932 -1.46621 0
M  V30 5340 C 505.448 -0.239242 -1.57797 0
M  V30 5341 C 505.648 1.25843 -1.57371 0
M  V30 5342 O 504.704 2.03988 -1.48813 0
M  V30 5343 C 506.017 -0.884227 -2.87405 0
M  V30 5344 C 507.565 -0.857373 -3.01028 0
M  V30 5345 C 508.04 -1.48181 -4.33366 0
M  V30 5346 N 509.531 -1.44593 -4.40053 0
M  V30 5347 C 510.266 -1.89852 -5.41058 0
M  V30 5348 N 509.762 -2.43062 -6.48762 0
M  V30 5349 N 511.555 -1.80797 -5.3223 0
M  V30 5350 H 503.706 -1.55073 -1.45142 0
M  V30 5351 H 505.969 -0.647903 -0.692044 0
M  V30 5352 H 505.675 -1.93759 -2.93514 0
M  V30 5353 H 505.549 -0.389585 -3.75183 0
M  V30 5354 H 507.936 0.187357 -2.94505 0
M  V30 5355 H 508.017 -1.38999 -2.14739 0
M  V30 5356 H 507.661 -2.52572 -4.40647 0
M  V30 5357 H 507.591 -0.924464 -5.18422 0
M  V30 5358 H 510.082 -1.05694 -3.62819 0
M  V30 5359 H 510.395 -2.75466 -7.22038 0
M  V30 5360 H 508.74 -2.47085 -6.49595 0
M  V30 5361 H 511.931 -1.38989 -4.46989 0
M  V30 5362 H 512.104 -2.16385 -6.10804 0
M  V30 5363 N 505.51 1.54411 -0.315457 0
M  V30 5364 C 506.756 2.01425 0.282775 0
M  V30 5365 C 507.111 1.19978 1.5041 0
M  V30 5366 O 506.404 0.271766 1.89663 0
M  V30 5367 C 506.598 3.50936 0.676652 0
M  V30 5368 C 506.427 4.46856 -0.504954 0
M  V30 5369 C 505.197 4.95275 -1.00152 0
M  V30 5370 C 507.395 4.96141 -1.35456 0
M  V30 5371 N 505.377 5.75081 -2.14838 0
M  V30 5372 C 506.748 5.73791 -2.3487 0
M  V30 5373 C 508.803 4.78299 -1.38327 0
M  V30 5374 C 507.506 6.35498 -3.36949 0
M  V30 5375 C 509.532 5.40836 -2.39271 0
M  V30 5376 C 508.894 6.1833 -3.37413 0
M  V30 5377 H 504.993 0.779078 0.0675398 0
M  V30 5378 H 507.577 1.8946 -0.448656 0
M  V30 5379 H 505.748 3.63162 1.37723 0
M  V30 5380 H 507.48 3.84728 1.25566 0
M  V30 5381 H 504.235 4.70107 -0.574123 0
M  V30 5382 H 504.659 6.19664 -2.72665 0
M  V30 5383 H 509.301 4.17956 -0.638196 0
M  V30 5384 H 507.019 6.94967 -4.12367 0
M  V30 5385 H 510.605 5.28952 -2.42284 0
M  V30 5386 H 509.485 6.65861 -4.14244 0
M  V30 5387 N 506.988 0.0434614 1.5754 0
M  V30 5388 C 507.935 -0.93356 2.11077 0
M  V30 5389 C 508.905 -1.31383 1.01626 0
M  V30 5390 O 510.09 -1.40465 1.29129 0
M  V30 5391 C 507.23 -2.20578 2.65404 0
M  V30 5392 C 506.343 -1.88068 3.88914 0
M  V30 5393 C 505.478 -3.09691 4.31584 0
M  V30 5394 C 504.517 -2.73067 5.47815 0
M  V30 5395 N 503.654 -3.87359 5.85574 0
M  V30 5396 H 508.494 -0.470118 2.94268 0
M  V30 5397 H 506.031 -0.220434 1.45439 0
M  V30 5398 H 507.989 -2.95011 2.94999 0
M  V30 5399 H 506.619 -2.64513 1.85021 0
M  V30 5400 H 505.671 -1.03816 3.6596 0
M  V30 5401 H 506.983 -1.57104 4.73413 0
M  V30 5402 H 506.137 -3.92431 4.62691 0
M  V30 5403 H 504.876 -3.43827 3.45882 0
M  V30 5404 H 503.881 -1.88742 5.16388 0
M  V30 5405 H 505.106 -2.40131 6.35227 0
M  V30 5406 H 503.052 -4.21311 5.02825 0
M  V30 5407 H 502.969 -3.60068 6.64746 0
M  V30 5408 H 504.237 -4.70761 6.21292 0
M  V30 5409 N 508.466 -1.55915 -0.229846 0
M  V30 5410 C 509.416 -1.8813 -1.28807 0
M  V30 5411 C 510.4 -0.743621 -1.42685 0
M  V30 5412 O 511.592 -1.00588 -1.4564 0
M  V30 5413 C 508.721 -2.19431 -2.64017 0
M  V30 5414 C 507.807 -3.39569 -2.54074 0
M  V30 5415 N 508.198 -4.58404 -2.13774 0
M  V30 5416 C 506.496 -3.43019 -2.85051 0
M  V30 5417 C 507.197 -5.40557 -2.1488 0
M  V30 5418 N 506.173 -4.80054 -2.55047 0
M  V30 5419 H 509.975 -2.77527 -0.967261 0
M  V30 5420 H 507.489 -1.5637 -0.438433 0
M  V30 5421 H 509.486 -2.40681 -3.40409 0
M  V30 5422 H 508.146 -1.31341 -2.9695 0
M  V30 5423 H 509.157 -4.83716 -1.8504 0
M  V30 5424 H 505.834 -2.65249 -3.22411 0
M  V30 5425 H 507.224 -6.45666 -1.85918 0
M  V30 5426 N 509.944 0.496216 -1.49584 0
M  V30 5427 C 510.894 1.59422 -1.62999 0
M  V30 5428 C 511.878 1.53402 -0.485457 0
M  V30 5429 O 513.07 1.60851 -0.738649 0
M  V30 5430 C 510.199 2.98009 -1.70427 0
M  V30 5431 C 509.285 3.09008 -2.90473 0
M  V30 5432 N 509.676 2.89884 -4.14489 0
M  V30 5433 C 507.974 3.40115 -2.8851 0
M  V30 5434 C 508.675 3.0519 -4.95211 0
M  V30 5435 N 507.651 3.3428 -4.2867 0
M  V30 5436 H 511.453 1.43297 -2.56599 0
M  V30 5437 H 508.967 0.702443 -1.46422 0
M  V30 5438 H 510.964 3.76926 -1.78136 0
M  V30 5439 H 509.624 3.152 -0.77967 0
M  V30 5440 H 510.635 2.65963 -4.44392 0
M  V30 5441 H 507.312 3.63452 -2.05448 0
M  V30 5442 H 508.702 2.94856 -6.03746 0
M  V30 5443 N 511.423 1.38739 0.74761 0
M  V30 5444 C 512.834 1.31507 1.32524 0
M  V30 5445 C 513.185 -0.0263963 1.96182 0
M  V30 5446 O 512.31 -0.92849 1.95469 0
M  V30 5447 C 512.905 2.38162 2.40966 0
M  V30 5448 C 511.464 2.34489 2.94434 0
M  V30 5449 C 510.611 2.20712 1.67873 0
M  V30 5450 H 513.562 1.4901 0.546043 0
M  V30 5451 H 513.583 2.04222 3.21051 0
M  V30 5452 H 513.095 3.35783 1.94605 0
M  V30 5453 H 511.196 1.40467 3.45108 0
M  V30 5454 H 511.309 3.28861 3.48407 0
M  V30 5455 H 509.673 1.67667 1.91729 0
M  V30 5456 H 510.456 3.20285 1.23582 0
M  V30 5457 N 512.901 -0.976442 1.23707 0
M  V30 5458 C 514.126 -1.75875 1.09922 0
M  V30 5459 C 514.551 -1.84911 -0.34489 0
M  V30 5460 O 513.909 -1.31363 -1.24954 0
M  V30 5461 C 513.957 -3.16179 1.73388 0
M  V30 5462 O 513.061 -4.00124 0.99871 0
M  V30 5463 H 512.402 -0.540954 0.385052 0
M  V30 5464 H 514.932 -1.22546 1.6384 0
M  V30 5465 H 514.942 -3.66741 1.78788 0
M  V30 5466 H 513.617 -3.08917 2.78466 0
M  V30 5467 H 512.194 -3.58624 1.02193 0
M  V30 5468 N 514.379 -1.04941 -1.1758 0
M  V30 5469 C 515.628 -0.753124 -1.87112 0
M  V30 5470 C 515.941 0.722507 -1.81767 0
M  V30 5471 O 517.147 1.13265 -2.46746 0
M  V30 5472 C 515.603 -1.29695 -3.35719 0
M  V30 5473 C 515.211 -2.80184 -3.49572 0
M  V30 5474 C 516.955 -1.07759 -4.10595 0
M  V30 5475 C 514.862 -3.2788 -4.92187 0
M  V30 5476 H 513.792 -0.278034 -0.700866 0
M  V30 5477 H 516.443 -1.26637 -1.32798 0
M  V30 5478 H 514.825 -0.711522 -3.89555 0
M  V30 5479 H 515.999 -3.44561 -3.05965 0
M  V30 5480 H 514.314 -3.00632 -2.88113 0
M  V30 5481 H 516.911 -1.40899 -5.15802 0
M  V30 5482 H 517.254 -0.0152302 -4.16297 0
M  V30 5483 H 517.787 -1.62809 -3.62957 0
M  V30 5484 H 514.526 -4.33535 -4.91658 0
M  V30 5485 H 514.046 -2.68245 -5.36475 0
M  V30 5486 H 515.725 -3.22412 -5.60945 0
M  V30 5487 N 515.857 1.33968 -0.830081 0
M  V30 5488 C 517.273 1.51003 -0.516742 0
M  V30 5489 C 517.473 1.77286 0.957694 0
M  V30 5490 O 516.529 1.82797 1.74188 0
M  V30 5491 C 517.842 2.67036 -1.38247 0
M  V30 5492 C 519.39 2.80919 -1.38034 0
M  V30 5493 C 519.865 4.00004 -2.23071 0
M  V30 5494 N 521.356 4.07224 -2.20733 0
M  V30 5495 C 522.091 4.98541 -2.83275 0
M  V30 5496 N 521.587 5.95033 -3.54835 0
M  V30 5497 N 523.38 4.91469 -2.72791 0
M  V30 5498 H 515.531 1.15168 -1.78466 0
M  V30 5499 H 517.794 0.565443 -0.760906 0
M  V30 5500 H 517.5 2.54266 -2.42985 0
M  V30 5501 H 517.374 3.62226 -1.05225 0
M  V30 5502 H 519.761 2.93127 -0.340713 0
M  V30 5503 H 519.842 1.86517 -1.75057 0
M  V30 5504 H 519.486 3.88557 -3.27087 0
M  V30 5505 H 519.416 4.93634 -1.83394 0
M  V30 5506 H 521.907 3.38162 -1.68687 0
M  V30 5507 H 522.22 6.61357 -3.99784 0
M  V30 5508 H 520.565 5.95135 -3.58942 0
M  V30 5509 H 523.756 4.15048 -2.16456 0
M  V30 5510 H 523.929 5.62439 -3.21818 0
M  V30 5511 N 517.335 0.585699 1.46312 0
M  V30 5512 C 518.746 0.159938 1.86014 0
M  V30 5513 C 519.097 -1.27775 1.48889 0
M  V30 5514 O 518.222 -1.96559 0.90519 0
M  V30 5515 C 518.817 0.283485 3.37612 0
M  V30 5516 C 517.376 -0.0874256 3.76298 0
M  V30 5517 C 516.523 0.618055 2.70325 0
M  V30 5518 H 519.474 0.793737 1.37425 0
M  V30 5519 H 519.495 -0.490348 3.77327 0
M  V30 5520 H 519.007 1.32995 3.64601 0
M  V30 5521 H 517.108 -1.13391 3.54927 0
M  V30 5522 H 517.221 0.290975 4.78216 0
M  V30 5523 H 515.585 0.057993 2.54634 0
M  V30 5524 H 516.368 1.66623 3.00153 0
M  V30 5525 N 518.813 -1.54241 0.323641 0
M  V30 5526 C 520.041 -2.04985 -0.280871 0
M  V30 5527 C 520.456 -1.19978 -1.45777 0
M  V30 5528 O 519.813 -0.230471 -1.81039 0
M  V30 5529 C 519.864 -3.54353 -0.715258 0
M  V30 5530 O 519.585 -4.36132 0.414817 0
M  V30 5531 C 521.086 -4.21189 -1.38257 0
M  V30 5532 H 518.306 -0.66851 -0.0577502 0
M  V30 5533 H 520.85 -1.99029 0.469852 0
M  V30 5534 H 519.005 -3.60596 -1.41596 0
M  V30 5535 H 519.419 -5.2445 0.0725227 0
M  V30 5536 H 520.893 -5.27154 -1.63745 0
M  V30 5537 H 521.37 -3.72307 -2.32989 0
M  V30 5538 H 521.976 -4.19085 -0.724447 0
M  V30 5539 N 520.291 -0.0518155 -1.57515 0
M  V30 5540 C 521.221 0.920283 -2.146 0
M  V30 5541 C 522.202 1.32406 -1.06783 0
M  V30 5542 O 523.387 1.39866 -1.34726 0
M  V30 5543 C 520.517 2.1949 -2.6915 0
M  V30 5544 C 519.471 1.93116 -3.81956 0
M  V30 5545 C 518.797 3.27037 -4.23026 0
M  V30 5546 C 520.097 1.25225 -5.07066 0
M  V30 5547 H 521.791 0.444801 -2.96077 0
M  V30 5548 H 519.337 0.212508 -1.42423 0
M  V30 5549 H 521.29 2.87894 -3.07725 0
M  V30 5550 H 520.014 2.69244 -1.84865 0
M  V30 5551 H 518.673 1.27123 -3.43854 0
M  V30 5552 H 518.321 3.74595 -3.3569 0
M  V30 5553 H 518.021 3.10189 -4.99056 0
M  V30 5554 H 519.545 3.96673 -4.64202 0
M  V30 5555 H 520.959 1.83666 -5.43083 0
M  V30 5556 H 519.356 1.18702 -5.88243 0
M  V30 5557 H 520.426 0.228382 -4.84362 0
M  V30 5558 N 521.769 1.56035 0.221574 0
M  V30 5559 C 522.679 1.95581 1.29558 0
M  V30 5560 C 523.695 0.859639 1.51282 0
M  V30 5561 O 524.871 1.16321 1.64413 0
M  V30 5562 C 521.936 2.26447 2.62531 0
M  V30 5563 C 520.997 3.49632 2.4911 0
M  V30 5564 C 520.23 3.79017 3.75742 0
M  V30 5565 O 520.453 3.10077 4.78757 0
M  V30 5566 O 519.387 4.72507 3.72855 0
M  V30 5567 H 523.213 2.8711 0.990035 0
M  V30 5568 H 520.798 1.43244 0.424434 0
M  V30 5569 H 522.68 2.47494 3.41064 0
M  V30 5570 H 521.355 1.38092 2.92766 0
M  V30 5571 H 520.262 3.33864 1.68777 0
M  V30 5572 H 521.595 4.3837 2.23814 0
M  V30 5573 N 523.247 -0.488276 1.49845 0
M  V30 5574 C 524.495 -1.23911 1.59657 0
M  V30 5575 C 524.816 -1.92816 0.291005 0
M  V30 5576 O 524.086 -1.83328 -0.690485 0
M  V30 5577 H 522.666 -0.460357 0.588286 0
M  V30 5578 H 525.328 -0.564794 1.86537 0
M  V30 5579 H 524.424 -1.99625 2.39909 0
M  V30 5580 N 524.725 -1.39134 -0.740242 0
M  V30 5581 C 525.973 -1.35803 -1.49673 0
M  V30 5582 C 526.294 0.0470897 -1.94943 0
M  V30 5583 O 525.564 0.997347 -1.68611 0
M  V30 5584 H 524.144 -0.499736 -0.555224 0
M  V30 5585 H 526.806 -1.73947 -0.879107 0
M  V30 5586 H 525.902 -2.0174 -2.38133 0
M  V30 5587 N 526.204 0.969867 -1.24223 0
M  V30 5588 C 527.151 2.06407 -1.0327 0
M  V30 5589 C 528.121 1.66014 0.0533 0
M  V30 5590 O 529.306 1.90533 -0.100896 0
M  V30 5591 C 526.446 3.3909 -0.641262 0
M  V30 5592 C 525.559 3.9269 -1.80051 0
M  V30 5593 C 524.694 5.13631 -1.35486 0
M  V30 5594 C 523.733 5.59423 -2.48419 0
M  V30 5595 N 522.87 6.71586 -2.04737 0
M  V30 5596 H 527.71 2.23663 -1.96923 0
M  V30 5597 H 525.247 1.09624 -0.980862 0
M  V30 5598 H 527.205 4.15323 -0.395351 0
M  V30 5599 H 525.835 3.21765 0.258269 0
M  V30 5600 H 524.887 3.13116 -2.16014 0
M  V30 5601 H 526.199 4.22636 -2.64916 0
M  V30 5602 H 525.353 5.97231 -1.0677 0
M  V30 5603 H 524.092 4.85364 -0.476722 0
M  V30 5604 H 523.097 4.74398 -2.77897 0
M  V30 5605 H 524.322 5.89705 -3.36786 0
M  V30 5606 H 522.268 6.45058 -1.19318 0
M  V30 5607 H 522.185 7.0097 -2.83156 0
M  V30 5608 H 523.453 7.58633 -1.79154 0
M  V30 5609 N 527.682 1.05563 1.17022 0
M  V30 5610 C 529.098 0.777684 1.39371 0
M  V30 5611 C 529.298 -0.626269 1.91521 0
M  V30 5612 O 528.354 -1.38806 2.10924 0
M  V30 5613 C 529.667 1.83642 2.3811 0
M  V30 5614 C 531.215 1.85907 2.51809 0
M  V30 5615 C 531.69 2.90813 3.53824 0
M  V30 5616 N 533.181 2.898 3.61345 0
M  V30 5617 C 533.916 3.6762 4.40049 0
M  V30 5618 N 533.412 4.55237 5.22237 0
M  V30 5619 N 535.205 3.56044 4.34959 0
M  V30 5620 H 527.356 1.9614 0.815047 0
M  V30 5621 H 529.619 0.849527 0.420722 0
M  V30 5622 H 529.325 2.84425 2.06871 0
M  V30 5623 H 529.199 1.6812 3.37662 0
M  V30 5624 H 531.586 0.857865 2.82356 0
M  V30 5625 H 531.667 2.05506 1.52318 0
M  V30 5626 H 531.311 3.91122 3.24015 0
M  V30 5627 H 531.241 2.68465 4.53028 0
M  V30 5628 H 533.732 2.26274 3.02669 0
M  V30 5629 H 534.045 5.11291 5.79484 0
M  V30 5630 H 532.39 4.59296 5.21605 0
M  V30 5631 H 535.581 2.86986 3.69806 0
M  V30 5632 H 535.754 4.16938 4.96051 0
M  V30 5633 N 529.16 -1.33526 0.837174 0
M  V30 5634 C 530.409 -1.97098 0.428387 0
M  V30 5635 C 530.722 -1.67062 -1.01734 0
M  V30 5636 O 531.928 -2.24235 -1.53072 0
M  V30 5637 C 530.384 -3.52725 0.715075 0
M  V30 5638 C 529.992 -3.9164 2.17537 0
M  V30 5639 C 531.736 -4.22857 0.373154 0
M  V30 5640 C 529.643 -5.40237 2.40619 0
M  V30 5641 H 528.573 -0.737589 0.156455 0
M  V30 5642 H 531.224 -1.52169 1.02552 0
M  V30 5643 H 529.606 -3.95971 0.0475904 0
M  V30 5644 H 530.78 -3.59456 2.88319 0
M  V30 5645 H 529.095 -3.34485 2.4801 0
M  V30 5646 H 531.692 -5.32133 0.523264 0
M  V30 5647 H 532.035 -4.10647 -0.683708 0
M  V30 5648 H 532.568 -3.85135 0.995801 0
M  V30 5649 H 529.307 -5.57449 3.44864 0
M  V30 5650 H 528.827 -5.73887 1.74396 0
M  V30 5651 H 530.506 -6.07102 2.23688 0
M  V30 5652 N 530.638 -0.59345 -1.46 0
M  V30 5653 C 531.601 0.123538 -2.28867 0
M  V30 5654 C 532.601 0.808628 -1.38989 0
M  V30 5655 O 533.791 0.658945 -1.61256 0
M  V30 5656 C 530.923 1.1847 -3.19653 0
M  V30 5657 H 532.116 -0.604843 -2.93737 0
M  V30 5658 H 529.669 -0.351875 -1.52288 0
M  V30 5659 H 530.404 1.94431 -2.59552 0
M  V30 5660 H 530.189 0.69783 -3.8584 0
M  V30 5661 H 531.679 1.68726 -3.81997 0
M  V30 5662 N 532.116 1.54067 -0.331816 0
M  V30 5663 C 533.346 2.04833 0.269605 0
M  V30 5664 C 533.754 1.20714 1.45687 0
M  V30 5665 O 533.097 0.232539 1.82222 0
M  V30 5666 C 533.159 3.51386 0.759499 0
M  V30 5667 C 532.823 4.55971 -0.306557 0
M  V30 5668 C 533.82 5.07126 -1.14538 0
M  V30 5669 C 531.505 5.00216 -0.457116 0
M  V30 5670 C 533.499 6.01096 -2.12042 0
M  V30 5671 C 531.186 5.93999 -1.43556 0
M  V30 5672 C 532.184 6.44326 -2.26568 0
M  V30 5673 O 531.872 7.36267 -3.22749 0
M  V30 5674 H 531.604 0.673509 0.0579763 0
M  V30 5675 H 534.158 1.99748 -0.478521 0
M  V30 5676 H 532.388 3.53896 1.55867 0
M  V30 5677 H 534.077 3.85184 1.28017 0
M  V30 5678 H 534.843 4.73716 -1.04009 0
M  V30 5679 H 530.722 4.60652 0.179142 0
M  V30 5680 H 534.266 6.40302 -2.76873 0
M  V30 5681 H 530.163 6.26825 -1.54146 0
M  V30 5682 H 530.931 7.54165 -3.18083 0
M  V30 5683 N 533.594 0.0601682 1.57485 0
M  V30 5684 C 534.842 -0.610386 1.92662 0
M  V30 5685 C 535.163 -1.70849 0.939981 0
M  V30 5686 O 534.433 -1.95895 -0.0137455 0
M  V30 5687 H 533.013 -0.228457 0.711208 0
M  V30 5688 H 535.675 0.115288 1.94559 0
M  V30 5689 H 534.771 -1.0432 2.94149 0
M  V30 5690 N 535.072 -1.5615 -0.213296 0
M  V30 5691 C 536.035 -1.92249 -1.24792 0
M  V30 5692 C 537.035 -0.801828 -1.39382 0
M  V30 5693 O 538.225 -1.06948 -1.37506 0
M  V30 5694 C 535.357 -2.18056 -2.62039 0
M  V30 5695 H 536.55 -2.84793 -0.939845 0
M  V30 5696 H 534.103 -1.49559 -0.454062 0
M  V30 5697 H 534.838 -1.2809 -2.97932 0
M  V30 5698 H 534.623 -2.99703 -2.52825 0
M  V30 5699 H 536.113 -2.47051 -3.36683 0
M  V30 5700 N 536.55 0.480323 -1.50102 0
M  V30 5701 C 537.966 0.813295 -1.37323 0
M  V30 5702 C 538.166 1.97027 -0.422206 0
M  V30 5703 O 537.222 2.5212 0.138563 0
M  V30 5704 C 538.535 1.13404 -2.78496 0
M  V30 5705 C 540.083 1.24104 -2.87345 0
M  V30 5706 C 540.558 1.59497 -4.29331 0
M  V30 5707 N 542.049 1.66507 -4.32238 0
M  V30 5708 C 542.784 1.95378 -5.39087 0
M  V30 5709 N 542.28 2.22333 -6.56155 0
M  V30 5710 N 544.073 1.96803 -5.26522 0
M  V30 5711 H 536.224 -0.282291 -2.10516 0
M  V30 5712 H 538.487 -0.063752 -0.945854 0
M  V30 5713 H 538.193 0.357064 -3.49883 0
M  V30 5714 H 538.067 2.07251 -3.15162 0
M  V30 5715 H 540.454 2.00871 -2.16183 0
M  V30 5716 H 540.535 0.282593 -2.54234 0
M  V30 5717 H 540.179 0.832736 -5.01027 0
M  V30 5718 H 540.109 2.56477 -4.59921 0
M  V30 5719 H 542.6 1.47753 -3.47818 0
M  V30 5720 H 542.913 2.43611 -7.33399 0
M  V30 5721 H 541.258 2.19745 -6.59346 0
M  V30 5722 H 544.449 1.75235 -4.34062 0
M  V30 5723 H 544.622 2.18969 -6.09883 0
M  V30 5724 N 538.028 1.39524 0.732853 0
M  V30 5725 C 538.991 1.38189 1.82857 0
M  V30 5726 C 539.991 0.278624 1.58368 0
M  V30 5727 O 541.181 0.536639 1.65728 0
M  V30 5728 C 538.313 1.15661 3.2068 0
M  V30 5729 H 539.506 2.35692 1.85444 0
M  V30 5730 H 537.059 1.2512 0.936728 0
M  V30 5731 H 537.794 0.188482 3.23752 0
M  V30 5732 H 537.579 1.95559 3.39852 0
M  V30 5733 H 539.069 1.17472 4.00737 0
M  V30 5734 N 539.506 -0.963266 1.24736 0
M  V30 5735 C 540.436 -2.07628 1.06832 0
M  V30 5736 C 541.417 -1.70088 -0.0200566 0
M  V30 5737 O 542.602 -1.93636 0.147854 0
M  V30 5738 C 539.732 -3.40636 0.677069 0
M  V30 5739 C 538.686 -3.9215 1.71471 0
M  V30 5740 C 538.012 -5.21553 1.1784 0
M  V30 5741 C 539.312 -4.19493 3.11164 0
M  V30 5742 H 541.006 -2.22864 1.9993 0
M  V30 5743 H 538.552 -1.07093 0.96266 0
M  V30 5744 H 540.505 -4.17941 0.538792 0
M  V30 5745 H 539.229 -3.25313 -0.289612 0
M  V30 5746 H 537.888 -3.17005 1.84128 0
M  V30 5747 H 537.536 -5.02593 0.202195 0
M  V30 5748 H 537.236 -5.56988 1.87185 0
M  V30 5749 H 538.76 -6.01463 1.05233 0
M  V30 5750 H 540.174 -4.87487 3.01711 0
M  V30 5751 H 538.571 -4.66165 3.77902 0
M  V30 5752 H 539.641 -3.26097 3.58871 0
M  V30 5753 N 540.985 -1.06182 -1.16461 0
M  V30 5754 C 541.933 -0.665716 -2.2287 0
M  V30 5755 C 542.927 0.317822 -1.66392 0
M  V30 5756 O 544.133 0.182807 -1.79069 0
M  V30 5757 H 540.508 -0.197148 -0.725697 0
M  V30 5758 H 542.479 -1.57307 -2.53569 0
M  V30 5759 C 541.228 -0.0669803 -3.47635 0
M  V30 5760 H 540.551 -0.814899 -3.91407 0
M  V30 5761 H 541.991 0.172669 -4.23648 0
M  V30 5762 C 540.45 1.18913 -3.15216 0
M  V30 5763 O 540.98 2.27723 -3.30916 0
M  V30 5764 N 539.186 1.09066 -2.69357 0
M  V30 5765 H 538.733 0.20518 -2.56782 0
M  V30 5766 H 538.691 1.93195 -2.48039 0
M  V30 5767 N 542.463 1.3308 -0.844243 0
M  V30 5768 C 543.373 2.32876 -0.283922 0
M  V30 5769 C 544.389 1.63589 0.592846 0
M  V30 5770 O 545.565 1.95205 0.495693 0
M  V30 5771 C 542.63 3.42667 0.527283 0
M  V30 5772 C 541.691 4.27664 -0.374394 0
M  V30 5773 C 540.924 5.32212 0.39819 0
M  V30 5774 O 541.147 5.46635 1.62932 0
M  V30 5775 O 540.081 6.01458 -0.2306 0
M  V30 5776 H 543.907 2.82671 -1.11045 0
M  V30 5777 H 541.492 1.36518 -0.606903 0
M  V30 5778 H 543.374 4.09652 0.988078 0
M  V30 5779 H 542.049 2.95079 1.33078 0
M  V30 5780 H 540.956 3.63526 -0.883144 0
M  V30 5781 H 542.289 4.78749 -1.1428 0
M  V30 5782 N 543.941 0.601185 1.45683 0
M  V30 5783 C 545.189 0.0936957 2.01883 0
M  V30 5784 C 545.51 -1.2779 1.47291 0
M  V30 5785 O 544.78 -1.84279 0.664691 0
M  V30 5786 H 543.36 0.0316466 0.746329 0
M  V30 5787 H 546.022 0.781137 1.78562 0
M  V30 5788 H 545.118 0.0386297 3.12076 0
M  V30 5789 N 545.419 -1.53889 0.339982 0
M  V30 5790 C 546.667 -2.00458 -0.257112 0
M  V30 5791 C 546.988 -1.22953 -1.51353 0
M  V30 5792 O 546.258 -0.335734 -1.93002 0
M  V30 5793 H 544.838 -0.740544 -0.0979965 0
M  V30 5794 H 547.5 -1.89386 0.460317 0
M  V30 5795 H 546.596 -3.08035 -0.502057 0
M  V30 5796 N 546.897 -0.0685191 -1.57451 0
M  V30 5797 C 548.144 0.601348 -1.93365 0
M  V30 5798 C 548.472 1.69816 -0.948294 0
M  V30 5799 O 547.727 1.95666 0.0366199 0
M  V30 5800 C 548.026 1.22051 -3.35914 0
M  V30 5801 C 547.692 0.250165 -4.50205 0
M  V30 5802 C 546.354 -0.0167954 -4.81197 0
M  V30 5803 C 548.706 -0.413867 -5.19554 0
M  V30 5804 C 546.034 -0.95493 -5.78876 0
M  V30 5805 C 548.386 -1.3403 -6.18238 0
M  V30 5806 C 547.05 -1.61576 -6.47649 0
M  V30 5807 H 546.32 0.220049 -0.707573 0
M  V30 5808 H 548.967 -0.138697 -1.90997 0
M  V30 5809 H 547.272 2.03622 -3.34732 0
M  V30 5810 H 548.969 1.74605 -3.6099 0
M  V30 5811 H 545.559 0.468421 -4.26033 0
M  V30 5812 H 549.743 -0.220733 -4.95809 0
M  V30 5813 H 544.999 -1.17563 -5.99991 0
M  V30 5814 H 549.173 -1.86081 -6.71079 0
M  V30 5815 H 546.8 -2.34431 -7.2315 0
M  V30 5816 N 548.375 1.56261 0.205012 0
M  V30 5817 C 549.307 1.90266 1.27795 0
M  V30 5818 C 550.32 0.792397 1.42214 0
M  V30 5819 O 551.509 1.07077 1.42817 0
M  V30 5820 C 548.609 2.11074 2.65143 0
M  V30 5821 C 547.782 3.42176 2.7246 0
M  V30 5822 C 546.841 3.52216 3.90936 0
M  V30 5823 O 545.867 4.25119 3.78501 0
M  V30 5824 N 547.069 2.84573 5.05963 0
M  V30 5825 H 549.834 2.82896 0.989434 0
M  V30 5826 H 547.395 1.57008 0.394981 0
M  V30 5827 H 549.387 2.15089 3.4281 0
M  V30 5828 H 547.957 1.2499 2.86524 0
M  V30 5829 H 547.177 3.50116 1.81142 0
M  V30 5830 H 548.465 4.28509 2.74331 0
M  V30 5831 H 547.863 2.25152 5.18963 0
M  V30 5832 H 546.42 2.94228 5.81613 0
M  V30 5833 N 549.853 -0.472356 1.50355 0
M  V30 5834 C 551.078 -1.25251 1.65309 0
M  V30 5835 C 551.503 -1.85081 0.335643 0
M  V30 5836 O 550.861 -1.67227 -0.700335 0
M  V30 5837 C 550.909 -2.3379 2.74544 0
M  V30 5838 O 550.013 -3.38401 2.35709 0
M  V30 5839 H 549.354 -0.368539 0.552336 0
M  V30 5840 H 551.884 -0.562271 1.96722 0
M  V30 5841 H 551.894 -2.79121 2.97583 0
M  V30 5842 H 550.569 -1.89614 3.70161 0
M  V30 5843 H 549.146 -2.9879 2.23112 0
M  V30 5844 N 551.331 -1.39911 -0.725443 0
M  V30 5845 C 552.58 -1.36963 -1.48068 0
M  V30 5846 C 552.893 0.0284478 -1.95579 0
M  V30 5847 O 554.099 0.180535 -2.70899 0
M  V30 5848 C 552.555 -2.40664 -2.67598 0
M  V30 5849 C 552.163 -3.86234 -2.26997 0
M  V30 5850 C 553.907 -2.46807 -3.45379 0
M  V30 5851 C 551.814 -4.81554 -3.43307 0
M  V30 5852 H 550.744 -0.509223 -0.556065 0
M  V30 5853 H 553.395 -1.65602 -0.790454 0
M  V30 5854 H 551.777 -2.05109 -3.38742 0
M  V30 5855 H 552.951 -4.3088 -1.63337 0
M  V30 5856 H 551.266 -3.83475 -1.62284 0
M  V30 5857 H 553.863 -3.15213 -4.31909 0
M  V30 5858 H 554.206 -1.49552 -3.8851 0
M  V30 5859 H 554.739 -2.81303 -2.81271 0
M  V30 5860 H 551.478 -5.80106 -3.05217 0
M  V30 5861 H 550.998 -4.4158 -4.05915 0
M  V30 5862 H 552.677 -5.0091 -4.0951 0
M  V30 5863 N 552.809 0.956637 -1.25245 0
M  V30 5864 C 554.22 1.51569 -1.09012 0
M  V30 5865 C 554.571 1.93322 0.334813 0
M  V30 5866 O 553.696 1.78421 1.22454 0
M  V30 5867 C 554.291 2.75444 -1.97271 0
M  V30 5868 C 552.85 3.27669 -1.8523 0
M  V30 5869 C 551.997 2.00517 -1.91542 0
M  V30 5870 H 554.948 0.773746 -1.3856 0
M  V30 5871 H 554.969 3.4919 -1.51151 0
M  V30 5872 H 554.481 2.45024 -3.00973 0
M  V30 5873 H 552.582 3.62914 -0.844045 0
M  V30 5874 H 552.695 3.9582 -2.69932 0
M  V30 5875 H 551.059 2.15727 -1.35404 0
M  V30 5876 H 551.842 1.72448 -2.96844 0
M  V30 5877 N 554.287 1.06798 1.15896 0
M  V30 5878 C 555.234 0.683314 2.20453 0
M  V30 5879 C 556.204 -0.32255 1.62938 0
M  V30 5880 O 557.389 -0.210276 1.89638 0
M  V30 5881 C 554.529 0.0813266 3.45004 0
M  V30 5882 C 553.642 1.13799 4.16742 0
M  V30 5883 C 552.777 0.501598 5.28826 0
M  V30 5884 C 551.816 1.54144 5.92373 0
M  V30 5885 N 550.953 0.928038 6.9594 0
M  V30 5886 H 555.793 1.57932 2.52708 0
M  V30 5887 H 553.33 0.789544 1.24115 0
M  V30 5888 H 555.288 -0.285274 4.16224 0
M  V30 5889 H 553.918 -0.77806 3.13283 0
M  V30 5890 H 552.97 1.62223 3.44075 0
M  V30 5891 H 554.282 1.92664 4.60089 0
M  V30 5892 H 553.436 0.0823162 6.06644 0
M  V30 5893 H 552.175 -0.318883 4.86656 0
M  V30 5894 H 551.18 1.97056 5.13273 0
M  V30 5895 H 552.405 2.3641 6.36621 0
M  V30 5896 H 550.351 0.12836 6.55874 0
M  V30 5897 H 550.268 1.65401 7.37685 0
M  V30 5898 H 551.536 0.534071 7.77668 0
M  V30 5899 N 555.766 -1.3263 0.851289 0
M  V30 5900 C 556.696 -2.31449 0.308771 0
M  V30 5901 C 557.677 -1.59531 -0.590255 0
M  V30 5902 O 558.862 -1.87351 -0.511205 0
M  V30 5903 C 555.992 -3.43586 -0.506548 0
M  V30 5904 C 554.946 -4.26963 0.297753 0
M  V30 5905 C 554.272 -5.30831 -0.642094 0
M  V30 5906 C 555.572 -4.99643 1.52166 0
M  V30 5907 H 557.266 -2.77074 1.13447 0
M  V30 5908 H 554.812 -1.33207 0.546971 0
M  V30 5909 H 556.765 -4.11754 -0.896474 0
M  V30 5910 H 555.489 -2.96681 -1.36558 0
M  V30 5911 H 554.148 -3.60437 0.669391 0
M  V30 5912 H 553.796 -4.8018 -1.49788 0
M  V30 5913 H 553.496 -5.87501 -0.107968 0
M  V30 5914 H 555.02 -6.01862 -1.02927 0
M  V30 5915 H 556.434 -5.6051 1.20421 0
M  V30 5916 H 554.831 -5.66022 1.99347 0
M  V30 5917 H 555.901 -4.27701 2.28474 0
M  V30 5918 N 557.244 -0.608902 -1.45362 0
M  V30 5919 C 558.472 -0.111013 -2.06602 0
M  V30 5920 C 558.887 1.20516 -1.45332 0
M  V30 5921 O 558.244 1.73437 -0.567978 0
M  V30 5922 C 558.295 0.033688 -3.61484 0
M  V30 5923 O 558.016 -1.23041 -4.20467 0
M  V30 5924 C 559.517 0.562882 -4.39712 0
M  V30 5925 H 556.737 -0.0694453 -0.667397 0
M  V30 5926 H 559.281 -0.837008 -1.86586 0
M  V30 5927 H 557.436 0.710016 -3.80838 0
M  V30 5928 H 557.85 -1.06094 -5.13658 0
M  V30 5929 H 559.324 0.613213 -5.48583 0
M  V30 5930 H 559.801 1.58543 -4.09586 0
M  V30 5931 H 560.407 -0.0794454 -4.25226 0
M  V30 5932 N 558.722 1.53707 -0.348139 0
M  V30 5933 C 559.969 2.00988 0.246966 0
M  V30 5934 C 560.297 1.23586 1.50189 0
M  V30 5935 O 559.552 0.312817 1.93184 0
M  V30 5936 C 559.851 3.52292 0.602061 0
M  V30 5937 C 559.517 4.47453 -0.556509 0
M  V30 5938 C 558.179 4.73188 -0.874446 0
M  V30 5939 C 560.531 5.03851 -1.33354 0
M  V30 5940 C 557.859 5.52577 -1.9717 0
M  V30 5941 C 560.211 5.84437 -2.42108 0
M  V30 5942 C 558.875 6.08465 -2.74456 0
M  V30 5943 H 558.145 0.735469 0.0903712 0
M  V30 5944 H 560.792 1.85464 -0.477001 0
M  V30 5945 H 559.097 3.65672 1.40681 0
M  V30 5946 H 560.794 3.86337 1.07447 0
M  V30 5947 H 557.384 4.27558 -0.298652 0
M  V30 5948 H 561.568 4.8393 -1.10117 0
M  V30 5949 H 556.824 5.69418 -2.22651 0
M  V30 5950 H 560.998 6.27151 -3.02745 0
M  V30 5951 H 558.625 6.69768 -3.59604 0
M  V30 5952 N 560.2 0.0768682 1.57412 0
M  V30 5953 C 561.611 -0.455037 1.8107 0
M  V30 5954 C 561.962 -1.69323 0.991162 0
M  V30 5955 O 561.087 -2.15328 0.215156 0
M  V30 5956 C 561.682 -0.832316 3.28417 0
M  V30 5957 C 560.241 -1.30906 3.52903 0
M  V30 5958 C 559.388 -0.296714 2.75708 0
M  V30 5959 H 562.339 0.302514 1.5579 0
M  V30 5960 H 562.36 -1.69333 3.40744 0
M  V30 5961 H 561.872 0.0690532 3.88039 0
M  V30 5962 H 559.973 -2.22875 2.98592 0
M  V30 5963 H 560.086 -1.28348 4.61588 0
M  V30 5964 H 558.45 -0.775059 2.42621 0
M  V30 5965 H 559.233 0.597015 3.38069 0
M  V30 5966 N 561.678 -1.56367 -0.196722 0
M  V30 5967 C 562.926 -1.80172 -0.915554 0
M  V30 5968 C 563.247 -0.649649 -1.8386 0
M  V30 5969 O 562.517 0.332111 -1.93064 0
M  V30 5970 H 561.097 -0.664592 -0.341067 0
M  V30 5971 H 563.759 -1.93844 -0.202622 0
M  V30 5972 H 562.855 -2.7327 -1.50764 0
M  V30 5973 N 563.156 0.464375 -1.50603 0
M  V30 5974 C 564.404 1.21356 -1.61608 0
M  V30 5975 C 564.725 1.92329 -0.321643 0
M  V30 5976 O 563.995 1.84403 0.661232 0
M  V30 5977 H 562.575 0.45094 -0.595535 0
M  V30 5978 H 565.237 0.535046 -1.87412 0
M  V30 5979 H 564.333 1.95783 -2.43054 0
M  V30 5980 N 564.634 1.40294 0.718013 0
M  V30 5981 C 565.564 1.43118 1.84498 0
M  V30 5982 C 566.545 0.292403 1.67568 0
M  V30 5983 O 567.73 0.500675 1.87635 0
M  V30 5984 C 564.86 1.29065 3.22427 0
M  V30 5985 C 563.814 2.40521 3.54025 0
M  V30 5986 C 563.14 2.11546 4.91073 0
M  V30 5987 C 564.44 3.82859 3.55269 0
M  V30 5988 H 566.134 2.37432 1.82391 0
M  V30 5989 H 563.68 1.14283 0.87609 0
M  V30 5990 H 565.633 1.29658 4.00957 0
M  V30 5991 H 564.357 0.312271 3.25104 0
M  V30 5992 H 563.016 2.39173 2.77834 0
M  V30 5993 H 562.664 1.12104 4.90348 0
M  V30 5994 H 562.364 2.86216 5.1318 0
M  V30 5995 H 563.888 2.13817 5.71939 0
M  V30 5996 H 565.302 3.86044 4.23843 0
M  V30 5997 H 563.699 4.57029 3.88902 0
M  V30 5998 H 564.769 4.12617 2.54706 0
M  V30 5999 N 566.112 -0.949982 1.2575 0
M  V30 6000 C 567.042 -2.06483 1.09028 0
M  V30 6001 C 568.023 -1.701 -0.00201532 0
M  V30 6002 O 569.208 -1.93469 0.168383 0
M  V30 6003 C 566.338 -3.39899 0.71316 0
M  V30 6004 C 565.292 -3.90309 1.75621 0
M  V30 6005 C 564.618 -5.20274 1.23365 0
M  V30 6006 C 565.918 -4.16169 3.15596 0
M  V30 6007 H 567.612 -2.20731 2.02283 0
M  V30 6008 H 565.158 -1.06066 0.973964 0
M  V30 6009 H 567.111 -4.17346 0.58309 0
M  V30 6010 H 565.835 -3.25602 -0.255091 0
M  V30 6011 H 564.494 -3.15035 1.8748 0
M  V30 6012 H 564.142 -5.02351 0.255491 0
M  V30 6013 H 563.842 -5.54971 1.93082 0
M  V30 6014 H 565.366 -6.00314 1.11607 0
M  V30 6015 H 566.78 -4.84259 3.06864 0
M  V30 6016 H 565.177 -4.62131 3.82825 0
M  V30 6017 H 566.247 -3.22273 3.6231 0
M  V30 6018 N 567.59 -1.07411 -1.15328 0
M  V30 6019 C 568.839 -0.792643 -1.85473 0
M  V30 6020 C 569.152 0.683789 -1.83259 0
M  V30 6021 O 570.358 1.08005 -2.49093 0
M  V30 6022 C 568.814 -1.36787 -3.32892 0
M  V30 6023 C 568.422 -2.87536 -3.43551 0
M  V30 6024 C 570.166 -1.16444 -4.08217 0
M  V30 6025 C 568.073 -3.38247 -4.85122 0
M  V30 6026 H 567.003 -0.292838 -0.694811 0
M  V30 6027 H 569.654 -1.29426 -1.30082 0
M  V30 6028 H 568.036 -0.793993 -3.87958 0
M  V30 6029 H 569.21 -3.50973 -2.98588 0
M  V30 6030 H 567.525 -3.06676 -2.81672 0
M  V30 6031 H 570.122 -1.51808 -5.12697 0
M  V30 6032 H 570.465 -0.10353 -4.16171 0
M  V30 6033 H 570.998 -1.70472 -3.59422 0
M  V30 6034 H 567.737 -4.43866 -4.82351 0
M  V30 6035 H 567.257 -2.79564 -5.30664 0
M  V30 6036 H 568.936 -3.34238 -5.5398 0
M  V30 6037 N 569.068 1.32177 -0.85831 0
M  V30 6038 C 570.316 1.96735 -0.462568 0
M  V30 6039 C 570.637 1.6824 0.985911 0
M  V30 6040 O 569.907 0.991564 1.68952 0
M  V30 6041 H 568.487 0.727849 -0.168064 0
M  V30 6042 H 571.149 1.61195 -1.09554 0
M  V30 6043 H 570.245 3.06068 -0.610647 0
M  V30 6044 N 570.547 0.616602 1.45037 0
M  V30 6045 C 571.787 0.118453 2.04056 0
M  V30 6046 C 572.151 -1.23104 1.47341 0
M  V30 6047 O 573.352 -1.82044 1.97771 0
M  V30 6048 C 571.623 0.0892842 3.57288 0
M  V30 6049 S 573.182 -0.346361 4.37431 0
M  V30 6050 H 570 0.0539728 0.708948 0
M  V30 6051 H 572.602 0.816731 1.77623 0
M  V30 6052 H 571.306 1.07481 3.96076 0
M  V30 6053 H 570.837 -0.630703 3.88311 0
M  V30 6054 H 572.852 -1.59389 4.69904 0
M  V30 6055 N 572.025 -1.5352 0.356285 0
M  V30 6056 C 573.25 -2.06007 -0.239961 0
M  V30 6057 C 573.675 -1.22872 -1.42422 0
M  V30 6058 O 573.033 -0.245516 -1.7963 0
M  V30 6059 C 573.081 -3.5522 -0.620587 0
M  V30 6060 O 572.185 -3.74864 -1.71902 0
M  V30 6061 H 571.526 -0.662961 -0.0371377 0
M  V30 6062 H 574.056 -1.98033 0.514194 0
M  V30 6063 H 574.066 -3.98081 -0.894197 0
M  V30 6064 H 572.741 -4.15175 0.245407 0
M  V30 6065 H 571.318 -3.43904 -1.44169 0
M  V30 6066 N 573.503 -0.0852151 -1.57369 0
M  V30 6067 C 574.914 0.445428 -1.81309 0
M  V30 6068 C 575.265 1.68795 -1.00013 0
M  V30 6069 O 574.39 2.15211 -0.226573 0
M  V30 6070 C 574.985 0.814887 -3.28854 0
M  V30 6071 C 573.544 1.29032 -3.53592 0
M  V30 6072 C 572.691 0.282089 -2.75861 0
M  V30 6073 H 575.642 -0.310771 -1.55627 0
M  V30 6074 H 575.663 1.67524 -3.41637 0
M  V30 6075 H 575.175 -0.0896309 -3.87996 0
M  V30 6076 H 573.276 2.21289 -2.9977 0
M  V30 6077 H 573.389 1.25898 -4.62262 0
M  V30 6078 H 571.753 0.762182 -2.43029 0
M  V30 6079 H 572.536 -0.614936 -3.37748 0
M  V30 6080 N 574.981 1.5647 0.188427 0
M  V30 6081 C 576.229 1.80655 0.905986 0
M  V30 6082 C 576.55 0.659391 1.83513 0
M  V30 6083 O 575.82 -0.321868 1.93238 0
M  V30 6084 H 574.4 0.666391 0.337538 0
M  V30 6085 H 577.062 1.93949 0.192339 0
M  V30 6086 H 576.158 2.74066 1.49313 0
M  V30 6087 N 576.459 -0.456382 1.50847 0
M  V30 6088 C 577.706 -1.20736 1.62571 0
M  V30 6089 C 578.034 -1.9163 0.332904 0
M  V30 6090 O 577.289 -1.8343 -0.682058 0
M  V30 6091 C 577.588 -2.26336 2.76599 0
M  V30 6092 C 577.254 -1.7259 4.16562 0
M  V30 6093 C 575.916 -1.57654 4.54641 0
M  V30 6094 C 578.268 -1.32877 5.03977 0
M  V30 6095 C 575.596 -1.0145 5.77862 0
M  V30 6096 C 577.948 -0.7811 6.27759 0
M  V30 6097 C 576.612 -0.618488 6.64628 0
M  V30 6098 H 575.882 -0.441803 0.594888 0
M  V30 6099 H 578.529 -0.501169 1.84826 0
M  V30 6100 H 576.834 -3.0292 2.48489 0
M  V30 6101 H 578.531 -2.84227 2.82871 0
M  V30 6102 H 575.121 -1.85187 3.86528 0
M  V30 6103 H 579.305 -1.43245 4.75179 0
M  V30 6104 H 574.561 -0.876109 6.0509 0
M  V30 6105 H 578.735 -0.464783 6.94847 0
M  V30 6106 H 576.362 -0.180838 7.59985 0
M  V30 6107 N 577.937 -1.40673 -0.710563 0
M  V30 6108 C 578.87 -1.35742 -1.83438 0
M  V30 6109 C 579.848 -0.226997 -1.61008 0
M  V30 6110 O 581.032 -0.411477 -1.83954 0
M  V30 6111 C 578.159 -1.11374 -3.19865 0
M  V30 6112 C 577.205 -2.26935 -3.61113 0
M  V30 6113 S 578.038 -3.89352 -3.67648 0
M  V30 6114 C 579.194 -3.67258 -5.06826 0
M  V30 6115 H 579.427 -2.30848 -1.87341 0
M  V30 6116 H 576.96 -1.27018 -0.877831 0
M  V30 6117 H 578.918 -0.980004 -3.9863 0
M  V30 6118 H 577.579 -0.179135 -3.13589 0
M  V30 6119 H 576.772 -2.0554 -4.60184 0
M  V30 6120 H 576.374 -2.36638 -2.89618 0
M  V30 6121 H 578.666 -3.26036 -5.93891 0
M  V30 6122 H 579.609 -4.65878 -5.33257 0
M  V30 6123 H 580.017 -3.0084 -4.77656 0
M  V30 6124 N 579.415 0.9433 -1.26252 0
M  V30 6125 C 580.363 2.06302 -1.07434 0
M  V30 6126 C 581.357 1.694 -0.00189471 0
M  V30 6127 O 582.563 1.79302 -0.158408 0
M  V30 6128 H 578.938 0.675453 -0.330556 0
M  V30 6129 H 580.909 2.19326 -2.02333 0
M  V30 6130 C 579.658 3.40125 -0.721817 0
M  V30 6131 H 578.981 3.68996 -1.5389 0
M  V30 6132 H 580.421 4.19295 -0.629922 0
M  V30 6133 C 578.88 3.31993 0.572902 0
M  V30 6134 O 579.41 3.67945 1.61182 0
M  V30 6135 N 577.616 2.85099 0.562748 0
M  V30 6136 H 577.163 2.5604 -0.283092 0
M  V30 6137 H 577.121 2.80041 1.42915 0
M  V30 6138 N 580.893 1.08022 1.14757 0
M  V30 6139 C 582.139 0.808705 1.85978 0
M  V30 6140 C 582.472 -0.663764 1.82504 0
M  V30 6141 O 581.747 -1.48765 1.25296 0
M  V30 6142 C 582.03 1.32623 3.34788 0
M  V30 6143 C 581.883 2.86375 3.46856 0
M  V30 6144 C 583.202 0.948291 4.29762 0
M  V30 6145 H 580.321 0.295244 0.675278 0
M  V30 6146 H 582.963 1.33917 1.34783 0
M  V30 6147 H 581.113 0.875002 3.78518 0
M  V30 6148 H 582.785 3.39839 3.11941 0
M  V30 6149 H 581.028 3.24232 2.88194 0
M  V30 6150 H 581.699 3.17658 4.51439 0
M  V30 6151 H 584.175 1.33722 3.94028 0
M  V30 6152 H 583.051 1.33765 5.32352 0
M  V30 6153 H 583.312 -0.145094 4.41862 0
M  V30 6154 N 582.371 -1.3172 0.865308 0
M  V30 6155 C 583.782 -1.79104 0.527126 0
M  V30 6156 C 584.133 -1.7135 -0.955695 0
M  V30 6157 O 583.258 -1.27845 -1.74598 0
M  V30 6158 C 583.853 -3.25207 0.950061 0
M  V30 6159 C 582.412 -3.70504 0.663611 0
M  V30 6160 C 581.559 -2.52605 1.14395 0
M  V30 6161 H 584.51 -1.18868 1.05148 0
M  V30 6162 H 584.531 -3.79535 0.270805 0
M  V30 6163 H 584.043 -3.30818 2.02931 0
M  V30 6164 H 582.144 -3.70398 -0.404474 0
M  V30 6165 H 582.257 -4.62845 1.23737 0
M  V30 6166 H 580.621 -2.4838 0.563859 0
M  V30 6167 H 581.404 -2.60964 2.23053 0
M  V30 6168 N 583.85 -0.624285 -1.44708 0
M  V30 6169 C 584.797 0.0847135 -2.30644 0
M  V30 6170 C 585.767 0.843575 -1.43084 0
M  V30 6171 O 586.952 0.825982 -1.71995 0
M  V30 6172 C 584.091 1.06495 -3.28257 0
M  V30 6173 C 583.205 0.305224 -4.3092 0
M  V30 6174 C 582.34 1.27667 -5.1563 0
M  V30 6175 C 581.379 0.505706 -6.10007 0
M  V30 6176 N 580.516 1.42727 -6.8744 0
M  V30 6177 H 585.356 -0.654068 -2.90733 0
M  V30 6178 H 582.893 -0.334334 -1.4325 0
M  V30 6179 H 584.851 1.64658 -3.83332 0
M  V30 6180 H 583.481 1.77094 -2.69884 0
M  V30 6181 H 582.533 -0.392207 -3.78373 0
M  V30 6182 H 583.845 -0.295553 -4.97924 0
M  V30 6183 H 582.999 1.92984 -5.75189 0
M  V30 6184 H 581.738 1.91137 -4.48685 0
M  V30 6185 H 580.743 -0.160999 -5.49564 0
M  V30 6186 H 581.968 -0.124183 -6.78986 0
M  V30 6187 H 579.913 2.04931 -6.23169 0
M  V30 6188 H 579.831 0.880345 -7.50857 0
M  V30 6189 H 581.099 2.0695 -7.51526 0
M  V30 6190 N 585.328 1.53329 -0.364422 0
M  V30 6191 C 586.577 2.00421 0.226747 0
M  V30 6192 C 586.89 1.25581 1.49963 0
M  V30 6193 O 588.096 1.63256 2.16933 0
M  V30 6194 C 586.552 3.57017 0.454618 0
M  V30 6195 C 586.16 4.40734 -0.803568 0
M  V30 6196 C 587.904 4.12468 1.00351 0
M  V30 6197 C 585.811 5.8888 -0.545345 0
M  V30 6198 H 584.741 0.748787 0.0885082 0
M  V30 6199 H 587.392 1.7703 -0.482983 0
M  V30 6200 H 585.774 3.76558 1.22558 0
M  V30 6201 H 586.948 4.32967 -1.57723 0
M  V30 6202 H 585.263 3.96381 -1.27559 0
M  V30 6203 H 587.86 5.20783 1.212 0
M  V30 6204 H 588.203 3.6699 1.9653 0
M  V30 6205 H 588.736 3.96721 0.29274 0
M  V30 6206 H 585.475 6.38633 -1.47743 0
M  V30 6207 H 584.995 5.99499 0.189842 0
M  V30 6208 H 586.674 6.46776 -0.170425 0
M  V30 6209 N 586.806 0.0935595 1.57322 0
M  V30 6210 C 587.753 -0.865935 2.1394 0
M  V30 6211 C 588.723 -1.28083 1.05754 0
M  V30 6212 O 589.908 -1.36285 1.33533 0
M  V30 6213 C 587.048 -2.12023 2.72287 0
M  V30 6214 C 586.161 -1.756 3.94701 0
M  V30 6215 C 585.296 -2.95804 4.41218 0
M  V30 6216 C 584.335 -2.555 5.56225 0
M  V30 6217 N 583.472 -3.68534 5.97601 0
M  V30 6218 H 588.312 -0.376261 2.95615 0
M  V30 6219 H 585.849 -0.174052 1.46067 0
M  V30 6220 H 587.807 -2.85477 3.04235 0
M  V30 6221 H 586.437 -2.58492 1.93343 0
M  V30 6222 H 585.489 -0.921208 3.69077 0
M  V30 6223 H 586.801 -1.41964 4.78171 0
M  V30 6224 H 585.955 -3.77513 4.74941 0
M  V30 6225 H 584.694 -3.32649 3.56645 0
M  V30 6226 H 583.699 -1.72218 5.22131 0
M  V30 6227 H 584.924 -2.19801 6.42545 0
M  V30 6228 H 582.87 -4.051 5.15974 0
M  V30 6229 H 582.787 -3.38737 6.75865 0
M  V30 6230 H 584.055 -4.50757 6.35955 0
M  V30 6231 N 588.284 -1.56567 -0.180126 0
M  V30 6232 C 589.532 -1.81133 -0.896392 0
M  V30 6233 C 589.853 -0.669114 -1.83161 0
M  V30 6234 O 589.123 0.311616 -1.93406 0
M  V30 6235 H 587.703 -0.668172 -0.333999 0
M  V30 6236 H 590.365 -1.94048 -0.182051 0
M  V30 6237 H 589.461 -2.74854 -1.47857 0
M  V30 6238 N 589.762 0.448376 -1.51087 0
M  V30 6239 C 590.99 1.22143 -1.66999 0
M  V30 6240 C 591.405 1.85283 -0.362699 0
M  V30 6241 O 590.762 1.70236 0.65772 0
M  V30 6242 C 590.813 2.31357 -2.7777 0
M  V30 6243 O 590.534 1.70801 -4.03434 0
M  V30 6244 C 592.035 3.21836 -3.04855 0
M  V30 6245 H 589.255 0.368558 -0.560719 0
M  V30 6246 H 591.799 0.532618 -1.97442 0
M  V30 6247 H 589.954 2.95973 -2.49958 0
M  V30 6248 H 590.368 2.42895 -4.64868 0
M  V30 6249 H 591.842 3.94627 -3.85971 0
M  V30 6250 H 592.319 3.81949 -2.16821 0
M  V30 6251 H 592.925 2.62933 -3.34285 0
M  V30 6252 N 591.24 1.41047 0.703093 0
M  V30 6253 C 592.19 1.38774 1.80903 0
M  V30 6254 C 593.174 0.263275 1.58731 0
M  V30 6255 O 594.366 0.503362 1.69692 0
M  V30 6256 C 591.495 1.26497 3.19145 0
M  V30 6257 C 590.581 2.43775 3.47037 0
M  V30 6258 N 590.972 3.69249 3.45672 0
M  V30 6259 C 589.27 2.37425 3.77552 0
M  V30 6260 C 589.971 4.46989 3.72258 0
M  V30 6261 N 588.947 3.76998 3.91629 0
M  V30 6262 H 592.749 2.33714 1.78199 0
M  V30 6263 H 590.263 1.34996 0.902762 0
M  V30 6264 H 592.26 1.2295 3.98358 0
M  V30 6265 H 590.92 0.32534 3.23066 0
M  V30 6266 H 591.931 4.02239 3.26228 0
M  V30 6267 H 588.608 1.51895 3.88888 0
M  V30 6268 H 589.998 5.55894 3.77402 0
M  V30 6269 N 592.718 -0.936591 1.26751 0
M  V30 6270 C 593.946 -1.71758 1.15355 0
M  V30 6271 C 594.361 -1.86549 -0.290683 0
M  V30 6272 O 593.718 -1.37616 -1.19868 0
M  V30 6273 C 593.769 -3.12193 1.82258 0
M  V30 6274 O 593.49 -2.98105 3.21038 0
M  V30 6275 C 594.991 -4.06485 1.76875 0
M  V30 6276 H 592.211 -0.537636 0.401483 0
M  V30 6277 H 594.755 -1.17382 1.67457 0
M  V30 6278 H 592.91 -3.63456 1.34083 0
M  V30 6279 H 593.324 -3.86824 3.54214 0
M  V30 6280 H 594.798 -5.02569 2.28316 0
M  V30 6281 H 595.275 -4.32986 0.736216 0
M  V30 6282 H 595.881 -3.61144 2.24623 0
M  V30 6283 N 594.196 -1.08629 -1.14182 0
M  V30 6284 C 595.159 -0.722027 -2.1753 0
M  V30 6285 C 596.159 0.244305 -1.58933 0
M  V30 6286 O 597.349 0.0235545 -1.74184 0
M  V30 6287 C 594.481 -0.0663966 -3.40835 0
M  V30 6288 H 595.674 -1.63719 -2.51269 0
M  V30 6289 H 593.227 -0.884442 -1.28869 0
M  V30 6290 H 593.962 0.860389 -3.12678 0
M  V30 6291 H 593.747 -0.761598 -3.84632 0
M  V30 6292 H 595.237 0.173346 -4.1724 0
M  V30 6293 N 595.674 1.31259 -0.872281 0
M  V30 6294 C 596.607 2.26544 -0.274394 0
M  V30 6295 C 597.585 1.51213 0.597776 0
M  V30 6296 O 598.769 1.80277 0.550687 0
M  V30 6297 C 595.896 3.33139 0.611256 0
M  V30 6298 C 594.942 4.26077 -0.189876 0
M  V30 6299 S 595.775 5.11971 -1.56989 0
M  V30 6300 C 596.931 6.2208 -0.690427 0
M  V30 6301 H 597.164 2.76908 -1.0821 0
M  V30 6302 H 594.697 1.3906 -0.670939 0
M  V30 6303 H 596.655 3.95024 1.11654 0
M  V30 6304 H 595.316 2.81525 1.39294 0
M  V30 6305 H 594.509 5.01657 0.485433 0
M  V30 6306 H 594.111 3.68701 -0.627339 0
M  V30 6307 H 596.403 6.77429 0.098001 0
M  V30 6308 H 597.346 6.93768 -1.41742 0
M  V30 6309 H 597.754 5.63915 -0.256953 0
M  V30 6310 N 597.152 0.631951 1.44375 0
M  V30 6311 C 598.099 -0.0724807 2.30686 0
M  V30 6312 C 599.069 -0.835975 1.43529 0
M  V30 6313 O 600.254 -0.816849 1.7243 0
M  V30 6314 C 597.394 -1.04753 3.28817 0
M  V30 6315 C 596.507 -0.282367 4.31076 0
M  V30 6316 C 595.642 -1.2493 5.163 0
M  V30 6317 C 594.681 -0.473349 6.10267 0
M  V30 6318 N 593.818 -1.39079 6.88187 0
M  V30 6319 H 598.658 0.669477 2.90383 0
M  V30 6320 H 596.195 0.341927 1.43071 0
M  V30 6321 H 598.153 -1.62623 3.842 0
M  V30 6322 H 596.783 -1.75661 2.70819 0
M  V30 6323 H 595.835 0.412268 3.78159 0
M  V30 6324 H 597.147 0.321955 4.9776 0
M  V30 6325 H 596.301 -1.89931 5.76204 0
M  V30 6326 H 595.04 -1.88755 4.49692 0
M  V30 6327 H 594.045 0.190142 5.49471 0
M  V30 6328 H 595.27 0.16019 6.78911 0
M  V30 6329 H 593.216 -2.01623 6.24247 0
M  V30 6330 H 593.133 -0.840513 7.51313 0
M  V30 6331 H 594.401 -2.02961 7.52613 0
M  V30 6332 N 598.631 -1.53133 0.372548 0
M  V30 6333 C 599.856 -2.0625 -0.218098 0
M  V30 6334 C 600.281 -1.24375 -1.41111 0
M  V30 6335 O 599.639 -0.264554 -1.79359 0
M  V30 6336 C 599.687 -3.55858 -0.582876 0
M  V30 6337 O 598.791 -3.76667 -1.67917 0
M  V30 6338 H 598.132 -0.663317 -0.030104 0
M  V30 6339 H 600.662 -1.97477 0.535169 0
M  V30 6340 H 600.672 -3.99007 -0.851925 0
M  V30 6341 H 599.347 -4.14892 0.289428 0
M  V30 6342 H 597.924 -3.45413 -1.40513 0
M  V30 6343 N 600.109 -0.101901 -1.5727 0
M  V30 6344 C 601.357 0.559091 -1.94213 0
M  V30 6345 C 601.678 1.68297 -0.984948 0
M  V30 6346 O 600.948 1.95863 -0.0381975 0
M  V30 6347 H 599.528 0.20952 -0.717015 0
M  V30 6348 H 602.19 -0.166831 -1.94185 0
M  V30 6349 H 601.286 0.96485 -2.96811 0
M  V30 6350 N 601.587 1.56661 0.17182 0
M  V30 6351 C 602.836 1.81158 0.886831 0
M  V30 6352 C 603.149 0.679072 1.83434 0
M  V30 6353 O 604.355 0.808964 2.59168 0
M  V30 6354 C 602.811 3.20999 1.6275 0
M  V30 6355 C 602.419 4.42117 0.723652 0
M  V30 6356 C 604.163 3.5479 2.33076 0
M  V30 6357 C 602.07 5.7298 1.46452 0
M  V30 6358 H 601 0.675543 0.334899 0
M  V30 6359 H 603.651 1.82967 0.139765 0
M  V30 6360 H 602.033 3.13506 2.4193 0
M  V30 6361 H 603.207 4.60789 -0.0311485 0
M  V30 6362 H 601.522 4.16197 0.130063 0
M  V30 6363 H 604.119 4.49806 2.89099 0
M  V30 6364 H 604.462 2.79646 3.08389 0
M  V30 6365 H 604.995 3.63834 1.6084 0
M  V30 6366 H 601.734 6.51152 0.753729 0
M  V30 6367 H 601.254 5.58285 2.19266 0
M  V30 6368 H 602.933 6.14916 2.01214 0
M  V30 6369 N 603.065 -0.440357 1.51323 0
M  V30 6370 C 603.995 -1.54174 1.75364 0
M  V30 6371 C 604.976 -1.59039 0.603375 0
M  V30 6372 O 606.161 -1.74815 0.845774 0
M  V30 6373 C 603.291 -2.92277 1.87593 0
M  V30 6374 C 602.245 -3.02274 3.03009 0
M  V30 6375 C 601.571 -4.42327 3.00418 0
M  V30 6376 C 602.871 -2.76634 4.43024 0
M  V30 6377 H 604.565 -1.34307 2.67585 0
M  V30 6378 H 602.111 -0.644678 1.28763 0
M  V30 6379 H 604.064 -3.69284 2.02995 0
M  V30 6380 H 602.788 -3.13369 0.920179 0
M  V30 6381 H 601.447 -2.27706 2.87307 0
M  V30 6382 H 601.095 -4.60382 2.02626 0
M  V30 6383 H 600.795 -4.49946 3.77918 0
M  V30 6384 H 602.319 -5.21312 3.17909 0
M  V30 6385 H 603.733 -3.43376 4.59093 0
M  V30 6386 H 602.13 -2.95666 5.22208 0
M  V30 6387 H 603.2 -1.72262 4.5327 0
M  V30 6388 N 604.543 -1.41418 -0.695603 0
M  V30 6389 C 605.506 -1.42988 -1.79129 0
M  V30 6390 C 606.506 -0.320514 -1.57573 0
M  V30 6391 O 607.696 -0.58039 -1.64247 0
M  V30 6392 C 604.828 -1.24122 -3.175 0
M  V30 6393 H 606.021 -2.40526 -1.7913 0
M  V30 6394 H 603.574 -1.2756 -0.903225 0
M  V30 6395 H 604.309 -0.274253 -3.23138 0
M  V30 6396 H 604.094 -2.045 -3.34547 0
M  V30 6397 H 605.584 -1.28056 -3.97481 0
M  V30 6398 N 606.021 0.929856 -1.27246 0
M  V30 6399 C 606.984 2.01172 -1.09829 0
M  V30 6400 C 607.984 1.60743 -0.0429687 0
M  V30 6401 O 609.174 1.71813 -0.287373 0
M  V30 6402 C 606.306 3.34191 -0.673003 0
M  V30 6403 H 607.499 2.18054 -2.05895 0
M  V30 6404 H 605.052 1.11036 -1.10003 0
M  V30 6405 H 605.787 3.23009 0.289134 0
M  V30 6406 H 605.572 3.64892 -1.43515 0
M  V30 6407 H 607.062 4.13646 -0.573323 0
M  V30 6408 N 607.499 1.09233 1.13605 0
M  V30 6409 C 608.409 0.741939 2.22559 0
M  V30 6410 C 609.425 -0.255236 1.72118 0
M  V30 6411 O 610.601 -0.0970747 2.01166 0
M  V30 6412 C 607.666 0.165595 3.46304 0
M  V30 6413 C 606.727 1.21846 4.11645 0
M  V30 6414 C 605.96 0.669526 5.29484 0
M  V30 6415 O 606.183 -0.508228 5.68131 0
M  V30 6416 O 605.117 1.42361 5.84822 0
M  V30 6417 H 608.943 1.65107 2.54899 0
M  V30 6418 H 606.528 0.866584 1.21699 0
M  V30 6419 H 608.41 -0.152592 4.21124 0
M  V30 6420 H 607.085 -0.716573 3.15669 0
M  V30 6421 H 605.992 1.58931 3.38662 0
M  V30 6422 H 607.325 2.07321 4.46407 0
M  V30 6423 N 608.977 -1.30795 0.87923 0
M  V30 6424 C 610.202 -2.01063 0.508769 0
M  V30 6425 C 610.627 -1.65508 -0.893803 0
M  V30 6426 O 609.985 -0.868616 -1.59138 0
M  V30 6427 C 610.033 -3.54054 0.683991 0
M  V30 6428 O 609.137 -4.11498 -0.272654 0
M  V30 6429 H 608.478 -0.632786 0.201191 0
M  V30 6430 H 611.008 -1.66776 1.18519 0
M  V30 6431 H 611.018 -4.03845 0.580798 0
M  V30 6432 H 609.693 -3.79271 1.70665 0
M  V30 6433 H 608.27 -3.72695 -0.12364 0
M  V30 6434 N 610.455 -0.639598 -1.44038 0
M  V30 6435 C 611.704 -0.144885 -2.01179 0
M  V30 6436 C 612.017 1.24372 -1.50967 0
M  V30 6437 O 613.223 1.83291 -2.00292 0
M  V30 6438 C 611.679 -0.208244 -3.59297 0
M  V30 6439 C 611.287 -1.59869 -4.18504 0
M  V30 6440 C 613.031 0.229568 -4.23879 0
M  V30 6441 C 610.938 -1.61671 -5.68873 0
M  V30 6442 H 609.868 -0.0504005 -0.752314 0
M  V30 6443 H 612.519 -0.799639 -1.65161 0
M  V30 6444 H 610.901 0.513767 -3.92653 0
M  V30 6445 H 612.075 -2.34496 -3.96671 0
M  V30 6446 H 610.39 -1.98131 -3.66242 0
M  V30 6447 H 612.987 0.235758 -5.3418 0
M  V30 6448 H 613.33 1.25848 -3.96822 0
M  V30 6449 H 613.863 -0.440233 -3.95357 0
M  V30 6450 H 610.602 -2.62427 -6.00677 0
M  V30 6451 H 610.122 -0.913489 -5.92803 0
M  V30 6452 H 611.801 -1.35439 -6.32665 0
M  V30 6453 N 611.933 1.52934 -0.380664 0
M  V30 6454 C 613.18 2.01467 0.204278 0
M  V30 6455 C 613.508 1.26744 1.47533 0
M  V30 6456 O 612.763 0.353723 1.92477 0
M  V30 6457 C 613.062 3.5349 0.527199 0
M  V30 6458 C 612.728 4.46171 -0.651295 0
M  V30 6459 C 611.39 4.71227 -0.974619 0
M  V30 6460 C 613.742 5.00909 -1.44012 0
M  V30 6461 C 611.07 5.4827 -2.08847 0
M  V30 6462 C 613.422 5.7917 -2.5445 0
M  V30 6463 C 612.086 6.02507 -2.87301 0
M  V30 6464 H 611.356 0.73722 0.0747504 0
M  V30 6465 H 614.003 1.84411 -0.516234 0
M  V30 6466 H 612.308 3.68574 1.32892 0
M  V30 6467 H 614.005 3.88529 0.992283 0
M  V30 6468 H 610.595 4.26829 -0.389276 0
M  V30 6469 H 614.779 4.81485 -1.20357 0
M  V30 6470 H 610.035 5.64567 -2.34679 0
M  V30 6471 H 614.209 6.20588 -3.1598 0
M  V30 6472 H 611.836 6.61989 -3.7373 0
M  V30 6473 N 613.412 0.11024 1.57214 0
M  V30 6474 C 614.36 -0.860586 2.16094 0
M  V30 6475 C 615.354 -1.28156 1.1078 0
M  V30 6476 O 616.56 -1.25433 1.29099 0
M  V30 6477 H 612.935 -0.295606 0.691463 0
M  V30 6478 H 614.906 -0.33942 2.96463 0
M  V30 6479 C 613.655 -2.10421 2.768 0
M  V30 6480 H 612.978 -1.7892 3.5753 0
M  V30 6481 H 614.418 -2.76375 3.21547 0
M  V30 6482 C 612.877 -2.88823 1.73444 0
M  V30 6483 O 613.407 -3.839 1.18251 0
M  V30 6484 N 611.613 -2.52649 1.43586 0
M  V30 6485 H 611.16 -1.754 1.8866 0
M  V30 6486 H 611.118 -3.05403 0.746735 0
M  V30 6487 N 614.89 -1.56749 -0.16351 0
M  V30 6488 C 615.822 -1.93587 -1.22705 0
M  V30 6489 C 616.835 -0.829824 -1.40063 0
M  V30 6490 O 618.024 -1.10826 -1.39928 0
M  V30 6491 C 615.124 -2.1803 -2.59454 0
M  V30 6492 C 614.297 -3.4928 -2.63292 0
M  V30 6493 C 613.356 -3.62457 -3.8146 0
M  V30 6494 O 612.382 -4.35004 -3.67096 0
M  V30 6495 N 613.584 -2.97888 -4.9824 0
M  V30 6496 H 616.349 -2.8542 -0.914081 0
M  V30 6497 H 613.91 -1.58 -0.353214 0
M  V30 6498 H 615.902 -2.24102 -3.36987 0
M  V30 6499 H 614.472 -1.32543 -2.8311 0
M  V30 6500 H 613.692 -3.54795 -1.71796 0
M  V30 6501 H 614.98 -4.35632 -2.62873 0
M  V30 6502 H 614.378 -2.38833 -5.12811 0
M  V30 6503 H 612.935 -3.09545 -5.73607 0
M  V30 6504 N 616.368 0.432326 -1.51554 0
M  V30 6505 C 617.298 1.53242 -1.76179 0
M  V30 6506 C 618.279 1.58717 -0.611801 0
M  V30 6507 O 619.464 1.74364 -0.855033 0
M  V30 6508 C 616.594 2.91278 -1.89141 0
M  V30 6509 C 615.548 3.00663 -3.04608 0
M  V30 6510 C 614.874 4.40728 -3.02759 0
M  V30 6511 C 616.174 2.74281 -4.44485 0
M  V30 6512 H 617.868 1.32886 -2.68294 0
M  V30 6513 H 615.414 0.637841 -1.29103 0
M  V30 6514 H 617.367 3.68203 -2.04951 0
M  V30 6515 H 616.091 3.12877 -0.936785 0
M  V30 6516 H 614.75 2.26179 -2.88511 0
M  V30 6517 H 614.398 4.59301 -2.05065 0
M  V30 6518 H 614.098 4.47936 -3.80299 0
M  V30 6519 H 615.622 5.19619 -3.20669 0
M  V30 6520 H 617.036 3.40936 -4.60907 0
M  V30 6521 H 615.433 2.92893 -5.23769 0
M  V30 6522 H 616.503 1.69856 -4.54177 0
M  V30 6523 N 617.846 1.41785 0.688094 0
M  V30 6524 C 619.074 1.44915 1.47673 0
M  V30 6525 C 619.489 0.0565786 1.88715 0
M  V30 6526 O 618.846 -0.92579 1.57275 0
M  V30 6527 C 618.897 2.36452 2.73446 0
M  V30 6528 O 618.618 3.7029 2.34131 0
M  V30 6529 C 620.119 2.48463 3.67125 0
M  V30 6530 H 617.339 0.493324 0.454832 0
M  V30 6531 H 619.883 1.86153 0.846594 0
M  V30 6532 H 618.038 1.98502 3.3268 0
M  V30 6533 H 618.452 4.19183 3.15255 0
M  V30 6534 H 619.926 3.16662 4.52138 0
M  V30 6535 H 620.403 1.51826 4.12123 0
M  V30 6536 H 621.009 2.8708 3.13792 0
M  V30 6537 N 619.324 -0.923095 1.27737 0
M  V30 6538 C 620.549 -1.71054 1.17283 0
M  V30 6539 C 620.974 -1.86208 -0.266153 0
M  V30 6540 O 620.332 -1.36545 -1.1927 0
M  V30 6541 C 620.38 -3.0854 1.86642 0
M  V30 6542 O 619.484 -3.95528 1.16752 0
M  V30 6543 H 618.825 -0.524136 0.407649 0
M  V30 6544 H 621.355 -1.15487 1.6889 0
M  V30 6545 H 621.365 -3.58828 1.94182 0
M  V30 6546 H 620.04 -2.96828 2.91317 0
M  V30 6547 H 618.617 -3.53967 1.17312 0
M  V30 6548 N 620.802 -1.09834 -1.13024 0
M  V30 6549 C 621.712 -0.753731 -2.22162 0
M  V30 6550 C 622.728 0.246105 -1.72251 0
M  V30 6551 O 623.904 0.0864051 -2.01215 0
M  V30 6552 C 620.969 -0.183958 -3.46212 0
M  V30 6553 C 620.03 -1.24028 -4.10993 0
M  V30 6554 C 619.263 -0.697597 -5.29121 0
M  V30 6555 O 619.486 0.478092 -5.68393 0
M  V30 6556 O 618.42 -1.4546 -5.84059 0
M  V30 6557 H 622.246 -1.66456 -2.5402 0
M  V30 6558 H 619.831 -0.873026 -1.21238 0
M  V30 6559 H 621.713 0.130257 -4.21199 0
M  V30 6560 H 620.388 0.699823 -3.16045 0
M  V30 6561 H 619.295 -1.60725 -3.37814 0
M  V30 6562 H 620.628 -2.09685 -4.45301 0
M  V30 6563 N 622.28 1.30327 -0.886154 0
M  V30 6564 C 623.228 2.30052 -0.343317 0
M  V30 6565 C 624.222 1.60212 0.550305 0
M  V30 6566 O 625.428 1.74674 0.434609 0
M  V30 6567 H 621.803 0.746306 -0.0923681 0
M  V30 6568 H 623.774 2.73294 -1.19804 0
M  V30 6569 C 622.523 3.45079 0.426107 0
M  V30 6570 H 621.846 3.99003 -0.25227 0
M  V30 6571 H 623.286 4.16931 0.771009 0
M  V30 6572 C 621.745 2.95195 1.62363 0
M  V30 6573 O 622.275 2.95323 2.723 0
M  V30 6574 N 620.481 2.51192 1.4612 0
M  V30 6575 H 620.028 2.51286 0.566832 0
M  V30 6576 H 619.986 2.18173 2.2638 0
M  V30 6577 N 623.758 0.647228 1.43697 0
M  V30 6578 C 624.688 -0.0345631 2.33474 0
M  V30 6579 C 625.669 -0.818193 1.4913 0
M  V30 6580 O 626.854 -0.780867 1.77809 0
M  V30 6581 C 623.984 -1.00576 3.32418 0
M  V30 6582 C 622.938 -0.33266 4.26705 0
M  V30 6583 C 622.264 -1.41489 5.1564 0
M  V30 6584 C 623.564 0.771204 5.16575 0
M  V30 6585 H 625.258 0.715163 2.90733 0
M  V30 6586 H 622.804 0.345364 1.39797 0
M  V30 6587 H 624.757 -1.49159 3.94119 0
M  V30 6588 H 623.481 -1.78657 2.73403 0
M  V30 6589 H 622.14 0.13267 3.6636 0
M  V30 6590 H 621.788 -2.18698 4.52968 0
M  V30 6591 H 621.488 -0.969799 5.79542 0
M  V30 6592 H 623.012 -1.9022 5.80214 0
M  V30 6593 H 624.426 0.36779 5.72119 0
M  V30 6594 H 622.823 1.1404 5.89165 0
M  V30 6595 H 623.893 1.63169 4.56622 0
M  V30 6596 N 625.236 -1.5273 0.388769 0
M  V30 6597 C 626.168 -2.24081 -0.481704 0
M  V30 6598 C 627.181 -1.26307 -1.02715 0
M  V30 6599 O 628.37 -1.52386 -0.929565 0
M  V30 6600 C 625.47 -2.94315 -1.68024 0
M  V30 6601 C 624.643 -4.18791 -1.26226 0
M  V30 6602 C 623.702 -4.72028 -2.32542 0
M  V30 6603 O 622.728 -5.35129 -1.93972 0
M  V30 6604 N 623.93 -4.51838 -3.64448 0
M  V30 6605 H 626.695 -2.9942 0.129591 0
M  V30 6606 H 624.256 -1.60465 0.2151 0
M  V30 6607 H 626.248 -3.26831 -2.38671 0
M  V30 6608 H 624.818 -2.22287 -2.19789 0
M  V30 6609 H 624.038 -3.92318 -0.384703 0
M  V30 6610 H 625.326 -4.99668 -0.959647 0
M  V30 6611 H 624.724 -4.01468 -3.98547 0
M  V30 6612 H 623.281 -4.88845 -4.31131 0
M  V30 6613 N 626.714 -0.118576 -1.57153 0
M  V30 6614 C 627.939 0.550582 -1.99958 0
M  V30 6615 C 628.364 1.59458 -0.997736 0
M  V30 6616 O 627.722 1.81274 0.0306269 0
M  V30 6617 C 627.77 1.15379 -3.41643 0
M  V30 6618 O 626.874 2.26932 -3.44348 0
M  V30 6619 H 626.215 0.137567 -0.649593 0
M  V30 6620 H 628.745 -0.206926 -2.03551 0
M  V30 6621 H 628.755 1.48942 -3.79843 0
M  V30 6622 H 627.43 0.389087 -4.14076 0
M  V30 6623 H 626.007 1.94812 -3.17967 0
M  V30 6624 N 628.193 1.56834 0.155195 0
M  V30 6625 C 629.14 1.97646 1.19184 0
M  V30 6626 C 630.11 0.842788 1.4313 0
M  V30 6627 O 631.295 1.1042 1.55602 0
M  V30 6628 C 628.435 2.35527 2.52232 0
M  V30 6629 C 627.548 3.62147 2.35529 0
M  V30 6630 C 626.683 3.89167 3.61555 0
M  V30 6631 C 625.722 5.09084 3.39853 0
M  V30 6632 N 624.859 5.32156 4.5799 0
M  V30 6633 H 629.699 2.8601 0.836802 0
M  V30 6634 H 627.236 1.41507 0.401758 0
M  V30 6635 H 629.194 2.55516 3.29799 0
M  V30 6636 H 627.824 1.50253 2.85699 0
M  V30 6637 H 626.876 3.4998 1.49057 0
M  V30 6638 H 628.188 4.49871 2.15448 0
M  V30 6639 H 627.342 4.09611 4.47553 0
M  V30 6640 H 626.081 2.9985 3.84632 0
M  V30 6641 H 625.086 4.88522 2.52243 0
M  V30 6642 H 626.311 5.99947 3.18183 0
M  V30 6643 H 624.257 4.45791 4.81255 0
M  V30 6644 H 624.174 6.14133 4.40882 0
M  V30 6645 H 625.442 5.57091 5.45225 0
M  V30 6646 N 629.671 -0.424282 1.51781 0
M  V30 6647 C 630.899 -1.1947 1.68921 0
M  V30 6648 C 631.314 -1.84683 0.39213 0
M  V30 6649 O 630.671 -1.71261 -0.630554 0
M  V30 6650 C 630.722 -2.26909 2.81416 0
M  V30 6651 O 630.443 -1.64361 4.061 0
M  V30 6652 C 631.944 -3.16945 3.09937 0
M  V30 6653 H 629.164 -0.359591 0.566511 0
M  V30 6654 H 631.708 -0.501139 1.98265 0
M  V30 6655 H 629.863 -2.91959 2.54635 0
M  V30 6656 H 630.277 -2.35468 4.68674 0
M  V30 6657 H 631.751 -3.88437 3.922 0
M  V30 6658 H 632.228 -3.78451 2.22871 0
M  V30 6659 H 632.834 -2.57581 3.38426 0
M  V30 6660 N 631.149 -1.42148 -0.680565 0
M  V30 6661 C 632.398 -1.41604 -1.43636 0
M  V30 6662 C 632.711 -0.0337887 -1.95571 0
M  V30 6663 O 633.917 0.0942588 -2.71336 0
M  V30 6664 C 632.373 -2.49056 -2.59806 0
M  V30 6665 C 631.981 -3.9326 -2.14594 0
M  V30 6666 C 633.725 -2.5767 -3.37352 0
M  V30 6667 C 631.632 -4.92232 -3.27813 0
M  V30 6668 H 630.562 -0.526656 -0.539583 0
M  V30 6669 H 633.213 -1.68033 -0.737369 0
M  V30 6670 H 631.595 -2.15782 -3.32045 0
M  V30 6671 H 632.769 -4.35858 -1.49546 0
M  V30 6672 H 631.084 -3.88443 -1.50002 0
M  V30 6673 H 633.681 -3.28794 -4.21662 0
M  V30 6674 H 634.024 -1.61837 -3.83555 0
M  V30 6675 H 634.557 -2.90109 -2.72179 0
M  V30 6676 H 631.296 -5.89522 -2.86607 0
M  V30 6677 H 630.816 -4.5427 -3.91661 0
M  V30 6678 H 632.495 -5.13684 -3.93367 0
M  V30 6679 N 632.627 0.916307 -1.28225 0
M  V30 6680 C 633.875 1.6619 -1.15002 0
M  V30 6681 C 634.196 1.92642 0.302329 0
M  V30 6682 O 633.466 1.54076 1.20985 0
M  V30 6683 H 632.046 0.615964 -0.422608 0
M  V30 6684 H 634.708 1.09963 -1.60917 0
M  V30 6685 H 633.804 2.62533 -1.68769 0
M  V30 6686 N 634.105 1.10431 1.1244 0
M  V30 6687 C 635.035 0.775143 2.20258 0
M  V30 6688 C 636.016 -0.25186 1.68225 0
M  V30 6689 O 637.201 -0.117637 1.93843 0
M  V30 6690 C 634.331 0.206133 3.46688 0
M  V30 6691 C 633.285 1.16382 4.11873 0
M  V30 6692 C 632.611 0.456014 5.32752 0
M  V30 6693 C 633.911 2.5104 4.58013 0
M  V30 6694 H 635.605 1.67665 2.4805 0
M  V30 6695 H 633.151 0.807595 1.19222 0
M  V30 6696 H 635.104 -0.036291 4.21384 0
M  V30 6697 H 633.828 -0.730614 3.18323 0
M  V30 6698 H 632.487 1.39169 3.39157 0
M  V30 6699 H 632.135 -0.485203 5.00654 0
M  V30 6700 H 631.835 1.09466 5.77314 0
M  V30 6701 H 633.359 0.222135 6.10196 0
M  V30 6702 H 634.773 2.32401 5.24083 0
M  V30 6703 H 633.17 3.10789 5.13352 0
M  V30 6704 H 634.24 3.11039 3.71998 0
M  V30 6705 N 635.583 -1.29855 0.893053 0
M  V30 6706 C 636.533 -2.25493 0.337211 0
M  V30 6707 C 637.517 -1.51606 -0.53894 0
M  V30 6708 O 638.709 -1.72828 -0.382043 0
M  V30 6709 C 635.838 -3.40467 -0.440117 0
M  V30 6710 C 634.924 -4.217 0.450578 0
M  V30 6711 N 635.315 -4.81312 1.55476 0
M  V30 6712 C 633.613 -4.45315 0.247154 0
M  V30 6713 C 634.314 -5.42241 2.10593 0
M  V30 6714 N 633.29 -5.25267 1.39982 0
M  V30 6715 H 637.092 -2.69137 1.18079 0
M  V30 6716 H 634.606 -1.44388 0.743359 0
M  V30 6717 H 636.603 -4.08038 -0.855021 0
M  V30 6718 H 635.263 -2.98361 -1.28104 0
M  V30 6719 H 636.274 -4.80291 1.93755 0
M  V30 6720 H 632.951 -4.13782 -0.555939 0
M  V30 6721 H 634.341 -5.99517 3.03362 0
M  V30 6722 N 637.061 -0.65484 -1.43351 0
M  V30 6723 C 638.307 -0.169142 -2.02093 0
M  V30 6724 C 638.64 1.21431 -1.51553 0
M  V30 6725 O 637.915 1.81105 -0.709317 0
M  V30 6726 C 638.198 -0.181775 -3.59641 0
M  V30 6727 C 638.051 -1.59926 -4.20409 0
M  V30 6728 C 639.37 0.480945 -4.37464 0
M  V30 6729 H 636.489 -0.0629371 -0.734308 0
M  V30 6730 H 639.131 -0.835833 -1.70628 0
M  V30 6731 H 637.281 0.385918 -3.86578 0
M  V30 6732 H 638.953 -2.21766 -4.04497 0
M  V30 6733 H 637.196 -2.14605 -3.76998 0
M  V30 6734 H 637.867 -1.55994 -5.295 0
M  V30 6735 H 640.343 -0.00208273 -4.161 0
M  V30 6736 H 639.219 0.441384 -5.47122 0
M  V30 6737 H 639.48 1.55533 -4.13838 0
M  V30 6738 N 638.539 1.52521 -0.396863 0
M  V30 6739 C 639.767 2.06091 0.18275 0
M  V30 6740 C 640.182 1.26796 1.39886 0
M  V30 6741 O 639.539 0.316585 1.79733 0
M  V30 6742 C 639.59 3.57362 0.545377 0
M  V30 6743 O 639.311 4.33656 -0.622428 0
M  V30 6744 C 640.812 4.27305 1.18004 0
M  V30 6745 H 638.032 0.670504 0.025789 0
M  V30 6746 H 640.576 1.96561 -0.564276 0
M  V30 6747 H 638.731 3.66941 1.2423 0
M  V30 6748 H 639.145 5.23507 -0.322662 0
M  V30 6749 H 640.619 5.34366 1.38408 0
M  V30 6750 H 641.096 3.83 2.1496 0
M  V30 6751 H 641.702 4.22064 0.523671 0
M  V30 6752 N 640.017 0.126909 1.57088 0
M  V30 6753 C 640.927 -0.833867 2.1928 0
M  V30 6754 C 641.943 -1.2868 1.17122 0
M  V30 6755 O 643.119 -1.34815 1.49622 0
M  V30 6756 C 640.184 -2.0632 2.78627 0
M  V30 6757 C 639.245 -1.66143 3.95847 0
M  V30 6758 C 638.478 -2.83217 4.52354 0
M  V30 6759 O 638.701 -3.98868 4.0775 0
M  V30 6760 O 637.635 -2.59846 5.42922 0
M  V30 6761 H 641.461 -0.334564 3.01852 0
M  V30 6762 H 639.046 -0.0991091 1.49071 0
M  V30 6763 H 640.928 -2.78304 3.16425 0
M  V30 6764 H 639.603 -2.55242 1.99082 0
M  V30 6765 H 638.51 -0.912435 3.62802 0
M  V30 6766 H 639.843 -1.21957 4.76852 0
M  V30 6767 N 641.495 -1.56914 -0.146875 0
M  V30 6768 C 642.725 -1.87243 -0.873126 0
M  V30 6769 C 643.133 -0.713127 -1.75246 0
M  V30 6770 O 642.476 0.326228 -1.8078 0
M  V30 6771 C 642.538 -3.12279 -1.78107 0
M  V30 6772 C 642.202 -4.44082 -1.07889 0
M  V30 6773 C 643.199 -5.18096 -0.432734 0
M  V30 6774 C 640.884 -4.90807 -1.06836 0
M  V30 6775 C 642.878 -6.37039 0.214569 0
M  V30 6776 C 640.565 -6.09674 -0.417243 0
M  V30 6777 C 641.563 -6.82636 0.223093 0
M  V30 6778 O 641.251 -7.99245 0.863884 0
M  V30 6779 H 640.983 -0.624896 -0.257839 0
M  V30 6780 H 643.537 -2.04892 -0.14434 0
M  V30 6781 H 641.767 -2.90639 -2.5508 0
M  V30 6782 H 643.456 -3.28854 -2.37929 0
M  V30 6783 H 644.222 -4.83066 -0.432677 0
M  V30 6784 H 640.101 -4.3394 -1.55618 0
M  V30 6785 H 643.645 -6.93927 0.714965 0
M  V30 6786 H 639.542 -6.44165 -0.414967 0
M  V30 6787 H 640.31 -8.14912 0.765564 0
M  V30 6788 N 642.974 0.416227 -1.52004 0
M  V30 6789 C 643.884 1.53147 -1.77717 0
M  V30 6790 C 644.9 1.609 -0.662368 0
M  V30 6791 O 646.076 1.77747 -0.946991 0
M  V30 6792 C 643.141 2.88948 -1.91598 0
M  V30 6793 C 642.202 2.9114 -3.15493 0
M  V30 6794 C 641.435 4.20464 -3.28703 0
M  V30 6795 O 641.658 5.13981 -2.47345 0
M  V30 6796 O 640.592 4.29368 -4.21813 0
M  V30 6797 H 644.418 1.34357 -2.72363 0
M  V30 6798 H 642.003 0.601373 -1.36762 0
M  V30 6799 H 643.885 3.69505 -2.02593 0
M  V30 6800 H 642.56 3.07821 -1.00141 0
M  V30 6801 H 641.467 2.09461 -3.09962 0
M  V30 6802 H 642.8 2.77216 -4.06709 0
M  V30 6803 N 644.452 1.42507 0.673017 0
M  V30 6804 C 645.729 1.33554 1.42908 0
M  V30 6805 C 646.109 -0.0262211 2.11084 0
M  V30 6806 O 645.457 -1.04181 2.03368 0
M  V30 6807 C 645.667 2.50498 2.43006 0
M  V30 6808 C 647.015 2.92694 3.07596 0
M  V30 6809 O 648.039 2.50401 2.53333 0
M  V30 6810 O 646.898 3.65899 4.05931 0
M  V30 6811 H 643.992 0.526785 0.637516 0
M  V30 6812 H 646.538 1.54518 0.701591 0
M  V30 6813 H 645.31 3.41272 1.9144 0
M  V30 6814 H 644.933 2.3153 3.23233 0
M  V30 6815 N 645.93 -0.909495 1.28709 0
M  V30 6816 C 646.878 -2.03381 1.12866 0
M  V30 6817 C 647.872 -1.69335 0.0468074 0
M  V30 6818 O 649.078 -1.78819 0.205891 0
M  V30 6819 H 645.453 -0.666452 0.348348 0
M  V30 6820 H 647.424 -2.13885 2.08077 0
M  V30 6821 C 646.173 -3.38092 0.811742 0
M  V30 6822 H 645.496 -3.64786 1.63619 0
M  V30 6823 H 646.936 -4.17477 0.740869 0
M  V30 6824 C 645.395 -3.33395 -0.484679 0
M  V30 6825 O 645.925 -3.72089 -1.5137 0
M  V30 6826 N 644.131 -2.86491 -0.486961 0
M  V30 6827 H 643.678 -2.55199 0.350877 0
M  V30 6828 H 643.636 -2.83731 -1.3544 0
M  V30 6829 N 647.408 -1.11026 -1.11852 0
M  V30 6830 C 648.338 -0.786812 -2.19844 0
M  V30 6831 C 649.319 0.242935 -1.68356 0
M  V30 6832 O 650.504 0.107355 -1.93903 0
M  V30 6833 C 647.634 -0.224516 -3.46574 0
M  V30 6834 C 646.588 -1.18564 -4.1125 0
M  V30 6835 C 645.914 -0.484261 -5.32503 0
M  V30 6836 C 647.214 -2.53465 -4.56676 0
M  V30 6837 H 648.908 -1.68978 -2.47158 0
M  V30 6838 H 646.454 -0.813906 -1.18792 0
M  V30 6839 H 648.407 0.0139435 -4.21398 0
M  V30 6840 H 647.131 0.713722 -3.18706 0
M  V30 6841 H 645.79 -1.40966 -3.38414 0
M  V30 6842 H 645.438 0.458646 -5.00905 0
M  V30 6843 H 645.138 -1.12526 -5.76725 0
M  V30 6844 H 646.662 -0.254492 -6.10069 0
M  V30 6845 H 648.076 -2.35177 -5.22843 0
M  V30 6846 H 646.473 -3.13507 -5.11697 0
M  V30 6847 H 647.543 -3.13008 -3.70343 0
M  V30 6848 N 648.886 1.2938 -0.899927 0
M  V30 6849 C 649.833 2.27713 -0.376243 0
M  V30 6850 C 650.803 1.57016 0.541774 0
M  V30 6851 O 651.988 1.84997 0.466966 0
M  V30 6852 C 649.128 3.42889 0.39 0
M  V30 6853 C 648.241 4.28369 -0.558938 0
M  V30 6854 C 647.376 5.30726 0.224379 0
M  V30 6855 C 646.415 6.07862 -0.719068 0
M  V30 6856 N 645.552 7.02094 0.0298569 0
M  V30 6857 H 650.392 2.71888 -1.21988 0
M  V30 6858 H 647.929 1.33724 -0.612879 0
M  V30 6859 H 649.887 4.08443 0.850314 0
M  V30 6860 H 648.517 2.99743 1.19809 0
M  V30 6861 H 647.569 3.62986 -1.13777 0
M  V30 6862 H 648.881 4.82068 -1.2811 0
M  V30 6863 H 648.035 6.02098 0.745881 0
M  V30 6864 H 646.774 4.77759 0.979674 0
M  V30 6865 H 645.779 5.35353 -1.25207 0
M  V30 6866 H 647.004 6.62917 -1.4737 0
M  V30 6867 H 644.95 6.51496 0.767415 0
M  V30 6868 H 644.867 7.5335 -0.632391 0
M  V30 6869 H 646.135 7.77685 0.531615 0
M  V30 6870 N 650.364 0.662433 1.43002 0
M  V30 6871 C 651.312 -0.035345 2.32573 0
M  V30 6872 C 652.306 -0.803505 1.49131 0
M  V30 6873 O 653.512 -0.712865 1.65282 0
M  V30 6874 H 649.887 -0.0302194 0.751393 0
M  V30 6875 H 651.858 0.737686 2.89138 0
M  V30 6876 C 650.607 -0.981575 3.33557 0
M  V30 6877 H 649.93 -0.399914 3.97795 0
M  V30 6878 H 651.37 -1.43873 3.98844 0
M  V30 6879 C 649.829 -2.08204 2.64863 0
M  V30 6880 O 650.359 -3.16698 2.47113 0
M  V30 6881 N 648.565 -1.85022 2.24088 0
M  V30 6882 H 648.112 -0.967909 2.38724 0
M  V30 6883 H 648.07 -2.58845 1.78457 0
M  V30 6884 N 651.842 -1.52309 0.404946 0
M  V30 6885 C 653.067 -2.06666 -0.1743 0
M  V30 6886 C 653.492 -1.27341 -1.38441 0
M  V30 6887 O 652.85 -0.302539 -1.78758 0
M  V30 6888 C 652.898 -3.57014 -0.507262 0
M  V30 6889 O 652.002 -3.80144 -1.59889 0
M  V30 6890 H 651.343 -0.663807 -0.0160273 0
M  V30 6891 H 653.873 -1.96297 0.576937 0
M  V30 6892 H 653.883 -4.00724 -0.767098 0
M  V30 6893 H 652.558 -4.14184 0.377368 0
M  V30 6894 H 651.135 -3.48316 -1.33155 0
M  V30 6895 N 653.32 -0.135238 -1.57019 0
M  V30 6896 C 654.566 0.513232 -1.96818 0
M  V30 6897 C 654.921 1.63245 -1.01827 0
M  V30 6898 O 654.214 1.91532 -0.0511756 0
M  V30 6899 C 654.408 1.07694 -3.40788 0
M  V30 6900 C 654.237 0.0138667 -4.49698 0
M  V30 6901 C 653.007 -0.423532 -5.03522 0
M  V30 6902 C 655.205 -0.77322 -5.08454 0
M  V30 6903 N 653.187 -1.47068 -5.96024 0
M  V30 6904 C 654.558 -1.67115 -5.97053 0
M  V30 6905 C 656.613 -0.822313 -4.91063 0
M  V30 6906 C 655.316 -2.61395 -6.70123 0
M  V30 6907 C 657.342 -1.75288 -5.64826 0
M  V30 6908 C 656.704 -2.63836 -6.53123 0
M  V30 6909 H 652.803 0.156956 -0.766087 0
M  V30 6910 H 655.387 -0.227118 -1.93371 0
M  V30 6911 H 653.558 1.78694 -3.44852 0
M  V30 6912 H 655.29 1.69106 -3.67675 0
M  V30 6913 H 652.045 -0.0280202 -4.73592 0
M  V30 6914 H 652.469 -1.99366 -6.46979 0
M  V30 6915 H 657.111 -0.151822 -4.22527 0
M  V30 6916 H 654.829 -3.2945 -7.37895 0
M  V30 6917 H 658.415 -1.79652 -5.53368 0
M  V30 6918 H 657.295 -3.34672 -7.092 0
M  V30 6919 N 654.798 1.5699 0.138552 0
M  V30 6920 C 656.044 1.84081 0.85099 0
M  V30 6921 C 656.377 0.718107 1.80435 0
M  V30 6922 O 655.652 -0.277633 1.92508 0
M  V30 6923 C 655.935 3.21699 1.61808 0
M  V30 6924 C 655.788 4.44544 0.685633 0
M  V30 6925 C 657.107 3.5664 2.57868 0
M  V30 6926 H 654.226 0.669592 0.307922 0
M  V30 6927 H 656.868 1.89646 0.11588 0
M  V30 6928 H 655.018 3.17086 2.24474 0
M  V30 6929 H 656.69 4.61248 0.0693179 0
M  V30 6930 H 654.933 4.338 -0.00421993 0
M  V30 6931 H 655.604 5.3746 1.25858 0
M  V30 6932 H 658.08 3.61918 2.05316 0
M  V30 6933 H 656.956 4.53946 3.08584 0
M  V30 6934 H 657.217 2.83036 3.39622 0
M  V30 6935 N 656.276 -0.40816 1.52223 0
M  V30 6936 C 657.522 -1.15347 1.67531 0
M  V30 6937 C 657.877 -1.8818 0.400748 0
M  V30 6938 O 657.17 -1.81803 -0.604845 0
M  V30 6939 C 657.364 -2.17422 2.83659 0
M  V30 6940 C 657.193 -1.54611 4.22286 0
M  V30 6941 C 655.963 -1.31841 4.87797 0
M  V30 6942 C 658.161 -1.00648 5.04355 0
M  V30 6943 N 656.143 -0.649338 6.10456 0
M  V30 6944 C 657.514 -0.464384 6.18258 0
M  V30 6945 C 659.569 -0.901041 4.89679 0
M  V30 6946 C 658.272 0.172825 7.19092 0
M  V30 6947 C 660.298 -0.277684 5.90748 0
M  V30 6948 C 659.66 0.253734 7.03943 0
M  V30 6949 H 655.759 -0.408722 0.666686 0
M  V30 6950 H 658.343 -0.445713 1.8953 0
M  V30 6951 H 656.514 -2.85554 2.63274 0
M  V30 6952 H 658.246 -2.84321 2.87999 0
M  V30 6953 H 655.001 -1.58819 4.46176 0
M  V30 6954 H 655.425 -0.3314 6.76188 0
M  V30 6955 H 660.067 -1.29772 4.02392 0
M  V30 6956 H 657.785 0.581564 8.06005 0
M  V30 6957 H 661.371 -0.197605 5.81464 0
M  V30 6958 H 660.251 0.728482 7.80809 0
M  V30 6959 N 657.755 -1.42862 -0.66545 0
M  V30 6960 C 658.702 -1.4707 -1.77874 0
M  V30 6961 C 659.672 -0.321654 -1.62956 0
M  V30 6962 O 660.857 -0.52707 -1.83376 0
M  V30 6963 C 657.997 -1.38788 -3.15962 0
M  V30 6964 C 657.11 -2.63801 -3.42101 0
M  V30 6965 C 656.245 -2.47594 -4.69969 0
M  V30 6966 C 655.284 -3.67936 -4.89172 0
M  V30 6967 N 654.421 -3.50614 -6.08288 0
M  V30 6968 H 659.261 -2.42204 -1.73613 0
M  V30 6969 H 656.798 -1.20239 -0.847401 0
M  V30 6970 H 658.756 -1.31982 -3.95773 0
M  V30 6971 H 657.386 -0.472431 -3.19324 0
M  V30 6972 H 656.438 -2.80935 -2.56475 0
M  V30 6973 H 657.75 -3.53228 -3.52181 0
M  V30 6974 H 656.904 -2.38427 -5.57886 0
M  V30 6975 H 655.643 -1.55672 -4.62188 0
M  V30 6976 H 654.648 -3.77525 -3.99694 0
M  V30 6977 H 655.873 -4.60851 -4.98792 0
M  V30 6978 H 653.819 -2.61417 -6.01662 0
M  V30 6979 H 653.736 -4.33634 -6.19272 0
M  V30 6980 H 655.004 -3.45276 -6.98859 0
M  V30 6981 N 659.233 0.902656 -1.29189 0
M  V30 6982 C 660.143 2.03946 -1.15944 0
M  V30 6983 C 661.159 1.738 -0.0833803 0
M  V30 6984 O 662.335 1.9923 -0.29487 0
M  V30 6985 C 659.4 3.36519 -0.834006 0
M  V30 6986 C 658.461 3.80203 -1.9936 0
M  V30 6987 C 657.694 5.06449 -1.68359 0
M  V30 6988 O 657.917 5.67202 -0.603141 0
M  V30 6989 O 656.851 5.46114 -2.53067 0
M  V30 6990 H 660.677 2.18043 -2.11403 0
M  V30 6991 H 658.262 1.02584 -1.08613 0
M  V30 6992 H 660.144 4.16089 -0.666949 0
M  V30 6993 H 658.819 3.23573 0.0908245 0
M  V30 6994 H 657.726 3.01413 -2.21588 0
M  V30 6995 H 659.059 3.97729 -2.89952 0
M  V30 6996 N 660.711 1.11618 1.11262 0
M  V30 6997 C 661.641 0.79846 2.19424 0
M  V30 6998 C 662.622 -0.234003 1.68483 0
M  V30 6999 O 663.807 -0.0970704 1.93957 0
M  V30 7000 C 660.937 0.242892 3.4645 0
M  V30 7001 C 659.891 1.20744 4.10615 0
M  V30 7002 C 659.217 0.512494 5.32238 0
M  V30 7003 C 660.517 2.55884 4.55325 0
M  V30 7004 H 662.211 1.70286 2.46258 0
M  V30 7005 H 659.757 0.820195 1.18359 0
M  V30 7006 H 661.71 0.00840447 4.21399 0
M  V30 7007 H 660.434 -0.696811 3.1908 0
M  V30 7008 H 659.093 1.42759 3.37662 0
M  V30 7009 H 658.741 -0.432075 5.01141 0
M  V30 7010 H 658.441 1.15583 5.7612 0
M  V30 7011 H 659.965 0.286842 6.09926 0
M  V30 7012 H 661.379 2.37946 5.21588 0
M  V30 7013 H 659.776 3.16216 5.10027 0
M  V30 7014 H 660.846 3.14968 3.68678 0
M  V30 7015 N 662.189 -1.289 0.906776 0
M  V30 7016 C 663.419 -1.99112 0.551168 0
M  V30 7017 C 663.827 -1.67998 -0.870243 0
M  V30 7018 O 663.17 -0.92525 -1.58697 0
M  V30 7019 C 663.232 -3.53162 0.672065 0
M  V30 7020 C 662.896 -4.07849 2.06174 0
M  V30 7021 C 663.893 -4.22212 3.0337 0
M  V30 7022 C 661.578 -4.4271 2.37304 0
M  V30 7023 C 663.572 -4.70678 4.29815 0
M  V30 7024 C 661.259 -4.90871 3.6399 0
M  V30 7025 C 662.257 -5.04811 4.6006 0
M  V30 7026 O 661.945 -5.51925 5.84495 0
M  V30 7027 H 661.677 -0.642728 0.209469 0
M  V30 7028 H 664.231 -1.65234 1.22012 0
M  V30 7029 H 662.461 -3.86662 -0.05394 0
M  V30 7030 H 664.15 -4.046 0.324579 0
M  V30 7031 H 664.916 -3.9556 2.80637 0
M  V30 7032 H 660.795 -4.31114 1.63283 0
M  V30 7033 H 664.339 -4.81474 5.04806 0
M  V30 7034 H 660.236 -5.16961 3.86551 0
M  V30 7035 H 661.004 -5.70225 5.87185 0
M  V30 7036 N 663.667 -0.670007 -1.42649 0
M  V30 7037 C 664.892 -0.196955 -2.06463 0
M  V30 7038 C 665.317 1.1352 -1.49983 0
M  V30 7039 O 664.675 1.705 -0.616397 0
M  V30 7040 C 664.723 -0.137381 -3.60338 0
M  V30 7041 O 663.827 0.895523 -4.02559 0
M  V30 7042 H 663.168 -0.102579 -0.656029 0
M  V30 7043 H 665.698 -0.917669 -1.82866 0
M  V30 7044 H 665.708 0.0403625 -4.0798 0
M  V30 7045 H 664.383 -1.10977 -4.0082 0
M  V30 7046 H 662.96 0.689209 -3.66476 0
M  V30 7047 N 665.145 1.52092 -0.413018 0
M  V30 7048 C 666.391 2.02154 0.161737 0
M  V30 7049 C 666.724 1.29789 1.44459 0
M  V30 7050 O 665.999 0.405378 1.90229 0
M  V30 7051 C 666.282 3.5781 0.405463 0
M  V30 7052 C 666.135 4.40819 -0.894335 0
M  V30 7053 C 667.454 4.23821 1.18591 0
M  V30 7054 H 664.573 0.734769 0.0573077 0
M  V30 7055 H 667.215 1.81948 -0.547247 0
M  V30 7056 H 665.365 3.75158 1.0094 0
M  V30 7057 H 667.037 4.35175 -1.53039 0
M  V30 7058 H 665.28 4.06877 -1.50444 0
M  V30 7059 H 665.951 5.47819 -0.678144 0
M  V30 7060 H 668.427 4.10596 0.674573 0
M  V30 7061 H 667.303 5.32663 1.3252 0
M  V30 7062 H 667.564 3.83038 2.20758 0
M  V30 7063 N 666.623 0.143563 1.56945 0
M  V30 7064 C 668.039 -0.212877 1.58174 0
M  V30 7065 C 668.239 -1.64926 1.15766 0
M  V30 7066 O 667.295 -2.37535 0.856361 0
M  V30 7067 C 668.608 0.0427573 3.0067 0
M  V30 7068 C 670.156 -0.0212221 3.12993 0
M  V30 7069 C 670.631 0.207036 4.57532 0
M  V30 7070 N 672.122 0.153845 4.62944 0
M  V30 7071 C 672.857 0.305018 5.72588 0
M  V30 7072 N 672.353 0.513722 6.90893 0
M  V30 7073 N 674.146 0.242862 5.61575 0
M  V30 7074 H 666.297 1.08148 1.82805 0
M  V30 7075 H 668.56 0.427831 0.84597 0
M  V30 7076 H 668.266 1.03672 3.36073 0
M  V30 7077 H 668.14 -0.678195 3.71053 0
M  V30 7078 H 670.527 -1.00574 2.77433 0
M  V30 7079 H 670.608 0.732004 2.45103 0
M  V30 7080 H 670.252 1.18863 4.93795 0
M  V30 7081 H 670.182 -0.566473 5.23544 0
M  V30 7082 H 672.673 -0.00294866 3.779 0
M  V30 7083 H 672.986 0.619273 7.70315 0
M  V30 7084 H 671.331 0.550001 6.9282 0
M  V30 7085 H 674.522 0.0806015 4.68031 0
M  V30 7086 H 674.695 0.364112 6.46976 0
M  V30 7087 N 668.101 -1.57061 -0.130224 0
M  V30 7088 C 669.049 -2.00486 -1.17933 0
M  V30 7089 C 670.043 -0.899933 -1.43519 0
M  V30 7090 O 671.249 -1.08514 -1.43613 0
M  V30 7091 H 667.624 -0.638441 -0.397363 0
M  V30 7092 H 669.595 -2.87848 -0.786501 0
M  V30 7093 C 668.344 -2.41565 -2.50084 0
M  V30 7094 H 667.667 -3.26148 -2.31231 0
M  V30 7095 H 669.107 -2.75757 -3.22078 0
M  V30 7096 C 667.566 -1.27485 -3.11848 0
M  V30 7097 O 668.096 -0.584688 -3.97422 0
M  V30 7098 N 666.302 -1.03478 -2.71552 0
M  V30 7099 H 665.849 -1.59779 -2.02061 0
M  V30 7100 H 665.807 -0.27341 -3.13209 0
M  V30 7101 N 669.579 0.400081 -1.52437 0
M  V30 7102 C 670.828 1.14332 -1.66166 0
M  V30 7103 C 671.141 1.91419 -0.402253 0
M  V30 7104 O 672.347 2.6824 -0.419487 0
M  V30 7105 C 670.803 2.08137 -2.9361 0
M  V30 7106 C 670.411 1.36524 -4.26691 0
M  V30 7107 C 672.155 2.82664 -3.16703 0
M  V30 7108 C 670.062 2.29031 -5.45251 0
M  V30 7109 H 668.992 0.430499 -0.61902 0
M  V30 7110 H 671.643 0.407017 -1.78929 0
M  V30 7111 H 670.025 2.85358 -2.74567 0
M  V30 7112 H 671.199 0.646061 -4.56249 0
M  V30 7113 H 669.514 0.74002 -4.09771 0
M  V30 7114 H 672.111 3.52037 -4.0246 0
M  V30 7115 H 672.454 3.46122 -2.31312 0
M  V30 7116 H 672.987 2.12541 -3.36261 0
M  V30 7117 H 669.726 1.70206 -6.33017 0
M  V30 7118 H 669.246 2.98896 -5.2002 0
M  V30 7119 H 670.925 2.89359 -5.78689 0
M  V30 7120 N 671.057 1.43213 0.657864 0
M  V30 7121 C 672.473 1.26511 0.972992 0
M  V30 7122 C 672.673 0.181477 2.00681 0
M  V30 7123 O 671.729 -0.441649 2.48608 0
M  V30 7124 C 673.042 2.62784 1.46168 0
M  V30 7125 C 674.59 2.70278 1.57857 0
M  V30 7126 C 675.065 4.06958 2.10117 0
M  V30 7127 N 676.556 4.08999 2.17426 0
M  V30 7128 C 677.291 5.11585 2.58975 0
M  V30 7129 N 676.787 6.24548 2.99853 0
M  V30 7130 N 678.58 4.9894 2.58873 0
M  V30 7131 H 670.731 2.12384 -0.0263129 0
M  V30 7132 H 672.994 0.946638 0.0507992 0
M  V30 7133 H 672.7 3.43022 0.776474 0
M  V30 7134 H 672.574 2.87863 2.43751 0
M  V30 7135 H 674.961 1.90376 2.25479 0
M  V30 7136 H 675.042 2.4897 0.587179 0
M  V30 7137 H 674.686 4.87325 1.43098 0
M  V30 7138 H 674.616 4.25628 3.10078 0
M  V30 7139 H 677.107 3.27457 1.88627 0
M  V30 7140 H 677.42 6.98661 3.30292 0
M  V30 7141 H 675.765 6.28027 2.97669 0
M  V30 7142 H 678.956 4.09757 2.26311 0
M  V30 7143 H 679.129 5.79019 2.90932 0
M  V30 7144 N 672.536 -0.895792 1.29666 0
M  V30 7145 C 673.947 -1.46195 1.1612 0
M  V30 7146 C 674.298 -1.94699 -0.242195 0
M  V30 7147 O 673.423 -1.8406 -1.13802 0
M  V30 7148 C 674.018 -2.65718 2.10189 0
M  V30 7149 C 672.577 -3.18458 2.00653 0
M  V30 7150 C 671.724 -1.91149 2.00891 0
M  V30 7151 H 674.675 -0.706756 1.42094 0
M  V30 7152 H 674.696 -3.4158 1.6764 0
M  V30 7153 H 674.208 -2.30386 3.12321 0
M  V30 7154 H 672.309 -3.58474 1.01623 0
M  V30 7155 H 672.422 -3.82491 2.88509 0
M  V30 7156 H 670.786 -2.09021 1.45542 0
M  V30 7157 H 671.569 -1.58089 3.04734 0
M  V30 7158 N 674.014 -1.12206 -1.10668 0
M  V30 7159 C 675.239 -0.898938 -1.86906 0
M  V30 7160 C 675.664 0.546346 -1.79991 0
M  V30 7161 O 675.022 1.38655 -1.1681 0
M  V30 7162 C 675.07 -1.37529 -3.33344 0
M  V30 7163 O 674.174 -0.55218 -4.08687 0
M  V30 7164 H 673.515 -0.323163 -0.580053 0
M  V30 7165 H 676.045 -1.49355 -1.39837 0
M  V30 7166 H 676.055 -1.3733 -3.84193 0
M  V30 7167 H 674.73 -2.42767 -3.37693 0
M  V30 7168 H 673.307 -0.620947 -3.67694 0
M  V30 7169 N 675.492 1.28418 -0.913599 0
M  V30 7170 C 676.732 1.96756 -0.553771 0
M  V30 7171 C 677.096 1.70334 0.886013 0
M  V30 7172 O 678.297 2.32242 1.35341 0
M  V30 7173 C 676.568 3.47041 -0.854249 0
M  V30 7174 S 678.127 4.34667 -0.600816 0
M  V30 7175 H 674.945 0.680831 -0.204915 0
M  V30 7176 H 677.547 1.55947 -1.17902 0
M  V30 7177 H 676.251 3.63766 -1.90007 0
M  V30 7178 H 675.782 3.92797 -0.217651 0
M  V30 7179 H 677.797 4.93166 0.547906 0
M  V30 7180 N 676.97 0.677563 1.42291 0
M  V30 7181 C 677.92 -0.0218641 2.2799 0
M  V30 7182 C 678.904 -0.770816 1.41235 0
M  V30 7183 O 680.096 -0.649273 1.64662 0
M  V30 7184 C 677.225 -0.970449 3.29298 0
M  V30 7185 C 676.311 -0.218695 4.23536 0
M  V30 7186 N 676.702 0.777908 4.99782 0
M  V30 7187 C 675 -0.456748 4.43655 0
M  V30 7188 C 675.701 1.22632 5.68627 0
M  V30 7189 N 674.677 0.55573 5.40752 0
M  V30 7190 H 678.479 0.742516 2.84366 0
M  V30 7191 H 675.993 0.506862 1.54288 0
M  V30 7192 H 677.99 -1.48652 3.89497 0
M  V30 7193 H 676.65 -1.73463 2.74483 0
M  V30 7194 H 677.661 1.15754 5.04798 0
M  V30 7195 H 674.338 -1.20021 3.99877 0
M  V30 7196 H 675.728 2.05231 6.39789 0
M  V30 7197 N 678.448 -1.51871 0.421078 0
M  V30 7198 C 679.696 -2.01539 -0.150492 0
M  V30 7199 C 680.017 -1.30803 -1.44623 0
M  V30 7200 O 679.287 -0.437568 -1.90951 0
M  V30 7201 H 677.867 -0.744698 -0.0586041 0
M  V30 7202 H 680.529 -1.8668 0.560059 0
M  V30 7203 H 679.625 -3.10264 -0.338068 0
M  V30 7204 N 679.926 -0.151884 -1.56866 0
M  V30 7205 C 681.172 0.498742 -1.96572 0
M  V30 7206 C 681.505 1.64194 -1.03702 0
M  V30 7207 O 680.78 1.94334 -0.0803432 0
M  V30 7208 C 681.063 1.00027 -3.45929 0
M  V30 7209 C 680.916 -0.141767 -4.49577 0
M  V30 7210 C 682.235 1.88044 -3.97904 0
M  V30 7211 H 679.354 0.17982 -0.714726 0
M  V30 7212 H 681.996 -0.234097 -1.88552 0
M  V30 7213 H 680.146 1.62476 -3.52894 0
M  V30 7214 H 681.818 -0.778269 -4.54687 0
M  V30 7215 H 680.061 -0.80019 -4.26356 0
M  V30 7216 H 680.732 0.250947 -5.51429 0
M  V30 7217 H 683.208 1.35416 -3.93449 0
M  V30 7218 H 682.084 2.20043 -5.02864 0
M  V30 7219 H 682.345 2.81916 -3.40552 0
M  V30 7220 N 681.404 1.57128 0.121893 0
M  V30 7221 C 682.334 2.03165 1.15092 0
M  V30 7222 C 683.315 0.915587 1.43356 0
M  V30 7223 O 684.5 1.1851 1.53847 0
M  V30 7224 C 681.63 2.43352 2.47784 0
M  V30 7225 C 680.584 3.58376 2.33989 0
M  V30 7226 C 679.91 3.84454 3.71617 0
M  V30 7227 C 681.21 4.90199 1.80283 0
M  V30 7228 H 682.904 2.89382 0.768023 0
M  V30 7229 H 680.45 1.39218 0.367998 0
M  V30 7230 H 682.403 2.74163 3.20019 0
M  V30 7231 H 681.127 1.54103 2.87958 0
M  V30 7232 H 679.786 3.2777 1.64202 0
M  V30 7233 H 679.434 2.92414 4.09271 0
M  V30 7234 H 679.134 4.61877 3.6324 0
M  V30 7235 H 680.658 4.17714 4.45362 0
M  V30 7236 H 682.072 5.19565 2.42333 0
M  V30 7237 H 680.469 5.71601 1.82735 0
M  V30 7238 H 681.539 4.78904 0.760184 0
M  V30 7239 N 682.882 -0.391992 1.52647 0
M  V30 7240 C 684.13 -1.13507 1.67214 0
M  V30 7241 C 684.451 -1.90575 0.41304 0
M  V30 7242 O 683.721 -1.87348 -0.572498 0
M  V30 7243 H 682.301 -0.422013 0.616372 0
M  V30 7244 H 684.963 -0.44502 1.89751 0
M  V30 7245 H 684.059 -1.83964 2.52118 0
M  V30 7246 N 684.36 -1.4356 -0.65026 0
M  V30 7247 C 685.606 -1.45549 -1.41221 0
M  V30 7248 C 685.939 -0.0805472 -1.94033 0
M  V30 7249 O 685.214 0.899043 -1.72475 0
M  V30 7250 C 685.497 -2.50028 -2.59148 0
M  V30 7251 C 685.35 -3.96808 -2.1181 0
M  V30 7252 C 686.669 -2.51212 -3.61359 0
M  V30 7253 H 683.788 -0.529967 -0.512156 0
M  V30 7254 H 686.43 -1.75127 -0.736933 0
M  V30 7255 H 684.58 -2.24937 -3.16758 0
M  V30 7256 H 686.252 -4.32966 -1.59178 0
M  V30 7257 H 684.495 -4.09498 -1.43156 0
M  V30 7258 H 685.166 -4.6553 -2.96625 0
M  V30 7259 H 687.642 -2.73583 -3.13515 0
M  V30 7260 H 686.518 -3.26252 -4.41419 0
M  V30 7261 H 686.779 -1.54701 -4.1415 0
M  V30 7262 N 685.838 0.888903 -1.30139 0
M  V30 7263 C 687.068 1.67115 -1.21474 0
M  V30 7264 C 687.476 1.87852 0.225472 0
M  V30 7265 O 686.819 1.42324 1.16145 0
M  V30 7266 C 686.881 3.0713 -1.86846 0
M  V30 7267 C 686.545 3.09582 -3.36167 0
M  V30 7268 C 687.542 2.88929 -4.32222 0
M  V30 7269 C 685.227 3.31304 -3.77549 0
M  V30 7270 C 687.221 2.89949 -5.67634 0
M  V30 7271 C 684.908 3.31954 -5.13079 0
M  V30 7272 C 685.906 3.113 -6.07932 0
M  V30 7273 O 685.594 3.11758 -7.40987 0
M  V30 7274 H 685.326 0.528372 -0.421662 0
M  V30 7275 H 687.88 1.11919 -1.7223 0
M  V30 7276 H 686.11 3.63973 -1.30615 0
M  V30 7277 H 687.799 3.6749 -1.72354 0
M  V30 7278 H 688.565 2.71948 -4.01584 0
M  V30 7279 H 684.444 3.46417 -3.04165 0
M  V30 7280 H 687.988 2.73746 -6.41645 0
M  V30 7281 H 683.885 3.48469 -5.43359 0
M  V30 7282 H 684.653 3.27951 -7.49927 0
M  V30 7283 N 687.317 1.12792 1.10072 0
M  V30 7284 C 688.565 0.883796 1.81751 0
M  V30 7285 C 688.886 -0.591891 1.858 0
M  V30 7286 O 688.156 -1.43017 1.33876 0
M  V30 7287 H 686.736 0.323978 0.673088 0
M  V30 7288 H 689.398 1.42314 1.33164 0
M  V30 7289 H 688.494 1.26863 2.85153 0
M  V30 7290 N 688.795 -1.27931 0.920396 0
M  V30 7291 C 690.043 -1.94304 0.555906 0
M  V30 7292 C 690.364 -1.72753 -0.904519 0
M  V30 7293 O 689.634 -1.07104 -1.64029 0
M  V30 7294 H 688.214 -0.719001 0.202599 0
M  V30 7295 H 690.876 -1.55785 1.1712 0
M  V30 7296 H 689.972 -3.02806 0.755981 0
M  V30 7297 N 690.273 -0.685099 -1.4193 0
M  V30 7298 C 691.206 0.0371639 -2.2817 0
M  V30 7299 C 692.184 0.798436 -1.41647 0
M  V30 7300 O 693.368 0.791428 -1.71081 0
M  V30 7301 C 690.495 1.05993 -3.21688 0
M  V30 7302 C 689.541 0.393043 -4.24685 0
M  V30 7303 S 690.374 -0.856921 -5.28599 0
M  V30 7304 C 691.53 0.164508 -6.25684 0
M  V30 7305 H 691.763 -0.694305 -2.89079 0
M  V30 7306 H 689.296 -0.474999 -1.46912 0
M  V30 7307 H 691.254 1.64489 -3.76103 0
M  V30 7308 H 689.915 1.7639 -2.59895 0
M  V30 7309 H 689.108 1.16513 -4.90348 0
M  V30 7310 H 688.71 -0.118589 -3.73812 0
M  V30 7311 H 691.002 1.02106 -6.69762 0
M  V30 7312 H 691.945 -0.457917 -7.06618 0
M  V30 7313 H 692.353 0.514596 -5.6215 0
M  V30 7314 N 691.751 1.51645 -0.429126 0
M  V30 7315 C 693 2.01203 0.141538 0
M  V30 7316 C 693.313 1.31828 1.44502 0
M  V30 7317 O 694.519 1.7231 2.09813 0
M  V30 7318 C 692.975 3.58624 0.302786 0
M  V30 7319 C 692.583 4.3693 -0.989775 0
M  V30 7320 C 694.327 4.16353 0.827661 0
M  V30 7321 C 692.234 5.86037 -0.794619 0
M  V30 7322 H 691.164 0.751867 0.05667 0
M  V30 7323 H 693.815 1.74822 -0.557633 0
M  V30 7324 H 692.197 3.81417 1.06476 0
M  V30 7325 H 693.371 4.25887 -1.75945 0
M  V30 7326 H 691.686 3.90614 -1.44256 0
M  V30 7327 H 694.283 5.25455 0.990026 0
M  V30 7328 H 694.626 3.74995 1.80787 0
M  V30 7329 H 695.159 3.97606 0.124213 0
M  V30 7330 H 691.898 6.31792 -1.74697 0
M  V30 7331 H 691.418 5.99765 -0.0645968 0
M  V30 7332 H 693.097 6.45471 -0.444591 0
M  V30 7333 N 693.229 0.160201 1.56784 0
M  V30 7334 C 694.459 -0.493449 2.00621 0
M  V30 7335 C 694.867 -1.5809 1.03943 0
M  V30 7336 O 694.21 -1.83675 0.0305343 0
M  V30 7337 C 694.272 -1.14169 3.4089 0
M  V30 7338 C 693.936 -0.197243 4.56574 0
M  V30 7339 C 694.933 0.580174 5.16653 0
M  V30 7340 C 692.618 -0.0963038 5.02208 0
M  V30 7341 C 694.612 1.44584 6.20785 0
M  V30 7342 C 692.299 0.772959 6.06192 0
M  V30 7343 C 693.297 1.54263 6.65351 0
M  V30 7344 O 692.985 2.39738 7.67321 0
M  V30 7345 H 692.717 -0.131764 0.663034 0
M  V30 7346 H 695.271 0.255728 2.03802 0
M  V30 7347 H 693.501 -1.93877 3.34587 0
M  V30 7348 H 695.19 -1.69641 3.6875 0
M  V30 7349 H 695.956 0.5123 4.82287 0
M  V30 7350 H 691.835 -0.685143 4.5588 0
M  V30 7351 H 695.379 2.04706 6.66889 0
M  V30 7352 H 691.276 0.842077 6.39984 0
M  V30 7353 H 692.044 2.33131 7.84597 0
M  V30 7354 N 694.707 -1.5719 -0.113559 0
M  V30 7355 C 695.935 -1.89328 -0.834422 0
M  V30 7356 C 696.35 -0.752018 -1.73177 0
M  V30 7357 O 695.707 0.276912 -1.80387 0
M  V30 7358 C 695.758 -3.20962 -1.66329 0
M  V30 7359 O 695.479 -4.30695 -0.802069 0
M  V30 7360 C 696.98 -3.6684 -2.48884 0
M  V30 7361 H 694.2 -0.626769 -0.239587 0
M  V30 7362 H 696.744 -2.04273 -0.0963195 0
M  V30 7363 H 694.899 -3.0767 -2.35409 0
M  V30 7364 H 695.313 -5.06175 -1.37431 0
M  V30 7365 H 696.787 -4.61692 -3.02563 0
M  V30 7366 H 697.264 -2.93765 -3.26495 0
M  V30 7367 H 697.87 -3.82938 -1.85036 0
M  V30 7368 N 696.185 0.383891 -1.52853 0
M  V30 7369 C 697.433 1.12619 -1.67814 0
M  V30 7370 C 697.754 1.90354 -0.423141 0
M  V30 7371 O 697.024 1.87649 0.562554 0
M  V30 7372 H 695.604 0.418738 -0.618601 0
M  V30 7373 H 698.266 0.43495 -1.89985 0
M  V30 7374 H 697.362 1.82624 -2.5309 0
M  V30 7375 N 697.663 1.43903 0.642637 0
M  V30 7376 C 698.912 1.45362 1.39831 0
M  V30 7377 C 699.225 0.0856289 1.95412 0
M  V30 7378 O 700.431 -0.0222856 2.71491 0
M  V30 7379 C 698.887 2.55857 2.53111 0
M  V30 7380 C 698.495 3.98811 2.04092 0
M  V30 7381 C 700.239 2.66524 3.30402 0
M  V30 7382 C 698.146 5.00751 3.14647 0
M  V30 7383 H 697.076 0.540777 0.52543 0
M  V30 7384 H 699.727 1.69929 0.692559 0
M  V30 7385 H 698.109 2.2451 3.26207 0
M  V30 7386 H 699.283 4.3967 1.37938 0
M  V30 7387 H 697.598 3.92284 1.39651 0
M  V30 7388 H 700.195 3.39858 4.12796 0
M  V30 7389 H 700.538 1.71949 3.79129 0
M  V30 7390 H 701.071 2.97224 2.64392 0
M  V30 7391 H 697.81 5.96914 2.70876 0
M  V30 7392 H 697.33 4.64495 3.79479 0
M  V30 7393 H 699.009 5.23933 3.79609 0
M  V30 7394 N 699.141 -0.881989 1.30609 0
M  V30 7395 C 700.388 -1.63405 1.19604 0
M  V30 7396 C 700.716 -1.92905 -0.248574 0
M  V30 7397 O 699.971 -1.55062 -1.19391 0
M  V30 7398 C 700.27 -2.97999 1.97311 0
M  V30 7399 C 699.936 -2.88039 3.46907 0
M  V30 7400 C 698.598 -2.85029 3.877 0
M  V30 7401 C 700.95 -2.75948 4.42156 0
M  V30 7402 C 698.278 -2.67772 5.2203 0
M  V30 7403 C 700.63 -2.60228 5.76597 0
M  V30 7404 C 699.294 -2.55595 6.16626 0
M  V30 7405 H 698.564 -0.597941 0.437662 0
M  V30 7406 H 701.211 -1.02524 1.61744 0
M  V30 7407 H 699.516 -3.62847 1.47815 0
M  V30 7408 H 701.213 -3.55156 1.86186 0
M  V30 7409 H 697.803 -2.91192 3.14492 0
M  V30 7410 H 701.987 -2.77337 4.1158 0
M  V30 7411 H 697.243 -2.62601 5.52133 0
M  V30 7412 H 701.417 -2.49847 6.50038 0
M  V30 7413 H 699.044 -2.41981 7.20659 0
M  V30 7414 N 700.619 -1.13374 -1.09472 0
M  V30 7415 C 701.849 -0.917019 -1.85133 0
M  V30 7416 C 702.257 0.537568 -1.81402 0
M  V30 7417 O 701.6 1.38385 -1.20811 0
M  V30 7418 C 701.662 -1.32646 -3.34134 0
M  V30 7419 C 701.326 -2.79437 -3.61613 0
M  V30 7420 C 702.323 -3.77596 -3.57375 0
M  V30 7421 C 700.008 -3.16586 -3.89973 0
M  V30 7422 C 702.002 -5.10916 -3.81108 0
M  V30 7423 C 699.689 -4.50085 -4.13361 0
M  V30 7424 C 700.687 -5.47059 -4.0892 0
M  V30 7425 O 700.375 -6.78149 -4.31705 0
M  V30 7426 H 700.107 -0.326997 -0.591649 0
M  V30 7427 H 702.661 -1.51002 -1.39239 0
M  V30 7428 H 700.891 -0.676719 -3.80733 0
M  V30 7429 H 702.58 -1.08229 -3.91205 0
M  V30 7430 H 703.346 -3.50242 -3.35493 0
M  V30 7431 H 699.225 -2.41707 -3.92554 0
M  V30 7432 H 702.769 -5.86597 -3.77558 0
M  V30 7433 H 698.666 -4.77163 -4.34724 0
M  V30 7434 H 699.434 -6.84244 -4.49168 0
M  V30 7435 N 702.098 1.27442 -0.927168 0
M  V30 7436 C 703.344 1.95025 -0.577651 0
M  V30 7437 C 703.699 1.71534 0.871421 0
M  V30 7438 O 702.992 1.03354 1.61333 0
M  V30 7439 C 703.186 3.47413 -0.838994 0
M  V30 7440 C 703.015 3.85721 -2.31192 0
M  V30 7441 C 701.785 4.09199 -2.96452 0
M  V30 7442 C 703.983 3.95352 -3.28939 0
M  V30 7443 N 701.965 4.34283 -4.33903 0
M  V30 7444 C 703.336 4.24805 -4.51598 0
M  V30 7445 C 705.391 3.77926 -3.24155 0
M  V30 7446 C 704.094 4.38645 -5.70073 0
M  V30 7447 C 706.12 3.9299 -4.41942 0
M  V30 7448 C 705.482 4.22829 -5.63379 0
M  V30 7449 H 701.581 0.736983 -0.261495 0
M  V30 7450 H 704.165 1.53816 -1.19368 0
M  V30 7451 H 702.336 3.87581 -0.252129 0
M  V30 7452 H 704.068 4.02166 -0.452158 0
M  V30 7453 H 700.823 4.04013 -2.47125 0
M  V30 7454 H 701.247 4.50883 -5.05008 0
M  V30 7455 H 705.889 3.53897 -2.31337 0
M  V30 7456 H 703.607 4.615 -6.63358 0
M  V30 7457 H 707.193 3.80926 -4.39757 0
M  V30 7458 H 706.073 4.34234 -6.53001 0
M  V30 7459 N 703.576 0.692616 1.41565 0
M  V30 7460 C 704.825 0.219452 2.00503 0
M  V30 7461 C 705.138 -1.18683 1.55479 0
M  V30 7462 O 706.344 -1.75731 2.06956 0
M  V30 7463 C 704.8 0.341451 3.58277 0
M  V30 7464 C 704.408 1.75291 4.12283 0
M  V30 7465 C 706.152 -0.0720899 4.24439 0
M  V30 7466 C 704.059 1.82673 5.62481 0
M  V30 7467 H 702.989 0.0782874 0.749925 0
M  V30 7468 H 705.64 0.860386 1.62079 0
M  V30 7469 H 704.022 -0.367683 3.94289 0
M  V30 7470 H 705.196 2.49057 3.87695 0
M  V30 7471 H 703.511 2.11587 3.58636 0
M  V30 7472 H 706.108 -0.0373385 5.34687 0
M  V30 7473 H 706.451 -1.11034 4.0122 0
M  V30 7474 H 706.984 0.586663 3.9345 0
M  V30 7475 H 703.723 2.84539 5.90523 0
M  V30 7476 H 703.243 1.13288 5.89004 0
M  V30 7477 H 704.922 1.58827 6.27203 0
M  V30 7478 N 705.054 -1.51416 0.437162 0
M  V30 7479 C 705.984 -2.30631 -0.364922 0
M  V30 7480 C 706.965 -1.36037 -1.02118 0
M  V30 7481 O 708.15 -1.64956 -1.02485 0
M  V30 7482 C 705.28 -3.1482 -1.46648 0
M  V30 7483 C 704.234 -4.17691 -0.933717 0
M  V30 7484 C 703.56 -4.904 -2.13101 0
M  V30 7485 C 704.86 -5.2229 0.0317201 0
M  V30 7486 H 706.554 -2.97932 0.29614 0
M  V30 7487 H 704.1 -1.4328 0.143865 0
M  V30 7488 H 706.053 -3.69017 -2.03481 0
M  V30 7489 H 704.777 -2.4534 -2.15583 0
M  V30 7490 H 703.436 -3.64545 -0.387602 0
M  V30 7491 H 703.084 -4.17423 -2.80654 0
M  V30 7492 H 702.784 -5.59962 -1.78092 0
M  V30 7493 H 704.308 -5.4742 -2.70487 0
M  V30 7494 H 705.722 -5.7156 -0.446302 0
M  V30 7495 H 704.119 -5.99378 0.29437 0
M  V30 7496 H 705.189 -4.75131 0.968447 0
M  V30 7497 N 706.532 -0.168513 -1.56696 0
M  V30 7498 C 707.948 0.187686 -1.58493 0
M  V30 7499 C 708.148 1.63063 -1.18375 0
M  V30 7500 O 707.204 2.36142 -0.894042 0
M  V30 7501 C 708.517 -0.0905858 -3.00564 0
M  V30 7502 C 710.065 -0.028575 -3.12987 0
M  V30 7503 C 710.54 -0.279799 -4.57145 0
M  V30 7504 N 712.031 -0.227476 -4.62641 0
M  V30 7505 C 712.766 -0.396073 -5.7203 0
M  V30 7506 N 712.262 -0.623572 -6.89988 0
M  V30 7507 N 714.055 -0.332173 -5.61118 0
M  V30 7508 H 706.206 -1.11042 -1.81062 0
M  V30 7509 H 708.469 -0.441235 -0.839056 0
M  V30 7510 H 708.175 -1.09006 -3.34381 0
M  V30 7511 H 708.049 0.619078 -3.72085 0
M  V30 7512 H 710.436 0.961471 -2.78998 0
M  V30 7513 H 710.517 -0.770905 -2.43907 0
M  V30 7514 H 710.161 -1.26704 -4.91842 0
M  V30 7515 H 710.091 0.48311 -5.24379 0
M  V30 7516 H 712.582 -0.0571723 -3.77857 0
M  V30 7517 H 712.895 -0.741745 -7.69232 0
M  V30 7518 H 711.24 -0.660153 -6.91858 0
M  V30 7519 H 714.431 -0.155051 -4.67843 0
M  V30 7520 H 714.604 -0.466994 -6.46315 0
M  V30 7521 N 708.01 1.57248 0.105221 0
M  V30 7522 C 709.258 1.85204 0.808951 0
M  V30 7523 C 709.579 0.75574 1.7976 0
M  V30 7524 O 708.849 -0.218984 1.94672 0
M  V30 7525 H 707.429 0.683346 0.301739 0
M  V30 7526 H 710.091 1.94695 0.0892605 0
M  V30 7527 H 709.187 2.81595 1.34575 0
M  V30 7528 N 709.488 -0.375779 1.53054 0
M  V30 7529 C 710.421 -1.48187 1.7354 0
M  V30 7530 C 711.399 -1.5177 0.583495 0
M  V30 7531 O 712.583 -1.69976 0.81488 0
M  V30 7532 C 709.71 -2.86598 1.80497 0
M  V30 7533 C 708.756 -3.00784 3.02376 0
M  V30 7534 S 709.589 -2.70601 4.62099 0
M  V30 7535 C 710.745 -4.11181 4.71891 0
M  V30 7536 H 710.978 -1.30587 2.67085 0
M  V30 7537 H 708.511 -0.569485 1.43514 0
M  V30 7538 H 710.469 -3.66353 1.85192 0
M  V30 7539 H 709.13 -3.01514 0.880217 0
M  V30 7540 H 708.323 -4.02128 3.03824 0
M  V30 7541 H 707.925 -2.28939 2.95742 0
M  V30 7542 H 710.217 -5.0529 4.51319 0
M  V30 7543 H 711.16 -4.14742 5.73929 0
M  V30 7544 H 711.568 -3.97706 4.00612 0
M  V30 7545 N 710.966 -1.44241 -0.634997 0
M  V30 7546 C 711.876 -1.53293 -1.77591 0
M  V30 7547 C 712.892 -0.418831 -1.68884 0
M  V30 7548 O 714.068 -0.675619 -1.8973 0
M  V30 7549 C 711.133 -1.47075 -3.13958 0
M  V30 7550 C 710.194 -2.69304 -3.34326 0
M  V30 7551 C 709.427 -2.63374 -4.64187 0
M  V30 7552 O 709.65 -1.69161 -5.44739 0
M  V30 7553 O 708.584 -3.54166 -4.86673 0
M  V30 7554 H 712.41 -2.49673 -1.72908 0
M  V30 7555 H 709.995 -1.26445 -0.795745 0
M  V30 7556 H 711.877 -1.46117 -3.95257 0
M  V30 7557 H 710.552 -0.538373 -3.19192 0
M  V30 7558 H 709.459 -2.75831 -2.52721 0
M  V30 7559 H 710.792 -3.61576 -3.33951 0
M  V30 7560 N 712.444 0.87505 -1.31075 0
M  V30 7561 C 713.855 1.4433 -1.18431 0
M  V30 7562 C 714.206 1.9506 0.211189 0
M  V30 7563 O 713.331 1.85847 1.10859 0
M  V30 7564 C 713.926 2.62341 -2.14389 0
M  V30 7565 C 712.485 3.15225 -2.05694 0
M  V30 7566 C 711.632 1.87929 -2.03907 0
M  V30 7567 H 714.583 0.684061 -1.432 0
M  V30 7568 H 714.604 3.3887 -1.73053 0
M  V30 7569 H 714.116 2.25388 -3.15946 0
M  V30 7570 H 712.217 3.56812 -1.07314 0
M  V30 7571 H 712.33 3.77853 -2.94558 0
M  V30 7572 H 710.694 2.06679 -1.48849 0
M  V30 7573 H 711.477 1.53221 -3.07211 0
M  V30 7574 N 713.922 1.13953 1.08869 0
M  V30 7575 C 715.168 0.916103 1.81602 0
M  V30 7576 C 715.523 -0.551633 1.84322 0
M  V30 7577 O 714.816 -1.40322 1.30462 0
M  V30 7578 C 715.01 1.44495 3.26888 0
M  V30 7579 C 714.839 2.96257 3.38322 0
M  V30 7580 C 713.609 3.64658 3.49789 0
M  V30 7581 C 715.807 3.94156 3.30372 0
M  V30 7582 N 713.789 5.04379 3.49965 0
M  V30 7583 C 715.16 5.20101 3.37484 0
M  V30 7584 C 717.215 3.86342 3.14077 0
M  V30 7585 C 715.918 6.39145 3.29979 0
M  V30 7586 C 717.944 5.04927 3.07901 0
M  V30 7587 C 717.306 6.29738 3.1561 0
M  V30 7588 H 713.405 0.388701 0.678554 0
M  V30 7589 H 715.989 1.44879 1.3007 0
M  V30 7590 H 714.16 0.939102 3.76876 0
M  V30 7591 H 715.892 1.16193 3.87661 0
M  V30 7592 H 712.647 3.15196 3.5348 0
M  V30 7593 H 713.071 5.77305 3.53622 0
M  V30 7594 H 717.713 2.90726 3.06982 0
M  V30 7595 H 715.431 7.3501 3.35836 0
M  V30 7596 H 719.017 5.00626 2.9642 0
M  V30 7597 H 717.897 7.19958 3.10854 0
M  V30 7598 N 715.4 -1.26948 0.933913 0
M  V30 7599 C 716.628 -1.98186 0.59414 0
M  V30 7600 C 717.043 -1.69614 -0.829257 0
M  V30 7601 O 716.4 -0.960213 -1.55197 0
M  V30 7602 C 716.451 -3.52123 0.818026 0
M  V30 7603 O 716.172 -3.79698 2.18543 0
M  V30 7604 C 717.673 -4.40608 0.48781 0
M  V30 7605 H 714.893 -0.632305 0.224569 0
M  V30 7606 H 717.437 -1.61646 1.25263 0
M  V30 7607 H 715.592 -3.86851 0.206246 0
M  V30 7608 H 716.006 -4.7426 2.24005 0
M  V30 7609 H 717.48 -5.47606 0.695126 0
M  V30 7610 H 717.957 -4.35394 -0.576913 0
M  V30 7611 H 718.563 -4.11411 1.078 0
M  V30 7612 N 716.879 -0.700114 -1.41195 0
M  V30 7613 C 717.809 -0.0521132 -2.33442 0
M  V30 7614 C 718.79 0.76228 -1.52063 0
M  V30 7615 O 719.975 0.714336 -1.80585 0
M  V30 7616 C 717.105 0.881693 -3.35922 0
M  V30 7617 C 716.059 0.174062 -4.27646 0
M  V30 7618 C 715.385 1.22254 -5.20536 0
M  V30 7619 C 716.685 -0.962396 -5.13357 0
M  V30 7620 H 718.379 -0.822574 -2.87879 0
M  V30 7621 H 715.925 -0.397011 -1.38419 0
M  V30 7622 H 717.878 1.34429 -3.99383 0
M  V30 7623 H 716.602 1.68387 -2.79845 0
M  V30 7624 H 715.261 -0.268551 -3.65615 0
M  V30 7625 H 714.909 2.01736 -4.60773 0
M  V30 7626 H 714.609 0.754038 -5.82742 0
M  V30 7627 H 716.133 1.68555 -5.86874 0
M  V30 7628 H 717.547 -0.579875 -5.7036 0
M  V30 7629 H 715.944 -1.35828 -5.84526 0
M  V30 7630 H 717.014 -1.80003 -4.50252 0
M  V30 7631 N 718.357 1.51182 -0.445186 0
M  V30 7632 C 719.304 2.27939 0.362291 0
M  V30 7633 C 720.274 1.31864 1.01 0
M  V30 7634 O 721.459 1.60776 1.02741 0
M  V30 7635 C 718.599 3.13016 1.45311 0
M  V30 7636 C 717.712 4.24093 0.822757 0
M  V30 7637 C 716.847 4.96467 1.88928 0
M  V30 7638 C 715.886 5.99454 1.23778 0
M  V30 7639 N 715.023 6.65206 2.24602 0
M  V30 7640 H 719.863 2.965 -0.29862 0
M  V30 7641 H 717.4 1.46237 -0.15911 0
M  V30 7642 H 719.358 3.60673 2.09692 0
M  V30 7643 H 717.988 2.46553 2.08354 0
M  V30 7644 H 717.04 3.80341 0.0670364 0
M  V30 7645 H 718.352 4.97853 0.307184 0
M  V30 7646 H 717.506 5.47712 2.60953 0
M  V30 7647 H 716.245 4.22355 2.4386 0
M  V30 7648 H 715.25 5.47494 0.503042 0
M  V30 7649 H 716.475 6.75527 0.695694 0
M  V30 7650 H 714.421 5.93901 2.78599 0
M  V30 7651 H 714.338 7.34756 1.77958 0
M  V30 7652 H 715.606 7.21078 2.96085 0
M  V30 7653 N 719.835 0.176821 1.56605 0
M  V30 7654 C 720.785 -0.763718 2.14829 0
M  V30 7655 C 721.769 -1.18903 1.08401 0
M  V30 7656 O 722.961 -1.15048 1.3451 0
M  V30 7657 C 720.09 -1.99069 2.7969 0
M  V30 7658 C 719.176 -1.58711 3.93283 0
M  V30 7659 N 719.567 -0.893423 4.97847 0
M  V30 7660 C 717.865 -1.87774 4.04545 0
M  V30 7661 C 718.566 -0.693866 5.77547 0
M  V30 7662 N 717.542 -1.23699 5.29339 0
M  V30 7663 H 721.344 -0.224811 2.93039 0
M  V30 7664 H 718.858 -0.0236563 1.62383 0
M  V30 7665 H 720.855 -2.67478 3.19783 0
M  V30 7666 H 719.515 -2.53449 2.02962 0
M  V30 7667 H 720.526 -0.550868 5.14962 0
M  V30 7668 H 717.203 -2.43793 3.38927 0
M  V30 7669 H 718.593 -0.144899 6.71744 0
M  V30 7670 N 721.313 -1.57302 -0.09688 0
M  V30 7671 C 722.26 -2.01933 -1.11766 0
M  V30 7672 C 723.23 -0.895329 -1.39904 0
M  V30 7673 O 724.415 -1.16119 -1.51397 0
M  V30 7674 C 721.555 -2.44726 -2.43317 0
M  V30 7675 C 720.668 -3.70639 -2.21925 0
M  V30 7676 C 719.803 -4.02318 -3.46862 0
M  V30 7677 C 718.842 -5.21346 -3.20725 0
M  V30 7678 N 717.979 -5.48787 -4.37924 0
M  V30 7679 H 722.819 -2.88919 -0.730075 0
M  V30 7680 H 720.356 -1.42901 -0.348962 0
M  V30 7681 H 722.314 -2.6758 -3.20088 0
M  V30 7682 H 720.944 -1.60753 -2.79926 0
M  V30 7683 H 719.996 -3.55271 -1.35965 0
M  V30 7684 H 721.308 -4.57557 -1.98603 0
M  V30 7685 H 720.462 -4.25939 -4.32042 0
M  V30 7686 H 719.201 -3.13918 -3.73238 0
M  V30 7687 H 718.206 -4.97547 -2.33938 0
M  V30 7688 H 719.431 -6.11343 -2.95697 0
M  V30 7689 H 717.377 -4.63346 -4.64378 0
M  V30 7690 H 717.294 -6.30073 -4.17785 0
M  V30 7691 H 718.562 -5.76943 -5.24173 0
M  V30 7692 N 722.791 0.367657 -1.53252 0
M  V30 7693 C 724.039 1.10832 -1.68999 0
M  V30 7694 C 724.36 1.89894 -0.443306 0
M  V30 7695 O 723.63 1.88235 0.54262 0
M  V30 7696 H 722.21 0.412153 -0.623008 0
M  V30 7697 H 724.872 0.414775 -1.90435 0
M  V30 7698 H 723.968 1.7993 -2.55013 0
M  V30 7699 N 724.269 1.44576 0.627338 0
M  V30 7700 C 725.494 1.51271 1.41887 0
M  V30 7701 C 725.919 0.139814 1.8758 0
M  V30 7702 O 725.277 -0.871746 1.58966 0
M  V30 7703 C 725.325 2.48529 2.61277 0
M  V30 7704 O 724.429 1.98944 3.61241 0
M  V30 7705 H 723.77 0.510668 0.424399 0
M  V30 7706 H 726.3 1.89746 0.765356 0
M  V30 7707 H 726.31 2.66689 3.08773 0
M  V30 7708 H 724.985 3.48249 2.27366 0
M  V30 7709 H 723.562 1.90568 3.20528 0
M  V30 7710 N 725.747 -0.868086 1.31537 0
M  V30 7711 C 727.024 -1.60384 1.11965 0
M  V30 7712 C 727.404 -2.08584 -0.324949 0
M  V30 7713 O 726.752 -1.86561 -1.31937 0
M  V30 7714 C 726.962 -2.76038 2.13551 0
M  V30 7715 C 728.31 -3.45954 2.46173 0
M  V30 7716 O 729.334 -2.86247 2.11993 0
M  V30 7717 O 728.193 -4.53666 3.04711 0
M  V30 7718 H 725.287 -0.705705 0.431172 0
M  V30 7719 H 727.833 -0.913385 1.43022 0
M  V30 7720 H 726.605 -2.37849 3.10714 0
M  V30 7721 H 726.228 -3.52769 1.83411 0
M  V30 7722 N 727.225 -1.14528 -1.08264 0
M  V30 7723 C 728.472 -0.914405 -1.80679 0
M  V30 7724 C 728.8 0.558952 -1.86295 0
M  V30 7725 O 728.055 1.43017 -1.33584 0
M  V30 7726 C 728.354 -1.46226 -3.26117 0
M  V30 7727 C 728.02 -2.95451 -3.40616 0
M  V30 7728 C 726.682 -3.36191 -3.4428 0
M  V30 7729 C 729.034 -3.91399 -3.44175 0
M  V30 7730 C 726.362 -4.71539 -3.49096 0
M  V30 7731 C 728.714 -5.26606 -3.50526 0
M  V30 7732 C 727.378 -5.66856 -3.52464 0
M  V30 7733 H 726.648 -0.334604 -0.661151 0
M  V30 7734 H 729.295 -1.4292 -1.27461 0
M  V30 7735 H 727.6 -0.868442 -3.82054 0
M  V30 7736 H 729.297 -1.25955 -3.80705 0
M  V30 7737 H 725.887 -2.62955 -3.38456 0
M  V30 7738 H 730.071 -3.61004 -3.40573 0
M  V30 7739 H 725.327 -5.02082 -3.4889 0
M  V30 7740 H 729.501 -6.00758 -3.52225 0
M  V30 7741 H 727.128 -6.71718 -3.55948 0
M  V30 7742 N 728.703 1.26451 -0.940633 0
M  V30 7743 C 729.613 2.30128 -0.455881 0
M  V30 7744 C 730.629 1.67536 0.469867 0
M  V30 7745 O 731.805 1.98344 0.349529 0
M  V30 7746 C 728.87 3.45634 0.271648 0
M  V30 7747 C 727.931 4.23709 -0.690594 0
M  V30 7748 C 727.164 5.337 0.00231047 0
M  V30 7749 O 727.387 5.57215 1.21935 0
M  V30 7750 O 726.321 5.98091 -0.676111 0
M  V30 7751 H 730.147 2.73655 -1.31707 0
M  V30 7752 H 727.732 1.3164 -0.706497 0
M  V30 7753 H 729.614 4.15853 0.681486 0
M  V30 7754 H 728.289 3.04138 1.10824 0
M  V30 7755 H 727.196 3.55974 -1.15037 0
M  V30 7756 H 728.529 4.68953 -1.49478 0
M  V30 7757 N 730.181 0.707592 1.40822 0
M  V30 7758 C 731.597 0.38034 1.55002 0
M  V30 7759 C 731.797 -1.11163 1.68062 0
M  V30 7760 O 730.853 -1.89761 1.66574 0
M  V30 7761 C 732.166 1.1394 2.78277 0
M  V30 7762 C 733.714 1.12492 2.92087 0
M  V30 7763 C 734.189 1.86597 4.18265 0
M  V30 7764 N 735.68 1.83626 4.25248 0
M  V30 7765 C 736.415 2.37794 5.21768 0
M  V30 7766 N 735.911 3.00485 6.24244 0
M  V30 7767 N 737.704 2.27982 5.13791 0
M  V30 7768 H 729.855 1.67511 1.3059 0
M  V30 7769 H 732.118 0.707579 0.630901 0
M  V30 7770 H 731.824 2.19398 2.74877 0
M  V30 7771 H 731.698 0.725793 3.70151 0
M  V30 7772 H 734.085 0.0785564 2.94995 0
M  V30 7773 H 734.166 1.57768 2.01353 0
M  V30 7774 H 733.81 2.91219 4.16118 0
M  V30 7775 H 733.74 1.38746 5.07993 0
M  V30 7776 H 736.231 1.3793 3.51829 0
M  V30 7777 H 736.544 3.39355 6.94304 0
M  V30 7778 H 734.889 3.04567 6.24711 0
M  V30 7779 H 738.08 1.78669 4.3266 0
M  V30 7780 H 738.253 2.70499 5.88841 0
M  V30 7781 N 731.66 -1.50943 0.453197 0
M  V30 7782 C 732.59 -2.31005 -0.34044 0
M  V30 7783 C 733.571 -1.37112 -1.00669 0
M  V30 7784 O 734.756 -1.66033 -1.0073 0
M  V30 7785 C 731.886 -3.16358 -1.433 0
M  V30 7786 C 730.84 -4.18658 -0.889363 0
M  V30 7787 C 730.166 -4.92633 -2.07887 0
M  V30 7788 C 731.466 -5.22227 0.0871142 0
M  V30 7789 H 733.16 -2.97601 0.327723 0
M  V30 7790 H 730.706 -1.43119 0.159054 0
M  V30 7791 H 732.659 -3.71155 -1.99555 0
M  V30 7792 H 731.383 -2.47613 -2.12968 0
M  V30 7793 H 730.042 -3.64936 -0.348915 0
M  V30 7794 H 729.69 -4.20376 -2.76211 0
M  V30 7795 H 729.39 -5.61819 -1.72143 0
M  V30 7796 H 730.914 -5.50258 -2.64666 0
M  V30 7797 H 732.328 -5.72001 -0.385656 0
M  V30 7798 H 730.725 -5.99032 0.357926 0
M  V30 7799 H 731.795 -4.74077 1.01879 0
M  V30 7800 N 733.138 -0.185124 -1.56509 0
M  V30 7801 C 734.085 0.739729 -2.18624 0
M  V30 7802 C 735.055 1.217 -1.13042 0
M  V30 7803 O 736.24 1.28268 -1.41251 0
M  V30 7804 C 733.38 1.95787 -2.84186 0
M  V30 7805 C 732.493 1.52289 -4.04267 0
M  V30 7806 C 731.628 2.69576 -4.57714 0
M  V30 7807 C 730.667 2.22636 -5.70175 0
M  V30 7808 N 729.804 3.33065 -6.18071 0
M  V30 7809 H 734.644 0.203269 -2.97306 0
M  V30 7810 H 732.181 0.0885946 -1.46833 0
M  V30 7811 H 734.139 2.67253 -3.20361 0
M  V30 7812 H 732.769 2.4678 -2.08085 0
M  V30 7813 H 731.821 0.704458 -3.7382 0
M  V30 7814 H 733.133 1.13843 -4.85635 0
M  V30 7815 H 732.287 3.4918 -4.96143 0
M  V30 7816 H 731.026 3.1129 -3.75433 0
M  V30 7817 H 730.031 1.41483 -5.31284 0
M  V30 7818 H 731.256 1.81964 -6.54267 0
M  V30 7819 H 729.202 3.74328 -5.38715 0
M  V30 7820 H 729.119 2.98756 -6.94464 0
M  V30 7821 H 730.387 4.12912 -6.61153 0
M  V30 7822 N 734.616 1.57351 0.0885366 0
M  V30 7823 C 736.027 1.75303 0.642308 0
M  V30 7824 C 736.378 0.808238 1.78779 0
M  V30 7825 O 735.503 -0.01171 2.16397 0
M  V30 7826 C 736.098 3.17885 1.17194 0
M  V30 7827 C 734.657 3.37239 1.67172 0
M  V30 7828 C 733.804 2.7108 0.584045 0
M  V30 7829 H 736.755 1.58103 -0.137567 0
M  V30 7830 H 736.776 3.2112 2.04114 0
M  V30 7831 H 736.288 3.86625 0.338024 0
M  V30 7832 H 734.389 2.73588 2.52943 0
M  V30 7833 H 734.502 4.45594 1.76019 0
M  V30 7834 H 732.866 2.33161 1.02508 0
M  V30 7835 H 733.649 3.42464 -0.239403 0
M  V30 7836 N 736.094 -0.359525 1.53444 0
M  V30 7837 C 737.057 -1.42357 1.7963 0
M  V30 7838 C 738.057 -1.46319 0.666884 0
M  V30 7839 O 739.247 -1.46974 0.935113 0
M  V30 7840 C 736.379 -2.81425 1.92387 0
M  V30 7841 H 737.572 -1.20409 2.74666 0
M  V30 7842 H 735.125 -0.593007 1.44614 0
M  V30 7843 H 735.86 -3.08679 0.994384 0
M  V30 7844 H 735.645 -2.79947 2.74539 0
M  V30 7845 H 737.135 -3.5847 2.14218 0
M  V30 7846 N 737.572 -1.44907 -0.619662 0
M  V30 7847 C 738.519 -1.52654 -1.73105 0
M  V30 7848 C 739.489 -0.373334 -1.6185 0
M  V30 7849 O 740.674 -0.585143 -1.81606 0
M  V30 7850 C 737.814 -1.48769 -3.11387 0
M  V30 7851 C 736.927 -2.74551 -3.33535 0
M  V30 7852 C 736.062 -2.62421 -4.61854 0
M  V30 7853 C 735.101 -3.83312 -4.77219 0
M  V30 7854 N 734.238 -3.69789 -5.96826 0
M  V30 7855 H 739.078 -2.47605 -1.65819 0
M  V30 7856 H 736.615 -1.22875 -0.808719 0
M  V30 7857 H 738.573 -1.44507 -3.91374 0
M  V30 7858 H 737.203 -0.573783 -3.1766 0
M  V30 7859 H 736.255 -2.88953 -2.47408 0
M  V30 7860 H 737.567 -3.64253 -3.40765 0
M  V30 7861 H 736.721 -2.56056 -5.50019 0
M  V30 7862 H 735.46 -1.70298 -4.57001 0
M  V30 7863 H 734.465 -3.90049 -3.87481 0
M  V30 7864 H 735.69 -4.76486 -4.83878 0
M  V30 7865 H 733.636 -2.80426 -5.93041 0
M  V30 7866 H 733.553 -4.53116 -6.05163 0
M  V30 7867 H 734.821 -3.67335 -6.87521 0
M  V30 7868 N 739.05 0.861098 -1.31996 0
M  V30 7869 C 740.327 1.59788 -1.12814 0
M  V30 7870 C 740.707 2.08753 0.313882 0
M  V30 7871 O 740.055 1.87258 1.30946 0
M  V30 7872 C 740.265 2.74901 -2.15012 0
M  V30 7873 C 741.613 3.44643 -2.48004 0
M  V30 7874 O 742.637 2.85119 -2.13508 0
M  V30 7875 O 741.496 4.52044 -3.07113 0
M  V30 7876 H 738.59 0.703408 -0.434909 0
M  V30 7877 H 741.136 0.905788 -1.43505 0
M  V30 7878 H 739.908 2.36198 -3.11971 0
M  V30 7879 H 739.531 3.51792 -1.85279 0
M  V30 7880 N 740.528 1.15101 1.07655 0
M  V30 7881 C 741.768 0.934462 1.81789 0
M  V30 7882 C 742.132 -0.529101 1.84566 0
M  V30 7883 O 743.333 -0.863868 2.5454 0
M  V30 7884 C 741.604 1.52817 3.23082 0
M  V30 7885 S 743.163 1.45429 4.14 0
M  V30 7886 H 739.981 0.336379 0.626395 0
M  V30 7887 H 742.583 1.46593 1.29347 0
M  V30 7888 H 741.287 2.58635 3.18647 0
M  V30 7889 H 740.818 0.995432 3.80598 0
M  V30 7890 H 742.833 0.445058 4.942 0
M  V30 7891 N 742.006 -1.2595 0.947325 0
M  V30 7892 C 743.234 -1.97544 0.615127 0
M  V30 7893 C 743.649 -1.70484 -0.811221 0
M  V30 7894 O 743.006 -0.97662 -1.5417 0
M  V30 7895 C 743.057 -3.51236 0.855328 0
M  V30 7896 O 742.778 -3.77359 2.22558 0
M  V30 7897 C 744.279 -4.40066 0.534515 0
M  V30 7898 H 741.499 -0.629888 0.231263 0
M  V30 7899 H 744.043 -1.60308 1.26971 0
M  V30 7900 H 742.198 -3.8661 0.247266 0
M  V30 7901 H 742.612 -4.71857 2.29022 0
M  V30 7902 H 744.086 -5.46838 0.753168 0
M  V30 7903 H 744.563 -4.35982 -0.530701 0
M  V30 7904 H 745.169 -4.10245 1.12158 0
M  V30 7905 N 743.484 -0.715051 -1.40445 0
M  V30 7906 C 744.895 -0.326763 -1.83818 0
M  V30 7907 C 745.246 1.13851 -1.59789 0
M  V30 7908 O 744.371 1.87611 -1.07848 0
M  V30 7909 C 744.966 -0.586297 -3.33688 0
M  V30 7910 C 743.525 -0.251724 -3.75557 0
M  V30 7911 C 742.672 -0.858928 -2.63662 0
M  V30 7912 H 745.623 -0.914241 -1.2972 0
M  V30 7913 H 745.644 0.148636 -3.8021 0
M  V30 7914 H 745.156 -1.65281 -3.51146 0
M  V30 7915 H 743.257 0.809754 -3.63695 0
M  V30 7916 H 743.37 -0.720348 -4.73654 0
M  V30 7917 H 741.734 -0.287013 -2.53078 0
M  V30 7918 H 742.517 -1.9297 -2.83932 0
M  V30 7919 N 744.962 1.50701 -0.461195 0
M  V30 7920 C 746.211 2.01458 0.0988277 0
M  V30 7921 C 746.524 1.34863 1.41673 0
M  V30 7922 O 747.73 1.76721 2.06111 0
M  V30 7923 C 746.186 3.59186 0.226648 0
M  V30 7924 C 745.794 4.34732 -1.08223 0
M  V30 7925 C 747.538 4.18015 0.73916 0
M  V30 7926 C 745.445 5.8422 -0.918747 0
M  V30 7927 H 744.375 0.7529 0.040709 0
M  V30 7928 H 747.026 1.736 -0.594589 0
M  V30 7929 H 745.408 3.83589 0.983621 0
M  V30 7930 H 746.582 4.22059 -1.84939 0
M  V30 7931 H 744.897 3.87466 -1.52509 0
M  V30 7932 H 747.494 5.27436 0.878347 0
M  V30 7933 H 747.837 3.78746 1.72793 0
M  V30 7934 H 748.37 3.9778 0.0398469 0
M  V30 7935 H 745.109 6.27944 -1.88059 0
M  V30 7936 H 744.629 5.99493 -0.191801 0
M  V30 7937 H 746.308 6.44382 -0.581405 0
M  V30 7938 N 746.441 0.193421 1.56409 0
M  V30 7939 C 747.351 -0.740112 2.2262 0
M  V30 7940 C 748.367 -1.23597 1.22474 0
M  V30 7941 O 749.543 -1.28348 1.55206 0
M  V30 7942 C 746.608 -1.94317 2.87127 0
M  V30 7943 C 745.669 -1.49205 4.02538 0
M  V30 7944 C 744.902 -2.63776 4.63959 0
M  V30 7945 O 745.125 -3.81215 4.24301 0
M  V30 7946 O 744.059 -2.36585 5.53454 0
M  V30 7947 H 747.885 -0.206238 3.02999 0
M  V30 7948 H 745.47 -0.0357938 1.49357 0
M  V30 7949 H 747.352 -2.64633 3.27944 0
M  V30 7950 H 746.027 -2.46568 2.09728 0
M  V30 7951 H 744.934 -0.757738 3.66346 0
M  V30 7952 H 746.267 -1.01622 4.81595 0
M  V30 7953 N 747.919 -1.57396 -0.0801906 0
M  V30 7954 C 749.149 -1.90778 -0.792924 0
M  V30 7955 C 749.557 -0.786814 -1.72064 0
M  V30 7956 O 748.9 0.249259 -1.82001 0
M  V30 7957 C 748.962 -3.19552 -1.64702 0
M  V30 7958 C 748.626 -4.48259 -0.889567 0
M  V30 7959 C 749.623 -5.19465 -0.212602 0
M  V30 7960 C 747.308 -4.94896 -0.859229 0
M  V30 7961 C 749.302 -6.35555 0.484566 0
M  V30 7962 C 746.989 -6.10895 -0.158284 0
M  V30 7963 C 747.987 -6.81075 0.512421 0
M  V30 7964 O 747.675 -7.94862 1.20209 0
M  V30 7965 H 747.407 -0.63527 -0.231103 0
M  V30 7966 H 749.961 -2.0532 -0.0573081 0
M  V30 7967 H 748.191 -3.01196 -2.42524 0
M  V30 7968 H 749.88 -3.38649 -2.23767 0
M  V30 7969 H 750.646 -4.84467 -0.227403 0
M  V30 7970 H 746.525 -4.4015 -1.37073 0
M  V30 7971 H 750.069 -6.9027 1.00864 0
M  V30 7972 H 745.966 -6.45345 -0.141381 0
M  V30 7973 H 746.734 -8.10932 1.11051 0
M  V30 7974 N 749.397 0.351382 -1.53633 0
M  V30 7975 C 750.808 0.927429 -1.62036 0
M  V30 7976 C 751.159 1.89809 -0.496706 0
M  V30 7977 O 750.284 2.1313 0.374749 0
M  V30 7978 C 750.879 1.68886 -2.93706 0
M  V30 7979 C 749.438 2.21404 -3.04397 0
M  V30 7980 C 748.585 1.03075 -2.57431 0
M  V30 7981 H 751.536 0.129748 -1.58169 0
M  V30 7982 H 751.557 2.55116 -2.82305 0
M  V30 7983 H 751.069 0.982149 -3.75467 0
M  V30 7984 H 749.17 2.95274 -2.27253 0
M  V30 7985 H 749.283 2.48312 -4.09729 0
M  V30 7986 H 747.647 1.40188 -2.12649 0
M  V30 7987 H 748.43 0.338793 -3.41624 0
M  V30 7988 N 750.875 1.45233 0.611969 0
M  V30 7989 C 751.822 1.5357 1.72293 0
M  V30 7990 C 752.792 0.381912 1.6165 0
M  V30 7991 O 753.977 0.594765 1.81293 0
M  V30 7992 C 751.117 1.50419 3.10593 0
M  V30 7993 C 750.23 2.76316 3.32074 0
M  V30 7994 C 749.365 2.64866 4.60456 0
M  V30 7995 C 748.404 3.85838 4.7518 0
M  V30 7996 N 747.541 3.72949 5.94856 0
M  V30 7997 H 752.381 2.4848 1.64504 0
M  V30 7998 H 749.918 1.23302 0.802191 0
M  V30 7999 H 751.876 1.4658 3.90602 0
M  V30 8000 H 750.506 0.590621 3.17351 0
M  V30 8001 H 749.558 2.90261 2.45872 0
M  V30 8002 H 750.87 3.66055 3.38829 0
M  V30 8003 H 750.024 2.58969 5.48653 0
M  V30 8004 H 748.763 1.72719 4.56092 0
M  V30 8005 H 747.768 3.92099 3.85407 0
M  V30 8006 H 748.993 4.79045 4.81344 0
M  V30 8007 H 746.939 2.83567 5.91545 0
M  V30 8008 H 746.856 4.56319 6.02751 0
M  V30 8009 H 748.124 3.70976 6.85563 0
M  V30 8010 N 752.353 -0.854086 1.3245 0
M  V30 8011 C 753.764 -1.42427 1.20712 0
M  V30 8012 C 754.115 -1.95371 -0.18013 0
M  V30 8013 O 753.24 -1.87587 -1.07889 0
M  V30 8014 C 753.835 -2.58897 2.18536 0
M  V30 8015 C 752.394 -3.11913 2.10683 0
M  V30 8016 C 751.541 -1.84661 2.06871 0
M  V30 8017 H 754.492 -0.661192 1.4427 0
M  V30 8018 H 754.513 -3.36074 1.78422 0
M  V30 8019 H 754.025 -2.20333 3.19492 0
M  V30 8020 H 752.126 -3.55059 1.12977 0
M  V30 8021 H 752.239 -3.73119 3.00532 0
M  V30 8022 H 750.603 -2.04285 1.52118 0
M  V30 8023 H 751.386 -1.48314 3.09609 0
M  V30 8024 N 753.831 -1.1567 -1.07043 0
M  V30 8025 C 755.108 -0.843948 -1.76456 0
M  V30 8026 C 755.488 0.659806 -2.00524 0
M  V30 8027 O 754.836 1.60518 -1.62623 0
M  V30 8028 C 755.046 -1.65822 -3.0709 0
M  V30 8029 C 756.394 -1.8664 -3.8138 0
M  V30 8030 O 757.418 -1.62624 -3.1691 0
M  V30 8031 O 756.277 -2.26884 -4.97178 0
M  V30 8032 H 753.371 -0.310677 -0.766426 0
M  V30 8033 H 755.917 -1.26266 -1.1338 0
M  V30 8034 H 754.689 -2.67902 -2.85209 0
M  V30 8035 H 754.312 -1.23605 -3.77899 0
M  V30 8036 N 755.309 1.25446 -0.953992 0
M  V30 8037 C 756.557 1.92762 -0.607227 0
M  V30 8038 C 756.878 1.7509 0.858399 0
M  V30 8039 O 756.148 1.11416 1.61132 0
M  V30 8040 H 754.728 0.713377 -0.221591 0
M  V30 8041 H 757.39 1.52625 -1.21209 0
M  V30 8042 H 756.486 3.00695 -0.835998 0
M  V30 8043 N 756.787 0.722489 1.40064 0
M  V30 8044 C 757.719 0.0349057 2.29173 0
M  V30 8045 C 758.732 -0.716571 1.46182 0
M  V30 8046 O 759.921 -0.562806 1.69395 0
M  V30 8047 C 757.021 -0.974839 3.24577 0
M  V30 8048 C 756.194 -0.287471 4.36454 0
M  V30 8049 C 755.253 -1.20356 5.12251 0
M  V30 8050 O 754.279 -0.685753 5.65054 0
M  V30 8051 N 755.481 -2.53422 5.22262 0
M  V30 8052 H 758.246 0.800058 2.88824 0
M  V30 8053 H 755.807 0.57068 1.51509 0
M  V30 8054 H 757.799 -1.59002 3.72157 0
M  V30 8055 H 756.369 -1.6413 2.66046 0
M  V30 8056 H 755.589 0.508008 3.90913 0
M  V30 8057 H 756.877 0.189382 5.08447 0
M  V30 8058 H 756.275 -2.97981 4.80857 0
M  V30 8059 H 754.832 -3.10067 5.73325 0
M  V30 8060 N 758.265 -1.50454 0.469181 0
M  V30 8061 C 759.514 -2.01507 -0.0881425 0
M  V30 8062 C 759.827 -1.35613 -1.40956 0
M  V30 8063 O 761.033 -1.77812 -2.05171 0
M  V30 8064 C 759.489 -3.59301 -0.207596 0
M  V30 8065 C 759.097 -4.34152 1.10527 0
M  V30 8066 C 760.841 -4.18401 -0.716981 0
M  V30 8067 C 758.748 -5.83725 0.949717 0
M  V30 8068 H 757.678 -0.753106 -0.0367156 0
M  V30 8069 H 760.329 -1.73282 0.603788 0
M  V30 8070 H 758.711 -3.84106 -0.963265 0
M  V30 8071 H 759.885 -4.21073 1.87175 0
M  V30 8072 H 758.2 -3.86652 1.54562 0
M  V30 8073 H 760.797 -5.27895 -0.850363 0
M  V30 8074 H 761.14 -3.79657 -1.70782 0
M  V30 8075 H 761.673 -3.97796 -0.0187511 0
M  V30 8076 H 758.412 -6.26938 1.91387 0
M  V30 8077 H 757.932 -5.99383 0.223591 0
M  V30 8078 H 759.611 -6.44065 0.61557 0
M  V30 8079 N 759.743 -0.201713 -1.56304 0
M  V30 8080 C 760.968 0.443815 -2.02596 0
M  V30 8081 C 761.393 1.53945 -1.08086 0
M  V30 8082 O 760.751 1.81182 -0.0655056 0
M  V30 8083 C 760.799 0.971066 -3.47279 0
M  V30 8084 O 759.903 2.0836 -3.55893 0
M  V30 8085 H 759.244 0.10294 -0.655972 0
M  V30 8086 H 761.774 -0.314533 -2.02168 0
M  V30 8087 H 761.784 1.28598 -3.87204 0
M  V30 8088 H 760.459 0.169048 -4.15556 0
M  V30 8089 H 759.036 1.77683 -3.27846 0
M  V30 8090 N 761.222 1.57436 0.0718424 0
M  V30 8091 C 762.469 1.87248 0.771007 0
M  V30 8092 C 762.797 0.793441 1.7758 0
M  V30 8093 O 762.052 -0.210565 1.94564 0
M  V30 8094 C 762.351 3.23723 1.51455 0
M  V30 8095 C 762.017 4.46194 0.649736 0
M  V30 8096 C 760.679 4.79438 0.411409 0
M  V30 8097 C 763.031 5.21176 0.05004 0
M  V30 8098 C 760.359 5.85077 -0.436096 0
M  V30 8099 C 762.711 6.27712 -0.784919 0
M  V30 8100 C 761.375 6.59457 -1.03312 0
M  V30 8101 H 760.645 0.685188 0.282132 0
M  V30 8102 H 763.292 1.91474 0.0317896 0
M  V30 8103 H 761.597 3.15287 2.32597 0
M  V30 8104 H 763.294 3.44023 2.06031 0
M  V30 8105 H 759.884 4.20175 0.84562 0
M  V30 8106 H 764.068 4.95806 0.221282 0
M  V30 8107 H 759.324 6.08071 -0.637136 0
M  V30 8108 H 763.498 6.84974 -1.25635 0
M  V30 8109 H 761.125 7.4114 -1.6916 0
M  V30 8110 N 762.7 -0.34323 1.53817 0
M  V30 8111 C 763.977 -1.10047 1.61706 0
M  V30 8112 C 764.357 -2.06495 0.438514 0
M  V30 8113 O 763.705 -2.21297 -0.569188 0
M  V30 8114 C 763.915 -1.81985 2.97796 0
M  V30 8115 C 765.263 -2.35717 3.53161 0
M  V30 8116 O 766.287 -1.9208 2.99973 0
M  V30 8117 O 765.146 -3.15551 4.46195 0
M  V30 8118 H 762.24 -0.506096 0.654061 0
M  V30 8119 H 764.786 -0.344697 1.66162 0
M  V30 8120 H 763.558 -1.11722 3.75012 0
M  V30 8121 H 763.181 -2.64419 2.96931 0
M  V30 8122 N 764.178 -1.45556 -0.604258 0
M  V30 8123 C 765.108 -1.57327 -1.72541 0
M  V30 8124 C 766.089 -0.424637 -1.64714 0
M  V30 8125 O 767.274 -0.648196 -1.83063 0
M  V30 8126 C 764.404 -1.54279 -3.11152 0
M  V30 8127 C 763.358 -2.67893 -3.33792 0
M  V30 8128 C 762.684 -2.499 -4.72709 0
M  V30 8129 C 763.984 -4.0988 -3.23722 0
M  V30 8130 H 765.678 -2.51175 -1.62947 0
M  V30 8131 H 763.224 -1.20884 -0.782504 0
M  V30 8132 H 765.177 -1.6111 -3.89386 0
M  V30 8133 H 763.901 -0.569627 -3.21594 0
M  V30 8134 H 762.56 -2.60495 -2.57949 0
M  V30 8135 H 762.208 -1.50715 -4.79889 0
M  V30 8136 H 761.908 -3.26091 -4.88813 0
M  V30 8137 H 763.432 -2.5859 -5.5314 0
M  V30 8138 H 764.846 -4.18503 -3.91826 0
M  V30 8139 H 763.243 -4.86487 -3.51355 0
M  V30 8140 H 764.313 -4.31553 -2.21111 0
M  V30 8141 N 765.656 0.84705 -1.32902 0
M  V30 8142 C 766.586 1.97166 -1.25091 0
M  V30 8143 C 767.567 1.69578 -0.133161 0
M  V30 8144 O 768.752 1.91519 -0.321591 0
M  V30 8145 C 765.882 3.33157 -0.981006 0
M  V30 8146 C 764.836 3.75119 -2.06082 0
M  V30 8147 C 764.162 5.08826 -1.64318 0
M  V30 8148 C 765.462 3.89774 -3.47669 0
M  V30 8149 H 767.156 2.03958 -2.19184 0
M  V30 8150 H 764.702 0.979907 -1.05517 0
M  V30 8151 H 766.655 4.11393 -0.912891 0
M  V30 8152 H 765.379 3.266 -0.00445559 0
M  V30 8153 H 764.038 2.9914 -2.11921 0
M  V30 8154 H 763.686 4.98732 -0.653876 0
M  V30 8155 H 763.386 5.37873 -2.36572 0
M  V30 8156 H 764.91 5.89546 -1.58958 0
M  V30 8157 H 766.324 4.58343 -3.44376 0
M  V30 8158 H 764.721 4.30248 -4.18338 0
M  V30 8159 H 765.791 2.92463 -3.86773 0
M  V30 8160 N 767.134 1.16236 1.06428 0
M  V30 8161 C 768.359 0.967688 1.83441 0
M  V30 8162 C 768.784 -0.479167 1.81894 0
M  V30 8163 O 768.142 -1.34224 1.21875 0
M  V30 8164 C 768.19 1.49806 3.2801 0
M  V30 8165 O 767.294 0.703481 4.06356 0
M  V30 8166 H 766.635 0.344468 0.56766 0
M  V30 8167 H 769.165 1.54442 1.34197 0
M  V30 8168 H 769.175 1.51495 3.78831 0
M  V30 8169 H 767.85 2.55133 3.2845 0
M  V30 8170 H 766.427 0.756986 3.65136 0
M  V30 8171 N 768.612 -1.24939 0.960631 0
M  V30 8172 C 769.837 -1.9742 0.635608 0
M  V30 8173 C 770.262 -1.70857 -0.786737 0
M  V30 8174 O 769.62 -0.968063 -1.53291 0
M  V30 8175 C 769.668 -3.48987 0.907771 0
M  V30 8176 O 768.772 -4.12399 -0.0104053 0
M  V30 8177 H 768.113 -0.61871 0.241027 0
M  V30 8178 H 770.643 -1.58901 1.28886 0
M  V30 8179 H 770.653 -3.99334 0.836453 0
M  V30 8180 H 769.328 -3.6765 1.94439 0
M  V30 8181 H 767.905 -3.72727 0.113631 0
M  V30 8182 N 770.09 -0.729906 -1.39679 0
M  V30 8183 C 771.336 -0.27603 -2.00913 0
M  V30 8184 C 771.669 1.13227 -1.57776 0
M  V30 8185 O 770.944 1.7709 -0.804319 0
M  V30 8186 C 771.227 -0.372157 -3.58172 0
M  V30 8187 C 771.08 -1.81986 -4.11341 0
M  V30 8188 C 772.399 0.248378 -4.39399 0
M  V30 8189 H 769.518 -0.101773 -0.729939 0
M  V30 8190 H 772.16 -0.925104 -1.65957 0
M  V30 8191 H 770.31 0.180459 -3.88081 0
M  V30 8192 H 771.982 -2.42896 -3.92172 0
M  V30 8193 H 770.225 -2.34287 -3.65092 0
M  V30 8194 H 770.896 -1.83842 -5.20486 0
M  V30 8195 H 773.372 -0.222645 -4.15504 0
M  V30 8196 H 772.248 0.150746 -5.48693 0
M  V30 8197 H 772.509 1.33378 -4.21501 0
M  V30 8198 N 771.568 1.50203 -0.477153 0
M  V30 8199 C 772.531 2.27194 0.302599 0
M  V30 8200 C 773.531 1.32221 0.915112 0
M  V30 8201 O 774.721 1.55593 0.783348 0
M  V30 8202 C 771.853 3.0938 1.43167 0
M  V30 8203 H 773.046 2.97575 -0.372678 0
M  V30 8204 H 770.599 1.54578 -0.231392 0
M  V30 8205 H 771.334 2.43509 2.14182 0
M  V30 8206 H 771.119 3.79181 0.998197 0
M  V30 8207 H 772.609 3.67592 1.98157 0
M  V30 8208 N 773.046 0.209999 1.56195 0
M  V30 8209 C 773.976 -0.699746 2.22769 0
M  V30 8210 C 774.957 -1.20993 1.1956 0
M  V30 8211 O 776.142 -1.25605 1.48112 0
M  V30 8212 C 773.272 -1.91302 2.89863 0
M  V30 8213 C 772.226 -1.53715 3.99444 0
M  V30 8214 C 771.552 -2.82826 4.53777 0
M  V30 8215 C 772.852 -0.735836 5.17091 0
M  V30 8216 H 774.546 -0.144716 2.9905 0
M  V30 8217 H 772.092 -0.0681645 1.43839 0
M  V30 8218 H 774.045 -2.5548 3.35124 0
M  V30 8219 H 772.769 -2.49283 2.11011 0
M  V30 8220 H 771.428 -0.918892 3.54897 0
M  V30 8221 H 771.076 -3.38927 3.71669 0
M  V30 8222 H 770.776 -2.58415 5.27727 0
M  V30 8223 H 772.3 -3.47966 5.01749 0
M  V30 8224 H 773.714 -1.28105 5.58804 0
M  V30 8225 H 772.111 -0.589272 5.972 0
M  V30 8226 H 773.181 0.260004 4.84202 0
M  V30 8227 N 774.524 -1.57472 -0.0634922 0
M  V30 8228 C 775.749 -1.92273 -0.77756 0
M  V30 8229 C 776.174 -0.807141 -1.69902 0
M  V30 8230 O 775.532 0.239523 -1.79711 0
M  V30 8231 C 775.58 -3.26054 -1.54017 0
M  V30 8232 O 774.684 -3.15873 -2.65138 0
M  V30 8233 H 774.025 -0.629389 -0.211579 0
M  V30 8234 H 776.555 -2.04579 -0.0292523 0
M  V30 8235 H 776.565 -3.60127 -1.91763 0
M  V30 8236 H 775.24 -4.06824 -0.864128 0
M  V30 8237 H 773.817 -2.93373 -2.30189 0
M  V30 8238 N 776.003 0.335068 -1.53997 0
M  V30 8239 C 777.251 1.07223 -1.71312 0
M  V30 8240 C 777.572 1.88911 -0.483486 0
M  V30 8241 O 776.842 1.89344 0.50257 0
M  V30 8242 H 775.422 0.398846 -0.63161 0
M  V30 8243 H 778.084 0.374288 -1.91272 0
M  V30 8244 H 777.18 1.7448 -2.58772 0
M  V30 8245 N 777.481 1.45874 0.596531 0
M  V30 8246 C 778.709 1.54013 1.38158 0
M  V30 8247 C 779.124 0.17648 1.87973 0
M  V30 8248 O 778.481 -0.823895 1.62844 0
M  V30 8249 C 778.532 2.53363 2.57855 0
M  V30 8250 O 778.253 3.8443 2.10108 0
M  V30 8251 C 779.754 2.71308 3.50581 0
M  V30 8252 H 776.974 0.521251 0.422538 0
M  V30 8253 H 779.518 1.9116 0.726493 0
M  V30 8254 H 777.673 2.19257 3.19382 0
M  V30 8255 H 778.087 4.38384 2.87958 0
M  V30 8256 H 779.561 3.44776 4.31084 0
M  V30 8257 H 780.038 1.77728 4.01633 0
M  V30 8258 H 780.644 3.06455 2.94899 0
M  V30 8259 N 778.959 -0.83999 1.33349 0
M  V30 8260 C 779.907 -1.97113 1.23488 0
M  V30 8261 C 780.901 -1.68849 0.136503 0
M  V30 8262 O 782.107 -1.77476 0.300389 0
M  V30 8263 H 778.482 -0.647049 0.383185 0
M  V30 8264 H 780.453 -2.02554 2.19122 0
M  V30 8265 C 779.202 -3.33314 0.989815 0
M  V30 8266 H 778.525 -3.556 1.82726 0
M  V30 8267 H 779.965 -4.12963 0.961123 0
M  V30 8268 C 778.424 -3.35496 -0.307272 0
M  V30 8269 O 778.954 -3.79589 -1.31434 0
M  V30 8270 N 777.16 -2.88669 -0.334414 0
M  V30 8271 H 776.707 -2.5298 0.485659 0
M  V30 8272 H 776.665 -2.90512 -1.20209 0
M  V30 8273 N 780.437 -1.16799 -1.0581 0
M  V30 8274 C 781.387 -0.847231 -2.11674 0
M  V30 8275 C 782.371 0.175476 -1.5994 0
M  V30 8276 O 783.563 -0.0260602 -1.76981 0
M  V30 8277 C 780.692 -0.355446 -3.41455 0
M  V30 8278 C 779.778 -1.40922 -4.00002 0
M  V30 8279 N 780.169 -2.62096 -4.32596 0
M  V30 8280 C 778.467 -1.26562 -4.27666 0
M  V30 8281 C 779.168 -3.29759 -4.79201 0
M  V30 8282 N 778.144 -2.57138 -4.78938 0
M  V30 8283 H 781.946 -1.76862 -2.34727 0
M  V30 8284 H 779.46 -1.05577 -1.23399 0
M  V30 8285 H 781.457 -0.107231 -4.16762 0
M  V30 8286 H 780.117 0.559817 -3.19838 0
M  V30 8287 H 781.128 -2.99113 -4.22791 0
M  V30 8288 H 777.805 -0.411503 -4.15467 0
M  V30 8289 H 779.195 -4.33222 -5.13584 0
M  V30 8290 N 781.915 1.24427 -0.967243 0
M  V30 8291 C 782.825 2.29109 -0.504592 0
M  V30 8292 C 783.841 1.68495 0.434224 0
M  V30 8293 O 785.017 1.99041 0.307379 0
M  V30 8294 C 782.082 3.46133 0.198273 0
M  V30 8295 C 781.143 4.22149 -0.780313 0
M  V30 8296 C 780.376 5.33585 -0.110896 0
M  V30 8297 O 780.599 5.59676 1.10088 0
M  V30 8298 O 779.533 5.96522 -0.802823 0
M  V30 8299 H 783.359 2.708 -1.37482 0
M  V30 8300 H 780.944 1.30111 -0.73426 0
M  V30 8301 H 782.826 4.17205 0.593124 0
M  V30 8302 H 781.501 3.0642 1.04347 0
M  V30 8303 H 780.408 3.53454 -1.22561 0
M  V30 8304 H 781.741 4.65677 -1.59392 0
M  V30 8305 N 783.393 0.737304 1.3929 0
M  V30 8306 C 784.343 0.0748537 2.27877 0
M  V30 8307 C 785.327 -0.71022 1.44377 0
M  V30 8308 O 786.519 -0.578851 1.67267 0
M  V30 8309 C 783.648 -0.82991 3.33118 0
M  V30 8310 C 782.734 -0.0388619 4.24082 0
M  V30 8311 N 783.125 0.989182 4.96033 0
M  V30 8312 C 781.423 -0.268167 4.45193 0
M  V30 8313 C 782.124 1.46639 5.62914 0
M  V30 8314 N 781.1 0.784581 5.37908 0
M  V30 8315 H 784.902 0.862457 2.80961 0
M  V30 8316 H 782.416 0.571845 1.51999 0
M  V30 8317 H 784.413 -1.31999 3.95452 0
M  V30 8318 H 783.073 -1.61665 2.81593 0
M  V30 8319 H 784.084 1.3706 4.99435 0
M  V30 8320 H 780.761 -1.02953 4.04607 0
M  V30 8321 H 782.151 2.32182 6.30508 0
M  V30 8322 N 784.871 -1.49948 0.485112 0
M  V30 8323 C 786.148 -1.95186 -0.12726 0
M  V30 8324 C 786.528 -1.42605 -1.5565 0
M  V30 8325 O 785.876 -0.632986 -2.19558 0
M  V30 8326 C 786.086 -3.48955 -0.0562117 0
M  V30 8327 C 787.434 -4.23932 -0.238106 0
M  V30 8328 O 788.458 -3.55955 -0.132145 0
M  V30 8329 O 787.317 -5.44614 -0.453658 0
M  V30 8330 H 784.411 -0.820433 -0.104014 0
M  V30 8331 H 786.957 -1.60659 0.546517 0
M  V30 8332 H 785.729 -3.79814 0.941122 0
M  V30 8333 H 785.352 -3.90056 -0.770834 0
M  V30 8334 N 786.349 -0.21828 -1.56081 0
M  V30 8335 C 787.281 0.725447 -2.17416 0
M  V30 8336 C 788.294 1.15995 -1.14233 0
M  V30 8337 O 789.483 1.09166 -1.41227 0
M  V30 8338 C 786.583 1.99401 -2.7403 0
M  V30 8339 C 785.756 1.7156 -4.02351 0
M  V30 8340 C 784.815 2.8309 -4.43561 0
M  V30 8341 O 783.841 2.51701 -5.10525 0
M  V30 8342 N 785.043 4.11972 -4.08973 0
M  V30 8343 H 787.808 0.200801 -2.99027 0
M  V30 8344 H 785.369 -0.0371514 -1.61857 0
M  V30 8345 H 787.361 2.73198 -2.98571 0
M  V30 8346 H 785.931 2.42923 -1.96742 0
M  V30 8347 H 785.151 0.814233 -3.85699 0
M  V30 8348 H 786.439 1.50385 -4.86068 0
M  V30 8349 H 785.837 4.40319 -3.55156 0
M  V30 8350 H 784.394 4.82323 -4.38415 0
M  V30 8351 N 787.827 1.57504 0.0551401 0
M  V30 8352 C 789.238 1.76626 0.604979 0
M  V30 8353 C 789.589 0.845978 1.77024 0
M  V30 8354 O 788.714 0.0341936 2.16373 0
M  V30 8355 C 789.309 3.203 1.10425 0
M  V30 8356 C 787.868 3.4071 1.59981 0
M  V30 8357 C 787.015 2.72258 0.526414 0
M  V30 8358 H 789.966 1.57775 -0.171072 0
M  V30 8359 H 789.987 3.25377 1.97256 0
M  V30 8360 H 789.499 3.87255 0.255939 0
M  V30 8361 H 787.6 2.78892 2.47083 0
M  V30 8362 H 787.713 4.49227 1.66528 0
M  V30 8363 H 786.077 2.35283 0.97539 0
M  V30 8364 H 786.86 3.41879 -0.311991 0
M  V30 8365 N 789.305 -0.326896 1.54172 0
M  V30 8366 C 790.268 -1.38515 1.8261 0
M  V30 8367 C 791.268 -1.44872 0.697771 0
M  V30 8368 O 792.458 -1.44957 0.966078 0
M  V30 8369 C 789.59 -2.77281 1.98313 0
M  V30 8370 H 790.783 -1.14556 2.77159 0
M  V30 8371 H 788.336 -0.562199 1.45839 0
M  V30 8372 H 789.071 -3.065 1.05964 0
M  V30 8373 H 788.856 -2.74061 2.80416 0
M  V30 8374 H 790.346 -3.53845 2.21773 0
M  V30 8375 N 790.784 -1.46188 -0.588786 0
M  V30 8376 C 791.734 -1.5271 -1.69303 0
M  V30 8377 C 792.718 -0.388578 -1.56137 0
M  V30 8378 O 793.91 -0.636616 -1.65155 0
M  V30 8379 C 791.039 -1.51457 -3.08084 0
M  V30 8380 C 790.125 -2.70581 -3.26568 0
M  V30 8381 N 790.516 -3.9555 -3.15236 0
M  V30 8382 C 788.814 -2.66676 -3.57491 0
M  V30 8383 C 789.515 -4.75157 -3.35561 0
M  V30 8384 N 788.491 -4.06927 -3.60432 0
M  V30 8385 H 792.293 -2.47136 -1.59063 0
M  V30 8386 H 789.807 -1.41743 -0.792632 0
M  V30 8387 H 791.804 -1.54216 -3.87328 0
M  V30 8388 H 790.464 -0.581036 -3.19459 0
M  V30 8389 H 791.475 -4.2689 -2.93232 0
M  V30 8390 H 788.152 -1.82317 -3.75588 0
M  V30 8391 H 789.542 -5.84126 -3.32034 0
M  V30 8392 N 792.262 0.832906 -1.33792 0
M  V30 8393 C 793.192 1.95828 -1.27176 0
M  V30 8394 C 794.173 1.69427 -0.15114 0
M  V30 8395 O 795.358 1.91167 -0.341886 0
M  V30 8396 C 792.488 3.32098 -1.01629 0
M  V30 8397 C 791.442 3.72912 -2.10049 0
M  V30 8398 C 790.768 5.07054 -1.69706 0
M  V30 8399 C 792.068 3.86064 -3.51783 0
M  V30 8400 H 793.762 2.01622 -2.21334 0
M  V30 8401 H 791.308 0.96866 -1.0655 0
M  V30 8402 H 793.261 4.10402 -0.956474 0
M  V30 8403 H 791.985 3.26577 -0.0390956 0
M  V30 8404 H 790.644 2.96876 -2.15082 0
M  V30 8405 H 790.292 4.9801 -0.706737 0
M  V30 8406 H 789.992 5.35333 -2.42264 0
M  V30 8407 H 791.516 5.87827 -1.65202 0
M  V30 8408 H 792.93 4.54665 -3.49218 0
M  V30 8409 H 791.327 4.25787 -4.22878 0
M  V30 8410 H 792.397 2.88344 -3.89854 0
M  V30 8411 N 793.74 1.17359 1.05189 0
M  V30 8412 C 794.968 0.986529 1.81866 0
M  V30 8413 C 795.383 -0.46522 1.82979 0
M  V30 8414 O 794.74 -1.32305 1.25705 0
M  V30 8415 C 794.791 1.52021 3.27982 0
M  V30 8416 O 794.512 2.91511 3.27037 0
M  V30 8417 C 796.013 1.37774 4.21347 0
M  V30 8418 H 793.233 0.349021 0.573084 0
M  V30 8419 H 795.777 1.55648 1.32643 0
M  V30 8420 H 793.932 0.992287 3.74476 0
M  V30 8421 H 794.346 3.16178 4.18488 0
M  V30 8422 H 795.82 1.7993 5.21852 0
M  V30 8423 H 796.297 0.32483 4.37997 0
M  V30 8424 H 796.903 1.89583 3.80708 0
M  V30 8425 N 795.218 -1.23913 0.973828 0
M  V30 8426 C 796.148 -2.27453 0.527969 0
M  V30 8427 C 797.129 -1.6443 -0.435513 0
M  V30 8428 O 798.314 -1.9137 -0.330306 0
M  V30 8429 C 795.444 -3.4685 -0.176757 0
M  V30 8430 C 794.398 -4.22181 0.703352 0
M  V30 8431 C 793.724 -5.34534 -0.133215 0
M  V30 8432 C 795.024 -4.82865 1.99096 0
M  V30 8433 H 796.718 -2.65 1.3934 0
M  V30 8434 H 794.264 -1.27388 0.671446 0
M  V30 8435 H 796.217 -4.18424 -0.499934 0
M  V30 8436 H 794.941 -3.08346 -1.07659 0
M  V30 8437 H 793.6 -3.52416 1.00989 0
M  V30 8438 H 793.248 -4.92271 -1.03338 0
M  V30 8439 H 792.948 -5.85855 0.452494 0
M  V30 8440 H 794.472 -6.08933 -0.450924 0
M  V30 8441 H 795.886 -5.46481 1.73297 0
M  V30 8442 H 794.283 -5.44444 2.52389 0
M  V30 8443 H 795.353 -4.03977 2.68199 0
M  V30 8444 N 796.696 -0.74468 -1.38897 0
M  V30 8445 C 798.112 -0.421302 -1.53939 0
M  V30 8446 C 798.312 1.06668 -1.70951 0
M  V30 8447 O 797.368 1.85278 -1.71547 0
M  V30 8448 C 798.681 -1.21278 -2.75159 0
M  V30 8449 C 800.229 -1.20196 -2.89001 0
M  V30 8450 C 800.704 -1.97621 -4.13171 0
M  V30 8451 N 802.195 -1.94836 -4.2023 0
M  V30 8452 C 802.93 -2.51545 -5.15279 0
M  V30 8453 N 802.426 -3.1693 -6.16058 0
M  V30 8454 N 804.219 -2.41524 -5.07565 0
M  V30 8455 H 796.37 -1.70914 -1.26103 0
M  V30 8456 H 798.633 -0.724058 -0.611919 0
M  V30 8457 H 798.339 -2.26609 -2.68963 0
M  V30 8458 H 798.213 -0.823677 -3.68097 0
M  V30 8459 H 800.6 -0.156742 -2.94683 0
M  V30 8460 H 800.681 -1.63051 -1.97099 0
M  V30 8461 H 800.325 -3.02149 -4.0825 0
M  V30 8462 H 800.255 -1.52166 -5.04136 0
M  V30 8463 H 802.746 -1.4721 -3.48048 0
M  V30 8464 H 803.059 -3.57644 -6.85062 0
M  V30 8465 H 801.404 -3.21023 -6.16417 0
M  V30 8466 H 804.595 -1.90077 -4.27771 0
M  V30 8467 H 804.768 -2.86016 -5.81462 0
M  V30 8468 N 798.174 1.49689 -0.493057 0
M  V30 8469 C 799.451 1.9525 0.116907 0
M  V30 8470 C 799.831 1.43429 1.54892 0
M  V30 8471 O 799.179 0.644621 2.19219 0
M  V30 8472 C 799.389 3.4898 0.037705 0
M  V30 8473 C 800.737 4.24052 0.215621 0
M  V30 8474 O 801.761 3.5602 0.113266 0
M  V30 8475 O 800.62 5.44847 0.42477 0
M  V30 8476 H 797.714 0.820973 0.099662 0
M  V30 8477 H 800.26 1.60367 -0.555029 0
M  V30 8478 H 799.032 3.79309 -0.961251 0
M  V30 8479 H 798.655 3.9046 0.750137 0
M  V30 8480 N 799.652 0.226554 1.55963 0
M  V30 8481 C 800.929 -0.453058 1.90281 0
M  V30 8482 C 801.309 -1.77377 1.14458 0
M  V30 8483 O 800.657 -2.27067 0.255496 0
M  V30 8484 C 800.867 -0.641108 3.43061 0
M  V30 8485 C 802.215 -0.946265 4.13921 0
M  V30 8486 O 803.239 -0.727713 3.48687 0
M  V30 8487 O 802.098 -1.36131 5.29274 0
M  V30 8488 H 799.192 -0.240242 0.791336 0
M  V30 8489 H 801.738 0.26911 1.67553 0
M  V30 8490 H 800.51 0.290283 3.90222 0
M  V30 8491 H 800.133 -1.41458 3.71585 0
M  V30 8492 N 801.13 -1.57531 -0.0467866 0
M  V30 8493 C 802.355 -1.93087 -0.757123 0
M  V30 8494 C 802.78 -0.825116 -1.69037 0
M  V30 8495 O 802.138 0.220449 -1.79955 0
M  V30 8496 C 802.186 -3.27669 -1.5055 0
M  V30 8497 O 801.29 -3.18667 -2.61773 0
M  V30 8498 H 800.631 -0.631597 -0.204892 0
M  V30 8499 H 803.161 -2.04599 -0.00755232 0
M  V30 8500 H 803.171 -3.6214 -1.87932 0
M  V30 8501 H 801.846 -4.07717 -0.820931 0
M  V30 8502 H 800.423 -2.95798 -2.27064 0
M  V30 8503 N 802.608 0.318715 -1.54344 0
M  V30 8504 C 803.857 1.05363 -1.71993 0
M  V30 8505 C 804.17 1.89018 -0.503155 0
M  V30 8506 O 805.376 2.65639 -0.561085 0
M  V30 8507 C 803.832 1.92281 -3.0423 0
M  V30 8508 C 803.44 1.13715 -4.33328 0
M  V30 8509 C 805.184 2.65479 -3.31242 0
M  V30 8510 C 803.091 1.99806 -5.56625 0
M  V30 8511 H 802.021 0.397081 -0.64097 0
M  V30 8512 H 804.672 0.311598 -1.80835 0
M  V30 8513 H 803.054 2.70402 -2.89307 0
M  V30 8514 H 804.228 0.403305 -4.59032 0
M  V30 8515 H 802.543 0.521769 -4.13118 0
M  V30 8516 H 805.14 3.30209 -4.20555 0
M  V30 8517 H 805.483 3.33374 -2.49334 0
M  V30 8518 H 806.016 1.94417 -3.47054 0
M  V30 8519 H 802.755 1.36411 -6.41149 0
M  V30 8520 H 802.275 2.70911 -5.35133 0
M  V30 8521 H 803.954 2.58277 -5.93213 0
M  V30 8522 N 804.086 1.46499 0.581025 0
M  V30 8523 C 805.497 1.4604 1.16315 0
M  V30 8524 C 805.848 0.202154 1.95156 0
M  V30 8525 O 804.973 -0.694638 2.04948 0
M  V30 8526 C 805.568 2.64593 2.11604 0
M  V30 8527 C 804.127 2.6717 2.65136 0
M  V30 8528 C 803.274 2.38753 1.4104 0
M  V30 8529 H 806.225 1.54354 0.368871 0
M  V30 8530 H 806.246 2.40207 2.95095 0
M  V30 8531 H 805.758 3.56154 1.54194 0
M  V30 8532 H 803.859 1.79685 3.26411 0
M  V30 8533 H 803.972 3.67182 3.07757 0
M  V30 8534 H 802.336 1.88845 1.70908 0
M  V30 8535 H 803.119 3.32493 0.854588 0
M  V30 8536 N 805.565 -0.825799 1.34232 0
M  V30 8537 C 806.811 -1.58419 1.26614 0
M  V30 8538 C 807.144 -1.93503 -0.164341 0
M  V30 8539 O 806.419 -1.59785 -1.109 0
M  V30 8540 C 806.702 -2.8856 2.15418 0
M  V30 8541 C 806.555 -2.60075 3.66989 0
M  V30 8542 C 807.874 -3.90107 2.03726 0
M  V30 8543 H 804.993 -0.574794 0.461282 0
M  V30 8544 H 807.635 -0.951519 1.64457 0
M  V30 8545 H 805.785 -3.42553 1.83275 0
M  V30 8546 H 807.457 -2.12414 4.09485 0
M  V30 8547 H 805.7 -1.93565 3.88221 0
M  V30 8548 H 806.371 -3.52866 4.24488 0
M  V30 8549 H 808.847 -3.45459 2.31942 0
M  V30 8550 H 807.723 -4.78976 2.68092 0
M  V30 8551 H 807.984 -4.30329 1.01337 0
M  V30 8552 N 807.043 -1.17915 -1.04565 0
M  V30 8553 C 807.991 -0.897919 -2.1457 0
M  V30 8554 C 808.985 0.139883 -1.68821 0
M  V30 8555 O 810.191 -0.00779463 -1.79998 0
M  V30 8556 H 806.566 -0.272867 -0.700748 0
M  V30 8557 H 808.537 -1.83268 -2.3549 0
M  V30 8558 C 807.286 -0.434634 -3.44973 0
M  V30 8559 H 806.609 -1.22469 -3.8058 0
M  V30 8560 H 808.049 -0.276804 -4.23095 0
M  V30 8561 C 806.508 0.848738 -3.26034 0
M  V30 8562 O 807.038 1.9141 -3.53164 0
M  V30 8563 N 805.244 0.799373 -2.79389 0
M  V30 8564 H 804.791 -0.0678192 -2.57511 0
M  V30 8565 H 804.749 1.6585 -2.67098 0
M  V30 8566 N 808.521 1.23394 -0.980386 0
M  V30 8567 C 809.937 1.43961 -0.689008 0
M  V30 8568 C 810.137 1.87229 0.744809 0
M  V30 8569 O 809.193 2.01831 1.51725 0
M  V30 8570 C 810.506 2.49128 -1.68392 0
M  V30 8571 C 812.054 2.62941 -1.69796 0
M  V30 8572 C 812.529 3.71317 -2.68118 0
M  V30 8573 N 814.02 3.7876 -2.66636 0
M  V30 8574 C 814.755 4.62176 -3.39383 0
M  V30 8575 N 814.251 5.49682 -4.21688 0
M  V30 8576 N 816.044 4.56372 -3.28147 0
M  V30 8577 H 808.195 0.936106 -1.90659 0
M  V30 8578 H 810.458 0.473023 -0.821555 0
M  V30 8579 H 810.164 2.24252 -2.70931 0
M  V30 8580 H 810.038 3.47514 -1.46675 0
M  V30 8581 H 812.425 2.87168 -0.679617 0
M  V30 8582 H 812.506 1.64871 -1.95579 0
M  V30 8583 H 812.15 3.4784 -3.70095 0
M  V30 8584 H 812.08 4.68929 -2.3961 0
M  V30 8585 H 814.571 3.16226 -2.06904 0
M  V30 8586 H 814.884 6.10323 -4.74053 0
M  V30 8587 H 813.229 5.49306 -4.25779 0
M  V30 8588 H 816.42 3.87029 -2.63299 0
M  V30 8589 H 816.593 5.21153 -3.85102 0
M  V30 8590 N 809.999 0.752036 1.385 0
M  V30 8591 C 810.947 0.112634 2.32327 0
M  V30 8592 C 811.941 -0.707037 1.53939 0
M  V30 8593 O 813.147 -0.606309 1.69481 0
M  V30 8594 H 809.522 0.0176275 0.751793 0
M  V30 8595 H 811.493 0.920074 2.83861 0
M  V30 8596 C 810.242 -0.767458 3.39124 0
M  V30 8597 H 809.565 -0.146122 3.99533 0
M  V30 8598 H 811.005 -1.18216 4.07187 0
M  V30 8599 C 809.464 -1.90938 2.77568 0
M  V30 8600 O 809.994 -3.00342 2.66754 0
M  V30 8601 N 808.2 -1.70396 2.35401 0
M  V30 8602 H 807.747 -0.81413 2.44397 0
M  V30 8603 H 807.705 -2.46972 1.94557 0
M  V30 8604 N 811.477 -1.49425 0.500989 0
M  V30 8605 C 812.407 -2.31971 -0.266775 0
M  V30 8606 C 813.388 -1.40245 -0.962563 0
M  V30 8607 O 814.573 -1.69154 -0.953968 0
M  V30 8608 C 811.703 -3.20757 -1.33163 0
M  V30 8609 C 810.657 -4.21275 -0.75572 0
M  V30 8610 C 809.983 -4.98997 -1.92109 0
M  V30 8611 C 811.283 -5.21686 0.253213 0
M  V30 8612 H 812.977 -2.96408 0.422237 0
M  V30 8613 H 810.523 -1.4254 0.204505 0
M  V30 8614 H 812.476 -3.77315 -1.87646 0
M  V30 8615 H 811.2 -2.54263 -2.04983 0
M  V30 8616 H 809.859 -3.65861 -0.232637 0
M  V30 8617 H 809.507 -4.28951 -2.62698 0
M  V30 8618 H 809.207 -5.67011 -1.54182 0
M  V30 8619 H 810.731 -5.584 -2.47026 0
M  V30 8620 H 812.145 -5.72939 -0.203483 0
M  V30 8621 H 810.542 -5.9759 0.548322 0
M  V30 8622 H 811.612 -4.70596 1.16909 0
M  V30 8623 N 812.955 -0.234822 -1.55841 0
M  V30 8624 C 814.18 0.400741 -2.03492 0
M  V30 8625 C 814.605 1.51618 -1.11327 0
M  V30 8626 O 813.963 1.81002 -0.103922 0
M  V30 8627 C 814.011 0.897184 -3.49261 0
M  V30 8628 O 813.115 2.00764 -3.60233 0
M  V30 8629 H 812.456 0.0890023 -0.658008 0
M  V30 8630 H 814.986 -0.357345 -2.01455 0
M  V30 8631 H 814.996 1.20356 -3.89844 0
M  V30 8632 H 813.671 0.0808639 -4.15821 0
M  V30 8633 H 812.248 1.70689 -3.31541 0
M  V30 8634 N 814.433 1.57553 0.0384317 0
M  V30 8635 C 815.682 1.88022 0.730108 0
M  V30 8636 C 815.995 0.83209 1.77019 0
M  V30 8637 O 817.201 1.0257 2.51379 0
M  V30 8638 C 815.657 3.33637 1.3496 0
M  V30 8639 C 815.265 4.46659 0.346352 0
M  V30 8640 C 817.009 3.73266 2.02169 0
M  V30 8641 C 814.916 5.8333 0.973652 0
M  V30 8642 H 813.846 0.701496 0.276442 0
M  V30 8643 H 816.497 1.83493 -0.0158028 0
M  V30 8644 H 814.879 3.32882 2.1449 0
M  V30 8645 H 816.053 4.58868 -0.421558 0
M  V30 8646 H 814.368 4.15802 -0.223133 0
M  V30 8647 H 816.965 4.72689 2.49938 0
M  V30 8648 H 817.308 3.04776 2.8358 0
M  V30 8649 H 817.841 3.76156 1.29427 0
M  V30 8650 H 814.58 6.55197 0.199163 0
M  V30 8651 H 814.1 5.7486 1.71162 0
M  V30 8652 H 815.779 6.29757 1.48376 0
M  V30 8653 N 815.911 -0.310526 1.54511 0
M  V30 8654 C 817.141 -1.06456 1.77061 0
M  V30 8655 C 817.549 -1.81755 0.525528 0
M  V30 8656 O 816.892 -1.76365 -0.513904 0
M  V30 8657 C 816.954 -2.09856 2.91892 0
M  V30 8658 C 816.618 -1.53838 4.30329 0
M  V30 8659 C 817.615 -0.973358 5.10707 0
M  V30 8660 C 815.3 -1.57688 4.76906 0
M  V30 8661 C 817.294 -0.454283 6.35779 0
M  V30 8662 C 814.981 -1.05393 6.01943 0
M  V30 8663 C 815.979 -0.493595 6.81214 0
M  V30 8664 O 815.667 0.0214506 8.03897 0
M  V30 8665 H 815.399 -0.321913 0.594431 0
M  V30 8666 H 817.953 -0.358289 2.02251 0
M  V30 8667 H 816.183 -2.84137 2.62304 0
M  V30 8668 H 817.872 -2.71085 3.02106 0
M  V30 8669 H 818.638 -0.936588 4.75871 0
M  V30 8670 H 814.517 -2.00242 4.1524 0
M  V30 8671 H 818.061 -0.0162657 6.97598 0
M  V30 8672 H 813.958 -1.08782 6.36268 0
M  V30 8673 H 814.726 -0.0927478 8.18447 0
M  V30 8674 N 817.389 -1.46805 -0.573248 0
M  V30 8675 C 818.666 -1.43082 -1.33368 0
M  V30 8676 C 819.046 -0.119252 -2.10763 0
M  V30 8677 O 818.394 0.899239 -2.10062 0
M  V30 8678 C 818.604 -2.66643 -2.25172 0
M  V30 8679 C 819.952 -3.13188 -2.86702 0
M  V30 8680 O 820.976 -2.67258 -2.35482 0
M  V30 8681 O 819.835 -3.92994 -3.79761 0
M  V30 8682 H 816.929 -0.569451 -0.599712 0
M  V30 8683 H 819.475 -1.58984 -0.59348 0
M  V30 8684 H 818.247 -3.53649 -1.67475 0
M  V30 8685 H 817.87 -2.53247 -3.06516 0
M  V30 8686 N 818.867 0.818669 -1.34668 0
M  V30 8687 C 820.115 1.57201 -1.27013 0
M  V30 8688 C 820.436 1.94354 0.158599 0
M  V30 8689 O 819.706 1.62626 1.09223 0
M  V30 8690 H 818.286 0.582919 -0.467135 0
M  V30 8691 H 820.948 0.977234 -1.6863 0
M  V30 8692 H 820.044 2.49291 -1.87778 0
M  V30 8693 N 820.346 1.18468 1.03938 0
M  V30 8694 C 821.757 0.984808 1.58614 0
M  V30 8695 C 822.108 -0.465165 1.90606 0
M  V30 8696 O 821.233 -1.34274 1.69704 0
M  V30 8697 C 821.828 1.78135 2.8819 0
M  V30 8698 C 820.387 1.62579 3.39478 0
M  V30 8699 C 819.534 1.77501 2.13046 0
M  V30 8700 H 822.485 1.32993 0.865944 0
M  V30 8701 H 822.506 1.27119 3.58638 0
M  V30 8702 H 822.018 2.83661 2.64874 0
M  V30 8703 H 820.119 0.59595 3.67803 0
M  V30 8704 H 820.232 2.42463 4.13217 0
M  V30 8705 H 818.596 1.2046 2.24414 0
M  V30 8706 H 819.379 2.84464 1.92185 0
M  V30 8707 N 821.824 -1.22873 0.986916 0
M  V30 8708 C 822.734 -2.28277 0.540978 0
M  V30 8709 C 823.75 -1.69164 -0.407363 0
M  V30 8710 O 824.926 -1.99504 -0.275674 0
M  V30 8711 C 821.991 -3.46404 -0.143181 0
M  V30 8712 C 821.052 -4.20854 0.847375 0
M  V30 8713 C 820.285 -5.33341 0.19577 0
M  V30 8714 O 820.508 -5.61356 -1.0117 0
M  V30 8715 O 819.442 -5.95169 0.897623 0
M  V30 8716 H 823.268 -2.68578 1.41773 0
M  V30 8717 H 820.853 -1.28927 0.754867 0
M  V30 8718 H 822.735 -4.18096 -0.526676 0
M  V30 8719 H 821.41 -3.08041 -0.994593 0
M  V30 8720 H 820.317 -3.51459 1.28169 0
M  V30 8721 H 821.65 -4.63082 1.6678 0
M  V30 8722 N 823.302 -0.75937 -1.38099 0
M  V30 8723 C 824.234 -0.0956547 -2.29 0
M  V30 8724 C 825.247 0.677561 -1.4803 0
M  V30 8725 O 826.436 0.517696 -1.70828 0
M  V30 8726 C 823.536 0.88844 -3.27047 0
M  V30 8727 C 822.709 0.171652 -4.37063 0
M  V30 8728 C 821.768 1.06733 -5.15262 0
M  V30 8729 O 820.794 0.535698 -5.66674 0
M  V30 8730 N 821.996 2.39486 -5.28797 0
M  V30 8731 H 824.761 -0.876354 -2.86601 0
M  V30 8732 H 822.322 -0.61065 -1.49942 0
M  V30 8733 H 824.314 1.49079 -3.76241 0
M  V30 8734 H 822.884 1.57018 -2.70304 0
M  V30 8735 H 822.104 -0.611473 -3.89429 0
M  V30 8736 H 823.392 -0.324121 -5.07767 0
M  V30 8737 H 822.79 2.85127 -4.88589 0
M  V30 8738 H 821.347 2.94758 -5.81344 0
M  V30 8739 N 824.78 1.49157 -0.508906 0
M  V30 8740 C 826.196 1.58741 -0.165372 0
M  V30 8741 C 826.396 1.5133 1.33047 0
M  V30 8742 O 825.452 1.39135 2.10707 0
M  V30 8743 C 826.765 2.91217 -0.749194 0
M  V30 8744 C 828.313 3.047 -0.716015 0
M  V30 8745 C 828.788 4.39807 -1.27804 0
M  V30 8746 N 830.279 4.46319 -1.23908 0
M  V30 8747 C 831.014 5.49325 -1.64406 0
M  V30 8748 N 830.51 6.59395 -2.12534 0
M  V30 8749 N 832.303 5.40084 -1.55773 0
M  V30 8750 H 824.454 1.52217 -1.48134 0
M  V30 8751 H 826.717 0.721514 -0.614915 0
M  V30 8752 H 826.423 3.02233 -1.79856 0
M  V30 8753 H 826.297 3.76592 -0.214144 0
M  V30 8754 H 828.684 2.9331 0.324535 0
M  V30 8755 H 828.765 2.2099 -1.2883 0
M  V30 8756 H 828.409 4.5195 -2.31741 0
M  V30 8757 H 828.339 5.2217 -0.681623 0
M  V30 8758 H 830.83 3.67354 -0.886537 0
M  V30 8759 H 831.143 7.34102 -2.41485 0
M  V30 8760 H 829.488 6.60414 -2.16513 0
M  V30 8761 H 832.679 4.52986 -1.17987 0
M  V30 8762 H 832.852 6.20233 -1.87657 0
M  V30 8763 N 826.258 0.243083 1.55714 0
M  V30 8764 C 827.505 -0.38272 1.9885 0
M  V30 8765 C 827.833 -1.58225 1.13115 0
M  V30 8766 O 827.088 -1.94861 0.181067 0
M  V30 8767 C 827.387 -0.839621 3.47398 0
M  V30 8768 C 827.053 0.251737 4.50197 0
M  V30 8769 C 825.715 0.551487 4.78029 0
M  V30 8770 C 828.067 0.988728 5.11736 0
M  V30 8771 C 825.395 1.59237 5.64677 0
M  V30 8772 C 827.747 2.0191 5.99512 0
M  V30 8773 C 826.411 2.32554 6.2568 0
M  V30 8774 H 825.681 -0.140047 0.727645 0
M  V30 8775 H 828.328 0.35011 1.88272 0
M  V30 8776 H 826.633 -1.65159 3.55288 0
M  V30 8777 H 828.33 -1.33404 3.78159 0
M  V30 8778 H 824.92 0.00796741 4.28599 0
M  V30 8779 H 829.104 0.7704 4.90284 0
M  V30 8780 H 824.36 1.83517 5.83208 0
M  V30 8781 H 828.534 2.59511 6.46241 0
M  V30 8782 H 826.161 3.13349 6.92616 0
M  V30 8783 N 827.736 -1.57571 -0.0300757 0
M  V30 8784 C 828.976 -1.91074 -0.725946 0
M  V30 8785 C 829.34 -0.841545 -1.72575 0
M  V30 8786 O 830.541 -1.06088 -2.46979 0
M  V30 8787 C 828.812 -3.2973 -1.37888 0
M  V30 8788 S 830.371 -3.85065 -2.10405 0
M  V30 8789 H 827.189 -0.669084 -0.240515 0
M  V30 8790 H 829.791 -1.9549 0.019384 0
M  V30 8791 H 828.495 -4.05411 -0.637974 0
M  V30 8792 H 828.026 -3.28614 -2.16278 0
M  V30 8793 H 830.041 -3.63711 -3.37533 0
M  V30 8794 N 829.214 0.302327 -1.54673 0
M  V30 8795 C 830.625 0.875409 -1.64904 0
M  V30 8796 C 830.976 1.88132 -0.55684 0
M  V30 8797 O 830.101 2.14215 0.306754 0
M  V30 8798 C 830.696 1.59457 -2.9893 0
M  V30 8799 C 829.255 2.11607 -3.11287 0
M  V30 8800 C 828.402 0.948324 -2.6058 0
M  V30 8801 H 831.353 0.079362 -1.58501 0
M  V30 8802 H 831.374 2.46005 -2.90279 0
M  V30 8803 H 830.886 0.8622 -3.78402 0
M  V30 8804 H 828.987 2.87895 -2.36532 0
M  V30 8805 H 829.1 2.35151 -4.17422 0
M  V30 8806 H 827.464 1.33352 -2.17001 0
M  V30 8807 H 828.247 0.229936 -3.42529 0
M  V30 8808 N 830.692 1.47107 0.565454 0
M  V30 8809 C 831.655 1.58535 1.65527 0
M  V30 8810 C 832.655 0.461081 1.54048 0
M  V30 8811 O 833.845 0.725911 1.58355 0
M  V30 8812 C 830.977 1.52204 3.05036 0
M  V30 8813 H 832.17 2.55676 1.56747 0
M  V30 8814 H 829.723 1.35174 0.78471 0
M  V30 8815 H 830.458 0.564071 3.19357 0
M  V30 8816 H 830.243 2.3379 3.14777 0
M  V30 8817 H 831.733 1.63322 3.84338 0
M  V30 8818 N 832.17 -0.811516 1.35101 0
M  V30 8819 C 833.418 -1.56525 1.27845 0
M  V30 8820 C 833.739 -1.94435 -0.14829 0
M  V30 8821 O 833.009 -1.63203 -1.08359 0
M  V30 8822 H 831.589 -0.580433 0.47022 0
M  V30 8823 H 834.251 -0.968277 1.69146 0
M  V30 8824 H 833.347 -2.48291 1.89097 0
M  V30 8825 N 833.648 -1.19017 -1.03309 0
M  V30 8826 C 834.894 -0.991681 -1.769 0
M  V30 8827 C 835.227 0.476813 -1.88255 0
M  V30 8828 O 834.502 1.35407 -1.39625 0
M  V30 8829 C 834.785 -1.65627 -3.19749 0
M  V30 8830 C 834.638 -3.19813 -3.1629 0
M  V30 8831 C 835.957 -1.37579 -4.18043 0
M  V30 8832 H 833.076 -0.361674 -0.642153 0
M  V30 8833 H 835.718 -1.46795 -1.20628 0
M  V30 8834 H 833.868 -1.25132 -3.67796 0
M  V30 8835 H 835.54 -3.69494 -2.76174 0
M  V30 8836 H 833.783 -3.51578 -2.54117 0
M  V30 8837 H 834.454 -3.61457 -4.17196 0
M  V30 8838 H 836.93 -1.72679 -3.78578 0
M  V30 8839 H 835.806 -1.86636 -5.16196 0
M  V30 8840 H 836.067 -0.300118 -4.4108 0
M  V30 8841 N 835.127 1.22348 -0.993418 0
M  V30 8842 C 836.357 1.94842 -0.687023 0
M  V30 8843 C 836.765 1.73594 0.752445 0
M  V30 8844 O 836.108 1.03238 1.51946 0
M  V30 8845 C 836.17 3.47694 -0.913754 0
M  V30 8846 C 835.834 3.92678 -2.33781 0
M  V30 8847 C 836.831 4.0031 -3.31734 0
M  V30 8848 C 834.516 4.25311 -2.67237 0
M  V30 8849 C 836.51 4.39951 -4.61218 0
M  V30 8850 C 834.197 4.64631 -3.9694 0
M  V30 8851 C 835.195 4.71919 -4.93742 0
M  V30 8852 O 834.883 5.10349 -6.21127 0
M  V30 8853 H 834.615 0.626771 -0.253247 0
M  V30 8854 H 837.169 1.56436 -1.33105 0
M  V30 8855 H 835.399 3.86115 -0.212552 0
M  V30 8856 H 837.088 4.01403 -0.602528 0
M  V30 8857 H 837.854 3.75288 -3.07219 0
M  V30 8858 H 833.733 4.18842 -1.92594 0
M  V30 8859 H 837.277 4.45555 -5.36774 0
M  V30 8860 H 833.174 4.89104 -4.21245 0
M  V30 8861 H 833.942 5.2842 -6.25072 0
M  V30 8862 N 836.605 0.766683 1.37694 0
M  V30 8863 C 837.515 0.150158 2.34119 0
M  V30 8864 C 838.531 -0.685513 1.59927 0
M  V30 8865 O 839.707 -0.606616 1.92047 0
M  V30 8866 C 836.772 -0.722562 3.39087 0
M  V30 8867 C 835.833 0.128983 4.29106 0
M  V30 8868 C 835.066 -0.702178 5.29061 0
M  V30 8869 O 835.289 -1.93954 5.36412 0
M  V30 8870 O 834.223 -0.114056 6.01792 0
M  V30 8871 H 838.049 0.946829 2.88563 0
M  V30 8872 H 835.634 0.527765 1.39768 0
M  V30 8873 H 837.516 -1.22095 4.03325 0
M  V30 8874 H 836.191 -1.49751 2.86978 0
M  V30 8875 H 835.098 0.673612 3.67985 0
M  V30 8876 H 836.431 0.866892 4.84506 0
M  V30 8877 N 838.083 -1.48885 0.516809 0
M  V30 8878 C 839.33 -2.02488 -0.0220602 0
M  V30 8879 C 839.658 -1.39513 -1.35523 0
M  V30 8880 O 838.913 -0.52558 -1.8851 0
M  V30 8881 C 839.212 -3.56801 -0.206798 0
M  V30 8882 C 838.878 -4.38496 1.05035 0
M  V30 8883 C 837.54 -4.60538 1.39492 0
M  V30 8884 C 839.892 -4.85909 1.88525 0
M  V30 8885 C 837.22 -5.2724 2.57361 0
M  V30 8886 C 839.572 -5.53909 3.05561 0
M  V30 8887 C 838.236 -5.74193 3.4038 0
M  V30 8888 H 837.506 -0.740956 -0.00807238 0
M  V30 8889 H 840.153 -1.79014 0.680168 0
M  V30 8890 H 838.458 -3.79042 -0.991687 0
M  V30 8891 H 840.155 -3.95885 -0.638447 0
M  V30 8892 H 836.745 -4.2159 0.771984 0
M  V30 8893 H 840.929 -4.68694 1.63218 0
M  V30 8894 H 836.185 -5.41145 2.84556 0
M  V30 8895 H 840.359 -5.89619 3.7057 0
M  V30 8896 H 837.986 -6.25652 4.31814 0
M  V30 8897 N 839.561 -0.251338 -1.55583 0
M  V30 8898 C 840.807 0.37272 -1.99346 0
M  V30 8899 C 841.14 1.57266 -1.13934 0
M  V30 8900 O 840.415 1.9343 -0.20377 0
M  V30 8901 C 840.698 0.778245 -3.5159 0
M  V30 8902 C 840.551 -0.427394 -4.47765 0
M  V30 8903 C 841.87 1.62358 -4.09057 0
M  V30 8904 H 838.989 0.134002 -0.724715 0
M  V30 8905 H 841.631 -0.353536 -1.86682 0
M  V30 8906 H 839.781 1.39704 -3.62512 0
M  V30 8907 H 841.453 -1.06586 -4.48818 0
M  V30 8908 H 839.696 -1.06972 -4.20404 0
M  V30 8909 H 840.367 -0.10025 -5.51909 0
M  V30 8910 H 842.843 1.1012 -4.01264 0
M  V30 8911 H 841.719 1.87617 -5.1584 0
M  V30 8912 H 841.98 2.59688 -3.57791 0
M  V30 8913 N 841.039 1.57585 0.0217189 0
M  V30 8914 C 842.45 1.7787 0.567377 0
M  V30 8915 C 842.801 0.883337 1.7519 0
M  V30 8916 O 841.926 0.0800819 2.16252 0
M  V30 8917 C 842.521 3.2257 1.03606 0
M  V30 8918 C 841.08 3.44026 1.52718 0
M  V30 8919 C 840.227 2.73313 0.468545 0
M  V30 8920 H 843.178 1.57377 -0.2045 0
M  V30 8921 H 843.199 3.29488 1.9031 0
M  V30 8922 H 842.711 3.87711 0.173739 0
M  V30 8923 H 840.812 2.8407 2.41111 0
M  V30 8924 H 840.925 4.52659 1.56962 0
M  V30 8925 H 839.289 2.37299 0.925263 0
M  V30 8926 H 840.072 3.41141 -0.384438 0
M  V30 8927 N 842.517 -0.29412 1.54831 0
M  V30 8928 C 843.763 -1.02999 1.74697 0
M  V30 8929 C 844.096 -1.86687 0.534949 0
M  V30 8930 O 843.371 -1.88789 -0.467863 0
M  V30 8931 C 843.654 -1.93024 3.03996 0
M  V30 8932 C 843.507 -1.1247 4.35512 0
M  V30 8933 C 844.826 -2.92085 3.29203 0
M  V30 8934 H 841.945 -0.373039 0.635618 0
M  V30 8935 H 844.587 -0.304065 1.87551 0
M  V30 8936 H 842.737 -2.5492 2.93169 0
M  V30 8937 H 844.409 -0.528067 4.58268 0
M  V30 8938 H 842.652 -0.427574 4.31688 0
M  V30 8939 H 843.323 -1.78728 5.22265 0
M  V30 8940 H 845.799 -2.40319 3.39685 0
M  V30 8941 H 844.675 -3.52234 4.20978 0
M  V30 8942 H 844.936 -3.66107 2.47827 0
M  V30 8943 N 843.995 -1.47404 -0.557645 0
M  V30 8944 C 844.905 -1.62491 -1.69216 0
M  V30 8945 C 845.921 -0.507764 -1.66426 0
M  V30 8946 O 847.097 -0.775241 -1.85882 0
M  V30 8947 C 844.162 -1.63511 -3.05721 0
M  V30 8948 C 843.223 -2.86648 -3.1958 0
M  V30 8949 C 842.456 -2.87609 -4.49574 0
M  V30 8950 O 842.679 -1.97799 -5.35006 0
M  V30 8951 O 841.613 -3.79465 -4.67215 0
M  V30 8952 H 845.439 -2.58487 -1.59431 0
M  V30 8953 H 843.024 -1.30485 -0.7276 0
M  V30 8954 H 844.906 -1.66863 -3.86956 0
M  V30 8955 H 843.581 -0.706812 -3.15889 0
M  V30 8956 H 842.488 -2.8884 -2.37744 0
M  V30 8957 H 843.821 -3.7877 -3.14316 0
M  V30 8958 N 845.473 0.80434 -1.35529 0
M  V30 8959 C 846.405 1.92445 -1.2449 0
M  V30 8960 C 847.418 1.61934 -0.167685 0
M  V30 8961 O 848.607 1.73461 -0.42115 0
M  V30 8962 C 845.707 3.26875 -0.894751 0
M  V30 8963 C 844.88 3.85275 -2.07079 0
M  V30 8964 C 843.939 4.98116 -1.69607 0
M  V30 8965 O 842.965 5.15424 -2.41509 0
M  V30 8966 N 844.167 5.77169 -0.621012 0
M  V30 8967 H 846.932 2.02441 -2.20993 0
M  V30 8968 H 844.493 0.981874 -1.28728 0
M  V30 8969 H 846.485 3.99837 -0.625511 0
M  V30 8970 H 845.055 3.12594 -0.0193306 0
M  V30 8971 H 844.275 3.0448 -2.5037 0
M  V30 8972 H 845.563 4.21024 -2.85685 0
M  V30 8973 H 844.961 5.65695 -0.0236679 0
M  V30 8974 H 843.518 6.50499 -0.411558 0
M  V30 8975 N 846.951 1.19563 1.02676 0
M  V30 8976 C 848.199 0.997593 1.75763 0
M  V30 8977 C 848.52 -0.47253 1.89188 0
M  V30 8978 O 847.79 -1.34214 1.42701 0
M  V30 8979 H 846.37 0.366128 0.651122 0
M  V30 8980 H 849.032 1.50495 1.23844 0
M  V30 8981 H 848.128 1.44741 2.76508 0
M  V30 8982 N 848.429 -1.21819 0.999893 0
M  V30 8983 C 849.706 -1.86318 0.595384 0
M  V30 8984 C 850.086 -1.8965 -0.927143 0
M  V30 8985 O 849.434 -1.3921 -1.81199 0
M  V30 8986 C 849.644 -3.26837 1.22387 0
M  V30 8987 C 850.992 -4.03272 1.32878 0
M  V30 8988 O 852.016 -3.36129 1.1788 0
M  V30 8989 O 850.875 -5.23477 1.56952 0
M  V30 8990 H 847.969 -0.801638 0.203238 0
M  V30 8991 H 850.515 -1.29542 1.09622 0
M  V30 8992 H 849.287 -3.19084 2.26497 0
M  V30 8993 H 848.91 -3.91226 0.709069 0
M  V30 8994 N 849.908 -0.773975 -1.37286 0
M  V30 8995 C 851.156 -0.338636 -1.99243 0
M  V30 8996 C 851.477 1.08919 -1.61746 0
M  V30 8997 O 850.747 1.74822 -0.88397 0
M  V30 8998 H 849.327 -0.12222 -0.736934 0
M  V30 8999 H 851.989 -0.992595 -1.67731 0
M  V30 9000 H 851.085 -0.418055 -3.09287 0
M  V30 9001 N 851.386 1.48609 -0.524698 0
M  V30 9002 C 852.633 2.02497 0.0113214 0
M  V30 9003 C 852.961 1.40229 1.34781 0
M  V30 9004 O 852.216 0.53557 1.88229 0
M  V30 9005 C 852.515 3.56906 0.187873 0
M  V30 9006 C 852.181 4.37932 -1.07359 0
M  V30 9007 C 850.843 4.59792 -1.41933 0
M  V30 9008 C 853.195 4.84902 -1.911 0
M  V30 9009 C 850.523 5.25868 -2.60154 0
M  V30 9010 C 852.875 5.52281 -3.08495 0
M  V30 9011 C 851.539 5.7238 -3.4342 0
M  V30 9012 H 850.809 0.740988 0.0041428 0
M  V30 9013 H 853.456 1.78651 -0.689652 0
M  V30 9014 H 851.761 3.79563 0.971572 0
M  V30 9015 H 853.458 3.96218 0.617443 0
M  V30 9016 H 850.048 4.21175 -0.794331 0
M  V30 9017 H 854.232 4.67821 -1.65701 0
M  V30 9018 H 849.488 5.39628 -2.87422 0
M  V30 9019 H 853.662 5.87645 -3.73692 0
M  V30 9020 H 851.289 6.23354 -4.35126 0
M  V30 9021 N 852.864 0.259585 1.55447 0
M  V30 9022 C 854.28 -0.094961 1.59317 0
M  V30 9023 C 854.48 -1.55884 1.2768 0
M  V30 9024 O 853.536 -2.30528 1.0302 0
M  V30 9025 C 854.849 0.265669 2.99524 0
M  V30 9026 C 856.397 0.211007 3.12288 0
M  V30 9027 C 856.872 0.545851 4.54736 0
M  V30 9028 N 858.363 0.496823 4.60528 0
M  V30 9029 C 859.098 0.728909 5.68748 0
M  V30 9030 N 858.594 1.02479 6.85179 0
M  V30 9031 N 860.387 0.658756 5.58226 0
M  V30 9032 H 852.538 1.2141 1.7428 0
M  V30 9033 H 854.801 0.489404 0.811904 0
M  V30 9034 H 854.507 1.28316 3.27457 0
M  V30 9035 H 854.381 -0.401089 3.75061 0
M  V30 9036 H 856.768 -0.797172 2.84129 0
M  V30 9037 H 856.849 0.911799 2.38998 0
M  V30 9038 H 856.493 1.55164 4.83618 0
M  V30 9039 H 856.423 -0.17656 5.26304 0
M  V30 9040 H 858.914 0.277376 3.76881 0
M  V30 9041 H 859.227 1.18897 7.63599 0
M  V30 9042 H 857.572 1.0624 6.86832 0
M  V30 9043 H 860.763 0.427553 4.66143 0
M  V30 9044 H 860.936 0.84302 6.42493 0
M  V30 9045 N 854.342 -1.57594 -0.0133615 0
M  V30 9046 C 855.272 -2.10611 -1.00823 0
M  V30 9047 C 856.253 -1.01217 -1.36708 0
M  V30 9048 O 857.438 -1.28827 -1.45318 0
M  V30 9049 C 854.568 -2.59844 -2.30431 0
M  V30 9050 C 853.522 -3.73644 -2.08745 0
M  V30 9051 C 852.848 -4.09141 -3.4425 0
M  V30 9052 C 854.148 -5.01454 -1.46086 0
M  V30 9053 H 855.842 -2.93985 -0.566849 0
M  V30 9054 H 853.388 -1.41423 -0.271219 0
M  V30 9055 H 855.341 -2.95557 -3.00373 0
M  V30 9056 H 854.065 -1.73573 -2.76658 0
M  V30 9057 H 852.724 -3.38303 -1.41232 0
M  V30 9058 H 852.372 -3.19914 -3.88155 0
M  V30 9059 H 852.072 -4.85802 -3.3056 0
M  V30 9060 H 853.596 -4.47402 -4.15528 0
M  V30 9061 H 855.01 -5.35024 -2.05966 0
M  V30 9062 H 853.407 -5.82832 -1.42924 0
M  V30 9063 H 854.477 -4.83003 -0.428471 0
M  V30 9064 N 855.82 0.285905 -1.54985 0
M  V30 9065 C 856.752 1.37505 -1.83371 0
M  V30 9066 C 857.765 1.46138 -0.717454 0
M  V30 9067 O 858.954 1.48186 -0.995142 0
M  V30 9068 C 856.054 2.7575 -1.97016 0
M  V30 9069 C 855.227 2.89866 -3.27561 0
M  V30 9070 C 854.286 4.08704 -3.31433 0
M  V30 9071 O 853.312 4.00073 -4.04883 0
M  V30 9072 N 854.514 5.20062 -2.57907 0
M  V30 9073 H 857.279 1.13505 -2.77375 0
M  V30 9074 H 854.84 0.476006 -1.54744 0
M  V30 9075 H 856.832 3.5352 -1.96991 0
M  V30 9076 H 855.402 2.9263 -1.09938 0
M  V30 9077 H 854.622 1.99085 -3.40234 0
M  V30 9078 H 855.91 2.96219 -4.13681 0
M  V30 9079 H 855.308 5.29958 -1.97891 0
M  V30 9080 H 853.865 5.96111 -2.63619 0
M  V30 9081 N 857.298 1.47698 0.54982 0
M  V30 9082 C 858.547 1.53961 1.30303 0
M  V30 9083 C 858.86 0.209731 1.94472 0
M  V30 9084 O 860.066 0.150418 2.71083 0
M  V30 9085 C 858.522 2.71436 2.36328 0
M  V30 9086 C 858.13 4.10983 1.78316 0
M  V30 9087 C 859.874 2.86996 3.12783 0
M  V30 9088 C 857.781 5.19747 2.82164 0
M  V30 9089 H 856.711 0.573098 0.489975 0
M  V30 9090 H 859.362 1.73989 0.583089 0
M  V30 9091 H 857.744 2.44801 3.11269 0
M  V30 9092 H 858.918 4.47552 1.09697 0
M  V30 9093 H 857.233 4.00371 1.1442 0
M  V30 9094 H 859.83 3.65422 3.90347 0
M  V30 9095 H 860.173 1.95712 3.67427 0
M  V30 9096 H 860.706 3.13436 2.44954 0
M  V30 9097 H 857.445 6.12932 2.32366 0
M  V30 9098 H 856.965 4.87688 3.49171 0
M  V30 9099 H 858.644 5.47014 3.4552 0
M  V30 9100 N 858.776 -0.797141 1.35954 0
M  V30 9101 C 859.724 -1.93084 1.29697 0
M  V30 9102 C 860.718 -1.68329 0.190152 0
M  V30 9103 O 861.924 -1.7643 0.3567 0
M  V30 9104 H 858.299 -0.634531 0.403577 0
M  V30 9105 H 860.27 -1.95481 2.25455 0
M  V30 9106 C 859.019 -3.29996 1.09536 0
M  V30 9107 H 858.342 -3.49607 1.93946 0
M  V30 9108 H 859.782 -4.09696 1.09202 0
M  V30 9109 C 858.241 -3.36304 -0.200381 0
M  V30 9110 O 858.771 -3.83579 -1.19291 0
M  V30 9111 N 856.977 -2.89587 -0.242406 0
M  V30 9112 H 856.524 -2.51307 0.565897 0
M  V30 9113 H 856.482 -2.94189 -1.10906 0
M  V30 9114 N 860.254 -1.20106 -1.0204 0
M  V30 9115 C 861.217 -0.948261 -2.08664 0
M  V30 9116 C 862.217 0.0746753 -1.60627 0
M  V30 9117 O 863.407 -0.160981 -1.73455 0
M  V30 9118 C 860.539 -0.426854 -3.38217 0
M  V30 9119 H 861.732 -1.894 -2.32524 0
M  V30 9120 H 859.285 -1.0159 -1.18782 0
M  V30 9121 H 860.02 0.524532 -3.2003 0
M  V30 9122 H 859.805 -1.16451 -3.74408 0
M  V30 9123 H 861.295 -0.269346 -4.1673 0
M  V30 9124 N 861.732 1.21287 -1.00634 0
M  V30 9125 C 862.664 2.2308 -0.526094 0
M  V30 9126 C 863.677 1.58157 0.386031 0
M  V30 9127 O 864.866 1.77528 0.186016 0
M  V30 9128 C 861.966 3.37937 0.255289 0
M  V30 9129 C 861.139 4.32449 -0.656236 0
M  V30 9130 C 860.198 5.26145 0.0757714 0
M  V30 9131 O 859.224 5.66601 -0.543325 0
M  V30 9132 N 860.426 5.6449 1.35391 0
M  V30 9133 H 863.191 2.64913 -1.40147 0
M  V30 9134 H 860.752 1.35724 -0.882641 0
M  V30 9135 H 862.744 3.97614 0.753977 0
M  V30 9136 H 861.314 2.95078 1.03187 0
M  V30 9137 H 860.534 3.70892 -1.3354 0
M  V30 9138 H 861.822 4.92526 -1.27653 0
M  V30 9139 H 861.22 5.33617 1.878 0
M  V30 9140 H 859.777 6.26524 1.79753 0
M  V30 9141 N 863.21 0.781244 1.36873 0
M  V30 9142 C 864.158 0.161889 2.32036 0
M  V30 9143 C 865.152 -0.674225 1.55405 0
M  V30 9144 O 866.358 -0.570223 1.70729 0
M  V30 9145 H 862.733 0.0335702 0.75125 0
M  V30 9146 H 864.704 0.980078 2.81846 0
M  V30 9147 C 863.453 -0.695352 3.40676 0
M  V30 9148 H 862.776 -0.0613425 3.99753 0
M  V30 9149 H 864.216 -1.09553 4.09602 0
M  V30 9150 C 862.675 -1.85008 2.81556 0
M  V30 9151 O 863.205 -2.94616 2.73065 0
M  V30 9152 N 861.411 -1.65364 2.38962 0
M  V30 9153 H 860.958 -0.762106 2.46068 0
M  V30 9154 H 860.916 -2.42789 1.99752 0
M  V30 9155 N 864.689 -1.48329 0.532571 0
M  V30 9156 C 865.929 -2.044 0.00145618 0
M  V30 9157 C 866.293 -1.40053 -1.31336 0
M  V30 9158 O 867.494 -1.87026 -1.93066 0
M  V30 9159 C 865.765 -3.57214 -0.115376 0
M  V30 9160 S 867.324 -4.34731 -0.59618 0
M  V30 9161 H 864.142 -0.710876 0.0133038 0
M  V30 9162 H 866.744 -1.82006 0.71372 0
M  V30 9163 H 865.448 -4.01579 0.846335 0
M  V30 9164 H 864.979 -3.84065 -0.85194 0
M  V30 9165 H 866.994 -4.6001 -1.86025 0
M  V30 9166 N 866.167 -0.267825 -1.55308 0
M  V30 9167 C 867.413 0.351556 -1.9973 0
M  V30 9168 C 867.746 1.56049 -1.15596 0
M  V30 9169 O 867.021 1.93203 -0.224274 0
M  V30 9170 C 867.304 0.74091 -3.52395 0
M  V30 9171 C 867.157 -0.474861 -4.47286 0
M  V30 9172 C 868.476 1.5801 -4.10756 0
M  V30 9173 H 865.595 0.126308 -0.726096 0
M  V30 9174 H 868.237 -0.373316 -1.86296 0
M  V30 9175 H 866.387 1.35851 -3.63973 0
M  V30 9176 H 868.059 -1.1134 -4.47662 0
M  V30 9177 H 866.302 -1.11425 -4.19246 0
M  V30 9178 H 866.973 -0.158782 -5.51772 0
M  V30 9179 H 869.449 1.05857 -4.0241 0
M  V30 9180 H 868.325 1.82135 -5.17801 0
M  V30 9181 H 868.586 2.55878 -3.60526 0
M  V30 9182 N 867.645 1.57599 0.00500368 0
M  V30 9183 C 868.595 2.04585 1.00643 0
M  V30 9184 C 869.579 0.939622 1.30614 0
M  V30 9185 O 870.771 1.20342 1.29796 0
M  V30 9186 C 867.9 2.5486 2.30002 0
M  V30 9187 C 866.986 3.7235 2.03017 0
M  V30 9188 N 867.377 4.84218 1.46173 0
M  V30 9189 C 865.675 3.80185 2.33185 0
M  V30 9190 C 866.376 5.65688 1.35544 0
M  V30 9191 N 865.352 5.11536 1.83933 0
M  V30 9192 H 869.154 2.8849 0.561332 0
M  V30 9193 H 866.668 1.61026 0.210808 0
M  V30 9194 H 868.665 2.86794 3.0258 0
M  V30 9195 H 867.325 1.72372 2.75169 0
M  V30 9196 H 868.336 5.0517 1.1412 0
M  V30 9197 H 865.013 3.08543 2.81261 0
M  V30 9198 H 866.403 6.65588 0.918791 0
M  V30 9199 N 869.123 -0.277682 1.55134 0
M  V30 9200 C 870.363 -1.01761 1.77269 0
M  V30 9201 C 870.727 -1.83668 0.559465 0
M  V30 9202 O 871.928 -2.60597 0.658972 0
M  V30 9203 C 870.199 -1.88062 3.0392 0
M  V30 9204 S 871.758 -2.68383 3.47154 0
M  V30 9205 H 868.576 -0.342816 0.622895 0
M  V30 9206 H 871.178 -0.288514 1.93359 0
M  V30 9207 H 869.882 -1.26805 3.90319 0
M  V30 9208 H 869.413 -2.65299 2.90482 0
M  V30 9209 H 871.428 -3.90567 3.06059 0
M  V30 9210 N 870.601 -1.47988 -0.541979 0
M  V30 9211 C 871.548 -1.61615 -1.6477 0
M  V30 9212 C 872.518 -0.458602 -1.59644 0
M  V30 9213 O 873.703 -0.680585 -1.78249 0
M  V30 9214 C 870.843 -1.65066 -3.03063 0
M  V30 9215 C 869.956 -2.91845 -3.18513 0
M  V30 9216 C 869.091 -2.86534 -4.47294 0
M  V30 9217 C 868.13 -4.0807 -4.5623 0
M  V30 9218 N 867.267 -4.00905 -5.76385 0
M  V30 9219 H 872.107 -2.56046 -1.52461 0
M  V30 9220 H 869.644 -1.26989 -0.742449 0
M  V30 9221 H 871.602 -1.65049 -3.83164 0
M  V30 9222 H 870.232 -0.74136 -3.14171 0
M  V30 9223 H 869.284 -3.01661 -2.31743 0
M  V30 9224 H 870.596 -3.81804 -3.20978 0
M  V30 9225 H 869.75 -2.84851 -5.35672 0
M  V30 9226 H 868.489 -1.94283 -4.47332 0
M  V30 9227 H 867.494 -4.10041 -3.66261 0
M  V30 9228 H 868.719 -5.01465 -4.5794 0
M  V30 9229 H 866.665 -3.11467 -5.77342 0
M  V30 9230 H 866.582 -4.84557 -5.80293 0
M  V30 9231 H 867.85 -4.03263 -6.67083 0
M  V30 9232 N 872.079 0.78992 -1.36375 0
M  V30 9233 C 873.307 1.57873 -1.3373 0
M  V30 9234 C 873.722 1.88624 0.0815544 0
M  V30 9235 O 873.079 1.50085 1.03831 0
M  V30 9236 C 873.13 2.90003 -2.15825 0
M  V30 9237 O 872.851 2.60578 -3.5218 0
M  V30 9238 C 874.352 3.84309 -2.20955 0
M  V30 9239 H 871.572 0.489685 -0.458748 0
M  V30 9240 H 874.116 0.980436 -1.79465 0
M  V30 9241 H 872.271 3.46303 -1.73646 0
M  V30 9242 H 872.685 3.4506 -3.95011 0
M  V30 9243 H 874.159 4.74081 -2.82756 0
M  V30 9244 H 874.636 4.22121 -1.21287 0
M  V30 9245 H 875.242 3.33942 -2.63368 0
M  V30 9246 N 873.557 1.20646 1.01402 0
M  V30 9247 C 874.797 1.02951 1.7658 0
M  V30 9248 C 875.161 -0.430522 1.87111 0
M  V30 9249 O 876.362 -0.727727 2.58762 0
M  V30 9250 C 874.633 1.69728 3.14527 0
M  V30 9251 S 876.192 1.6717 4.05709 0
M  V30 9252 H 873.01 0.36911 0.607683 0
M  V30 9253 H 875.612 1.53243 1.21395 0
M  V30 9254 H 874.316 2.75162 3.0449 0
M  V30 9255 H 873.847 1.19578 3.74786 0
M  V30 9256 H 875.862 0.706397 4.91146 0
M  V30 9257 N 875.035 -1.20752 1.01276 0
M  V30 9258 C 876.312 -1.85676 0.615112 0
M  V30 9259 C 876.692 -1.90623 -0.906976 0
M  V30 9260 O 876.04 -1.41124 -1.79712 0
M  V30 9261 C 876.25 -3.2552 1.25847 0
M  V30 9262 C 877.598 -4.0184 1.37148 0
M  V30 9263 O 878.622 -3.3486 1.21438 0
M  V30 9264 O 877.481 -5.21783 1.62495 0
M  V30 9265 H 874.575 -0.799437 0.211729 0
M  V30 9266 H 877.121 -1.28372 1.10989 0
M  V30 9267 H 875.893 -3.16664 2.29869 0
M  V30 9268 H 875.516 -3.90452 0.750524 0
M  V30 9269 N 876.513 -0.788492 -1.36457 0
M  V30 9270 C 877.762 -0.357052 -1.98515 0
M  V30 9271 C 878.075 1.0769 -1.63285 0
M  V30 9272 O 879.281 1.61057 -2.1857 0
M  V30 9273 C 877.737 -0.587449 -3.55073 0
M  V30 9274 C 877.345 -2.03276 -3.99228 0
M  V30 9275 C 879.089 -0.220468 -4.23927 0
M  V30 9276 C 876.996 -2.20987 -5.48561 0
M  V30 9277 H 875.926 -0.129762 -0.74275 0
M  V30 9278 H 878.577 -0.969995 -1.55767 0
M  V30 9279 H 876.959 0.0951918 -3.95886 0
M  V30 9280 H 878.133 -2.75173 -3.69617 0
M  V30 9281 H 876.448 -2.3579 -3.43208 0
M  V30 9282 H 879.045 -0.331085 -5.33674 0
M  V30 9283 H 879.388 0.831306 -4.07915 0
M  V30 9284 H 879.921 -0.856309 -3.88474 0
M  V30 9285 H 876.66 -3.24543 -5.69519 0
M  V30 9286 H 876.18 -1.53594 -5.79801 0
M  V30 9287 H 877.859 -2.01656 -6.14771 0
M  V30 9288 N 877.991 1.48044 -0.54043 0
M  V30 9289 C 878.938 2.29781 0.216597 0
M  V30 9290 C 879.908 1.38021 0.924094 0
M  V30 9291 O 881.093 1.66985 0.923078 0
M  V30 9292 C 878.233 3.21623 1.2511 0
M  V30 9293 C 877.346 4.28467 0.551384 0
M  V30 9294 C 876.481 5.07477 1.56972 0
M  V30 9295 C 875.52 6.06113 0.854048 0
M  V30 9296 N 874.657 6.78143 1.81842 0
M  V30 9297 H 879.497 2.94001 -0.486578 0
M  V30 9298 H 877.034 1.44929 -0.251789 0
M  V30 9299 H 878.992 3.73279 1.8633 0
M  V30 9300 H 877.622 2.59305 1.92252 0
M  V30 9301 H 876.674 3.79997 -0.174982 0
M  V30 9302 H 877.986 4.98799 -0.0100542 0
M  V30 9303 H 877.14 5.63199 2.25592 0
M  V30 9304 H 875.879 4.37008 2.16507 0
M  V30 9305 H 874.884 5.49585 0.153838 0
M  V30 9306 H 876.109 6.78584 0.264675 0
M  V30 9307 H 874.055 6.10417 2.40265 0
M  V30 9308 H 873.972 7.44587 1.3087 0
M  V30 9309 H 875.24 7.38448 2.49628 0
M  V30 9310 N 879.47 0.276058 1.55163 0
M  V30 9311 C 880.747 -0.392292 1.91626 0
M  V30 9312 C 881.127 -1.73646 1.20043 0
M  V30 9313 O 880.475 -2.26139 0.327606 0
M  V30 9314 C 880.685 -0.531641 3.44927 0
M  V30 9315 C 882.033 -0.8141 4.16722 0
M  V30 9316 O 883.057 -0.616413 3.50826 0
M  V30 9317 O 881.916 -1.19224 5.33337 0
M  V30 9318 H 879.01 -0.214945 0.798579 0
M  V30 9319 H 881.556 0.32228 1.66612 0
M  V30 9320 H 880.328 0.414282 3.89101 0
M  V30 9321 H 879.951 -1.29564 3.75897 0
M  V30 9322 N 880.948 -1.576 0.00335426 0
M  V30 9323 C 882.359 -1.7875 -0.539008 0
M  V30 9324 C 882.71 -0.911097 -1.73763 0
M  V30 9325 O 881.835 -0.114476 -2.16097 0
M  V30 9326 C 882.43 -3.24177 -0.984611 0
M  V30 9327 C 880.989 -3.46412 -1.47226 0
M  V30 9328 C 880.136 -2.74024 -0.425004 0
M  V30 9329 H 883.087 -1.57032 0.229511 0
M  V30 9330 H 883.108 -3.32474 -1.85044 0
M  V30 9331 H 882.62 -3.87938 -0.112035 0
M  V30 9332 H 880.721 -2.8787 -2.36562 0
M  V30 9333 H 880.834 -4.55098 -1.49741 0
M  V30 9334 H 879.198 -2.38741 -0.887394 0
M  V30 9335 H 879.981 -3.40486 0.438662 0
M  V30 9336 N 882.426 0.269451 -1.5528 0
M  V30 9337 C 883.651 1.02299 -1.80415 0
M  V30 9338 C 884.076 1.7902 -0.577363 0
M  V30 9339 O 883.434 1.75018 0.473125 0
M  V30 9340 C 883.482 1.95445 -3.0304 0
M  V30 9341 O 882.586 3.04271 -2.78375 0
M  V30 9342 H 881.927 0.292289 -0.596207 0
M  V30 9343 H 884.457 0.297282 -2.02429 0
M  V30 9344 H 884.467 2.37333 -3.31869 0
M  V30 9345 H 883.142 1.39017 -3.91978 0
M  V30 9346 H 881.719 2.66673 -2.60653 0
M  V30 9347 N 883.904 1.48273 0.534124 0
M  V30 9348 C 884.836 1.5857 1.65494 0
M  V30 9349 C 885.849 0.470266 1.5586 0
M  V30 9350 O 887.038 0.740928 1.62396 0
M  V30 9351 C 884.138 1.49554 3.04117 0
M  V30 9352 C 883.311 2.76066 3.39273 0
M  V30 9353 C 882.37 2.60562 4.57159 0
M  V30 9354 O 881.396 3.34438 4.60587 0
M  V30 9355 N 882.598 1.69906 5.55079 0
M  V30 9356 H 885.363 2.55226 1.57099 0
M  V30 9357 H 882.924 1.44944 0.721303 0
M  V30 9358 H 884.916 1.36882 3.80848 0
M  V30 9359 H 883.486 0.608895 3.06613 0
M  V30 9360 H 882.706 3.03332 2.51761 0
M  V30 9361 H 883.994 3.60006 3.59546 0
M  V30 9362 H 883.392 1.09079 5.55084 0
M  V30 9363 H 881.949 1.63175 6.31044 0
M  V30 9364 N 885.382 -0.782676 1.36792 0
M  V30 9365 C 886.33 -1.91698 1.31737 0
M  V30 9366 C 887.324 -1.68118 0.207994 0
M  V30 9367 O 888.53 -1.76042 0.375393 0
M  V30 9368 H 884.905 -0.630215 0.410284 0
M  V30 9369 H 886.876 -1.93078 2.27516 0
M  V30 9370 C 885.625 -3.28816 1.13029 0
M  V30 9371 H 884.948 -3.4753 1.97643 0
M  V30 9372 H 886.388 -4.08515 1.13541 0
M  V30 9373 C 884.847 -3.36497 -0.1647 0
M  V30 9374 O 885.377 -3.84822 -1.15216 0
M  V30 9375 N 883.583 -2.89828 -0.211678 0
M  V30 9376 H 883.13 -2.50693 0.59252 0
M  V30 9377 H 883.088 -2.95349 -1.07779 0
M  V30 9378 N 886.86 -1.21182 -1.00761 0
M  V30 9379 C 888.109 -1.02166 -1.73911 0
M  V30 9380 C 888.422 0.445638 -1.90456 0
M  V30 9381 O 889.628 0.755132 -2.60787 0
M  V30 9382 C 888.084 -1.77936 -3.12837 0
M  V30 9383 C 887.692 -3.28819 -3.04273 0
M  V30 9384 C 889.436 -1.67319 -3.90134 0
M  V30 9385 C 887.343 -3.97089 -4.38262 0
M  V30 9386 H 886.273 -0.378665 -0.652019 0
M  V30 9387 H 888.924 -1.44891 -1.12601 0
M  V30 9388 H 887.306 -1.28003 -3.74742 0
M  V30 9389 H 888.48 -3.86035 -2.51622 0
M  V30 9390 H 886.795 -3.39949 -2.40465 0
M  V30 9391 H 889.392 -2.15659 -4.8928 0
M  V30 9392 H 889.735 -0.630959 -4.11491 0
M  V30 9393 H 890.268 -2.14716 -3.34876 0
M  V30 9394 H 887.007 -5.01503 -4.22107 0
M  V30 9395 H 886.527 -3.44662 -4.90885 0
M  V30 9396 H 888.206 -4.01854 -5.07072 0
M  V30 9397 N 888.338 1.20213 -1.01915 0
M  V30 9398 C 889.286 2.25125 -0.584936 0
M  V30 9399 C 890.28 1.65138 0.377602 0
M  V30 9400 O 891.486 1.78294 0.247245 0
M  V30 9401 H 887.861 0.732333 -0.170858 0
M  V30 9402 H 889.832 2.59075 -1.48063 0
M  V30 9403 C 888.581 3.47651 0.058389 0
M  V30 9404 H 887.904 3.9409 -0.673263 0
M  V30 9405 H 889.344 4.2275 0.325285 0
M  V30 9406 C 887.803 3.10725 1.30199 0
M  V30 9407 O 888.333 3.22491 2.39505 0
M  V30 9408 N 886.539 2.6525 1.18706 0
M  V30 9409 H 886.086 2.55875 0.297618 0
M  V30 9410 H 886.044 2.40913 2.02011 0
M  V30 9411 N 889.816 0.795718 1.36037 0
M  V30 9412 C 891.062 0.380668 1.99806 0
M  V30 9413 C 891.417 -1.03783 1.62009 0
M  V30 9414 O 890.71 -1.70819 0.867831 0
M  V30 9415 C 890.904 0.489038 3.54038 0
M  V30 9416 C 890.733 1.91652 4.06817 0
M  V30 9417 C 889.503 2.54252 4.36674 0
M  V30 9418 C 891.701 2.87956 4.26129 0
M  V30 9419 N 889.683 3.88523 4.75314 0
M  V30 9420 C 891.054 4.07074 4.67644 0
M  V30 9421 C 893.109 2.8493 4.08313 0
M  V30 9422 C 891.812 5.23583 4.93208 0
M  V30 9423 C 893.838 4.00632 4.35027 0
M  V30 9424 C 893.2 5.18496 4.76804 0
M  V30 9425 H 889.299 0.186842 0.759351 0
M  V30 9426 H 891.883 1.03465 1.64933 0
M  V30 9427 H 890.054 -0.134893 3.88166 0
M  V30 9428 H 891.786 0.0496256 4.0467 0
M  V30 9429 H 888.541 2.05685 4.26604 0
M  V30 9430 H 888.965 4.57623 4.98909 0
M  V30 9431 H 893.607 1.94964 3.75165 0
M  V30 9432 H 891.325 6.14129 5.25234 0
M  V30 9433 H 894.911 3.99659 4.22805 0
M  V30 9434 H 893.791 6.06538 4.97073 0
M  V30 9435 N 891.294 -1.47756 0.548274 0
M  V30 9436 C 892.54 -2.02789 0.0209265 0
M  V30 9437 C 892.873 -1.42268 -1.32187 0
M  V30 9438 O 892.148 -0.575001 -1.85806 0
M  V30 9439 C 892.431 -3.60007 -0.0816674 0
M  V30 9440 C 892.284 -4.30977 1.28759 0
M  V30 9441 C 893.603 -4.32777 -0.799515 0
M  V30 9442 H 890.722 -0.736944 0.00907884 0
M  V30 9443 H 893.364 -1.76282 0.708839 0
M  V30 9444 H 891.514 -3.82722 -0.667537 0
M  V30 9445 H 893.186 -4.19629 1.91597 0
M  V30 9446 H 891.429 -3.9168 1.86466 0
M  V30 9447 H 892.1 -5.39488 1.16861 0
M  V30 9448 H 894.576 -4.15001 -0.30216 0
M  V30 9449 H 893.452 -5.42431 -0.840239 0
M  V30 9450 H 893.713 -4.01358 -1.85375 0
M  V30 9451 N 892.772 -0.284283 -1.55015 0
M  V30 9452 C 894.018 0.330352 -2.00091 0
M  V30 9453 C 894.351 1.54814 -1.17244 0
M  V30 9454 O 893.626 1.92954 -0.244753 0
M  V30 9455 C 893.909 0.703492 -3.53161 0
M  V30 9456 C 893.762 -0.522275 -4.46758 0
M  V30 9457 C 895.081 1.53645 -4.12409 0
M  V30 9458 H 892.2 0.118599 -0.727395 0
M  V30 9459 H 894.842 -0.393054 -1.8589 0
M  V30 9460 H 892.992 1.31983 -3.65394 0
M  V30 9461 H 894.664 -1.16082 -4.46456 0
M  V30 9462 H 892.907 -1.15865 -4.1804 0
M  V30 9463 H 893.578 -0.217295 -5.51572 0
M  V30 9464 H 896.054 1.01583 -4.0351 0
M  V30 9465 H 894.93 1.76633 -5.19704 0
M  V30 9466 H 895.191 2.5204 -3.63219 0
M  V30 9467 N 894.251 1.57596 -0.0117121 0
M  V30 9468 C 895.662 1.79033 0.529521 0
M  V30 9469 C 896.013 0.920299 1.73277 0
M  V30 9470 O 895.138 0.125934 2.16033 0
M  V30 9471 C 895.733 3.24695 0.967405 0
M  V30 9472 C 894.292 3.47188 1.45387 0
M  V30 9473 C 893.439 2.74245 0.410466 0
M  V30 9474 H 896.39 1.56908 -0.237836 0
M  V30 9475 H 896.411 3.33451 1.83278 0
M  V30 9476 H 895.923 3.87992 0.0914605 0
M  V30 9477 H 894.024 2.89121 2.35032 0
M  V30 9478 H 894.137 4.55886 1.47325 0
M  V30 9479 H 892.501 2.39209 0.874721 0
M  V30 9480 H 893.284 3.40248 -0.456713 0
M  V30 9481 N 895.729 -0.261212 1.5542 0
M  V30 9482 C 896.639 -1.34493 1.92221 0
M  V30 9483 C 897.655 -1.53421 0.82086 0
M  V30 9484 O 898.831 -1.6732 1.12099 0
M  V30 9485 C 895.896 -2.68209 2.19692 0
M  V30 9486 C 894.957 -2.57927 3.43179 0
M  V30 9487 C 894.19 -3.85266 3.69331 0
M  V30 9488 O 894.413 -4.86493 2.97793 0
M  V30 9489 O 893.347 -3.8476 4.62865 0
M  V30 9490 H 897.173 -1.06278 2.84497 0
M  V30 9491 H 894.758 -0.460752 1.42118 0
M  V30 9492 H 896.64 -3.47252 2.38734 0
M  V30 9493 H 895.315 -2.96186 1.30597 0
M  V30 9494 H 894.222 -1.77219 3.2946 0
M  V30 9495 H 895.555 -2.34898 4.32532 0
M  V30 9496 N 897.207 -1.48554 -0.526253 0
M  V30 9497 C 898.455 -1.56452 -1.27935 0
M  V30 9498 C 898.776 -0.24184 -1.93495 0
M  V30 9499 O 898.046 0.736917 -1.81511 0
M  V30 9500 H 896.626 -0.576379 -0.47518 0
M  V30 9501 H 899.288 -1.85039 -0.612083 0
M  V30 9502 H 898.384 -2.34751 -2.05666 0
M  V30 9503 N 898.685 0.775411 -1.37205 0
M  V30 9504 C 899.933 1.53081 -1.3195 0
M  V30 9505 C 900.254 1.9476 0.0966864 0
M  V30 9506 O 899.524 1.66019 1.03993 0
M  V30 9507 H 898.104 0.567762 -0.485444 0
M  V30 9508 H 900.766 0.92309 -1.71654 0
M  V30 9509 H 899.862 2.4319 -1.95614 0
M  V30 9510 N 900.163 1.21714 1.00117 0
M  V30 9511 C 901.411 1.03465 1.73607 0
M  V30 9512 C 901.732 -0.432295 1.90148 0
M  V30 9513 O 901.002 -1.31157 1.45515 0
M  V30 9514 H 899.582 0.379857 0.643209 0
M  V30 9515 H 902.244 1.53088 1.20624 0
M  V30 9516 H 901.34 1.50574 2.73375 0
M  V30 9517 N 901.641 -1.19671 1.02551 0
M  V30 9518 C 902.889 -1.88894 0.71858 0
M  V30 9519 C 903.21 -1.79797 -0.754856 0
M  V30 9520 O 902.48 -1.20621 -1.54362 0
M  V30 9521 H 901.06 -0.699244 0.262806 0
M  V30 9522 H 903.722 -1.45298 1.29902 0
M  V30 9523 H 902.818 -2.95309 1.00989 0
M  V30 9524 N 903.119 -0.802921 -1.35613 0
M  V30 9525 C 904.53 -0.443004 -1.81368 0
M  V30 9526 C 904.881 1.03459 -1.66706 0
M  V30 9527 O 904.006 1.80372 -1.19561 0
M  V30 9528 C 904.601 -0.797324 -3.29284 0
M  V30 9529 C 903.16 -0.490055 -3.73196 0
M  V30 9530 C 902.307 -1.02487 -2.57666 0
M  V30 9531 H 905.258 -0.994888 -1.23643 0
M  V30 9532 H 905.279 -0.0934638 -3.80385 0
M  V30 9533 H 904.791 -1.87278 -3.39924 0
M  V30 9534 H 902.892 0.576818 -3.68108 0
M  V30 9535 H 903.005 -1.02012 -4.68114 0
M  V30 9536 H 901.369 -0.44738 -2.5074 0
M  V30 9537 H 902.152 -2.10636 -2.71085 0
M  V30 9538 N 904.597 1.47463 -0.556102 0
M  V30 9539 C 905.56 2.28478 0.181743 0
M  V30 9540 C 906.56 1.36886 0.843738 0
M  V30 9541 O 907.75 1.59527 0.69977 0
M  V30 9542 C 904.882 3.16534 1.26566 0
M  V30 9543 H 906.075 2.95182 -0.529892 0
M  V30 9544 H 903.628 1.53134 -0.313005 0
M  V30 9545 H 904.363 2.5452 2.00973 0
M  V30 9546 H 904.148 3.83939 0.795798 0
M  V30 9547 H 905.638 3.77579 1.78393 0
M  V30 9548 N 906.075 0.2925 1.54862 0
M  V30 9549 C 907.305 -0.321646 2.04081 0
M  V30 9550 C 907.713 -1.48712 1.16967 0
M  V30 9551 O 907.056 -1.82755 0.18609 0
M  V30 9552 C 907.118 -0.848678 3.49339 0
M  V30 9553 C 906.782 0.190416 4.56603 0
M  V30 9554 C 907.779 1.01595 5.09877 0
M  V30 9555 C 905.464 0.329666 5.01217 0
M  V30 9556 C 907.458 1.96676 6.06298 0
M  V30 9557 C 905.145 1.28393 5.9746 0
M  V30 9558 C 906.143 2.10097 6.49883 0
M  V30 9559 O 905.831 3.03907 7.44242 0
M  V30 9560 H 905.563 -0.075098 0.671816 0
M  V30 9561 H 908.117 0.427531 2.00901 0
M  V30 9562 H 906.347 -1.64823 3.49815 0
M  V30 9563 H 908.036 -1.37779 3.81801 0
M  V30 9564 H 908.802 0.919197 4.7621 0
M  V30 9565 H 904.681 -0.296317 4.60047 0
M  V30 9566 H 908.225 2.60488 6.47141 0
M  V30 9567 H 904.122 1.38144 6.30545 0
M  V30 9568 H 904.89 2.98787 7.62016 0
M  V30 9569 N 907.553 -1.57587 0.0200696 0
M  V30 9570 C 908.501 -2.10814 -0.982868 0
M  V30 9571 C 909.495 -1.03263 -1.34287 0
M  V30 9572 O 910.701 -1.21708 -1.32617 0
M  V30 9573 H 907.076 -0.673409 -0.334701 0
M  V30 9574 H 909.047 -2.94034 -0.50856 0
M  V30 9575 C 907.796 -2.64301 -2.25921 0
M  V30 9576 H 907.119 -3.46703 -1.99091 0
M  V30 9577 H 908.559 -3.052 -2.94328 0
M  V30 9578 C 907.018 -1.56628 -2.98277 0
M  V30 9579 O 907.548 -0.960825 -3.9004 0
M  V30 9580 N 905.754 -1.28889 -2.60453 0
M  V30 9581 H 905.301 -1.7831 -1.85912 0
M  V30 9582 H 905.259 -0.570697 -3.09177 0
M  V30 9583 N 909.032 0.252966 -1.55557 0
M  V30 9584 C 910.28 0.979912 -1.76754 0
M  V30 9585 C 910.601 1.86083 -0.582944 0
M  V30 9586 O 909.871 1.91742 0.401497 0
M  V30 9587 H 908.451 0.364805 -0.651864 0
M  V30 9588 H 911.113 0.272372 -1.92987 0
M  V30 9589 H 910.209 1.60518 -2.67657 0
M  V30 9590 N 910.51 1.48831 0.518367 0
M  V30 9591 C 911.443 1.588 1.63884 0
M  V30 9592 C 912.421 0.437847 1.56594 0
M  V30 9593 O 913.605 0.651042 1.769 0
M  V30 9594 C 910.732 1.52681 3.02335 0
M  V30 9595 C 909.778 2.7268 3.27945 0
M  V30 9596 S 910.611 4.34536 3.12951 0
M  V30 9597 C 911.767 4.31034 4.53828 0
M  V30 9598 H 912 2.53587 1.5518 0
M  V30 9599 H 909.533 1.37507 0.702218 0
M  V30 9600 H 911.491 1.49837 3.82177 0
M  V30 9601 H 910.152 0.592107 3.08469 0
M  V30 9602 H 909.345 2.64569 4.28974 0
M  V30 9603 H 908.947 2.72847 2.55794 0
M  V30 9604 H 911.239 4.01683 5.45579 0
M  V30 9605 H 912.182 5.32282 4.66991 0
M  V30 9606 H 912.59 3.61343 4.33695 0
M  V30 9607 O 912.027 -0.663479 1.47242 0
M  V30 9608 H 912.718 -1.31658 1.42077 0
M  V30 END ATOM
M  V30 BEGIN BOND
M  V30 END BOND
M  V30 END CTAB
M  END
$$$$
