drugbank_target|Q16222 UDP-N-acetylhexosamine pyrophosphorylase (DB02196; DB03397)
 OpenBabel12092119543D

  0  0  0     0  0            999 V3000
M  V30 BEGIN CTAB
M  V30 COUNTS 8238 8327 0 0 0
M  V30 BEGIN ATOM
M  V30 1 H -0.908 1.98254 -0.117106 0
M  V30 2 N 0 1.576 0 0
M  V30 3 C 0.933 2.03868 1.02534 0
M  V30 4 C 1.911 0.928543 1.3348 0
M  V30 5 O 3.095 1.19667 1.45644 0
M  V30 6 C 0.222 2.43627 2.35294 0
M  V30 7 C -0.732 3.65373 2.2001 0
M  V30 8 S 0.101 5.13292 1.52614 0
M  V30 9 C 1.257 5.56322 2.86805 0
M  V30 10 H 1.49 2.90518 0.631377 0
M  V30 11 H -0.977 1.52953 0.210867 0
M  V30 12 H 0.981 2.67203 3.11629 0
M  V30 13 H -0.358 1.57376 2.7183 0
M  V30 14 H -1.165 3.90944 3.18086 0
M  V30 15 H -1.563 3.418 1.51819 0
M  V30 16 H 0.729 5.58782 3.83104 0
M  V30 17 H 1.672 6.56266 2.65933 0
M  V30 18 H 2.08 4.83886 2.90714 0
M  V30 19 N 1.4781 -0.272755 1.55222 0
M  V30 20 C 2.4261 -1.35705 1.88909 0
M  V30 21 C 3.4201 -1.5112 0.765456 0
M  V30 22 O 4.6261 -1.52901 0.949802 0
M  V30 23 H 1.0011 -0.453868 0.59959 0
M  V30 24 H 2.9721 -1.04544 2.79487 0
M  V30 25 C 1.7211 -2.71049 2.17779 0
M  V30 26 H 1.0441 -2.59979 3.03728 0
M  V30 27 H 2.4841 -3.45858 2.45272 0
M  V30 28 C 0.9431 -3.22165 0.985473 0
M  V30 29 O 1.4731 -4.01096 0.220233 0
M  V30 30 N -0.3209 -2.7985 0.783108 0
M  V30 31 H -0.7739 -2.15775 1.40708 0
M  V30 32 H -0.8159 -3.14397 -0.0130392 0
M  V30 33 N 2.9562 -1.48159 -0.537278 0
M  V30 34 C 4.2052 -1.5506 -1.28993 0
M  V30 35 C 4.5182 -0.226211 -1.94288 0
M  V30 36 O 5.7242 -0.173395 -2.70946 0
M  V30 37 C 4.1802 -2.73429 -2.34018 0
M  V30 38 C 3.7882 -4.1248 -1.74825 0
M  V30 39 C 5.5322 -2.89638 -3.10339 0
M  V30 40 C 3.4392 -5.22121 -2.77747 0
M  V30 41 H 2.3692 -0.577231 -0.485098 0
M  V30 42 H 5.0202 -1.74478 -0.568317 0
M  V30 43 H 3.4022 -2.47431 -3.09182 0
M  V30 44 H 4.5762 -4.48466 -1.05899 0
M  V30 45 H 2.8912 -4.01327 -1.11022 0
M  V30 46 H 5.4882 -3.68718 -3.87235 0
M  V30 47 H 5.8312 -1.9882 -3.65754 0
M  V30 48 H 6.3642 -3.15502 -2.42288 0
M  V30 49 H 3.1032 -6.1488 -2.27161 0
M  V30 50 H 2.6232 -4.90631 -3.45024 0
M  V30 51 H 4.3022 -5.49924 -3.4087 0
M  V30 52 N 4.4343 0.785586 -1.36625 0
M  V30 53 C 5.3823 1.91978 -1.31329 0
M  V30 54 C 6.3763 1.68162 -0.204416 0
M  V30 55 O 7.5823 1.76122 -0.371645 0
M  V30 56 H 3.9573 0.631087 -0.408942 0
M  V30 57 H 5.9283 1.93562 -2.27104 0
M  V30 58 C 4.6773 3.29055 -1.12329 0
M  V30 59 H 4.0003 3.4795 -1.96903 0
M  V30 60 H 5.4403 4.08756 -1.12671 0
M  V30 61 C 3.8993 3.36461 0.171861 0
M  V30 62 O 4.4293 3.84576 1.16035 0
M  V30 63 N 2.6353 2.89782 0.217846 0
M  V30 64 H 2.1823 2.50819 -0.587183 0
M  V30 65 H 2.1403 2.95119 1.08408 0
M  V30 66 N 5.9124 1.20967 1.01018 0
M  V30 67 C 7.1894 0.93264 1.71934 0
M  V30 68 C 7.5694 -0.55692 2.03621 0
M  V30 69 O 6.9174 -1.52035 1.7058 0
M  V30 70 C 7.1274 1.81233 2.98254 0
M  V30 71 C 8.4754 2.05804 3.71389 0
M  V30 72 O 9.4994 1.78539 3.08225 0
M  V30 73 O 8.3584 2.51888 4.84989 0
M  V30 74 H 5.4524 0.349272 0.749625 0
M  V30 75 H 7.9984 1.31871 1.06808 0
M  V30 76 H 6.7704 2.82067 2.71208 0
M  V30 77 H 6.3934 1.42674 3.7112 0
M  V30 78 N 7.3905 -1.2043 1.01659 0
M  V30 79 C 8.3205 -2.25466 0.607226 0
M  V30 80 C 9.3015 -1.65853 -0.377716 0
M  V30 81 O 10.4865 -1.92409 -0.263149 0
M  V30 82 C 7.6165 -3.47256 -0.0552949 0
M  V30 83 C 6.5705 -4.19462 0.850632 0
M  V30 84 C 5.8965 -5.34673 0.0538859 0
M  V30 85 C 7.1965 -4.75603 2.15868 0
M  V30 86 H 8.8905 -2.59962 1.48526 0
M  V30 87 H 6.4365 -1.2496 0.715605 0
M  V30 88 H 8.3895 -4.19917 -0.353233 0
M  V30 89 H 7.1135 -3.11924 -0.968045 0
M  V30 90 H 5.7725 -3.48667 1.13257 0
M  V30 91 H 5.4205 -4.95585 -0.860514 0
M  V30 92 H 5.1205 -5.83913 0.657192 0
M  V30 93 H 6.6445 -6.10138 -0.237598 0
M  V30 94 H 8.0585 -5.40083 1.92311 0
M  V30 95 H 6.4555 -5.3528 2.71284 0
M  V30 96 H 7.5255 -3.94346 2.82169 0
M  V30 97 N 8.8686 -0.792821 -1.36206 0
M  V30 98 C 9.8156 -0.191653 -2.30003 0
M  V30 99 C 10.7856 0.666453 -1.52143 0
M  V30 100 O 11.9706 0.61442 -1.80636 0
M  V30 101 C 9.1106 0.664848 -3.38635 0
M  V30 102 C 8.2236 -0.212175 -4.31479 0
M  V30 103 C 7.3586 0.651022 -5.27196 0
M  V30 104 C 6.3976 -0.227247 -6.11678 0
M  V30 105 N 5.5346 0.595127 -6.99573 0
M  V30 106 H 10.3746 -0.996978 -2.80828 0
M  V30 107 H 7.9116 -0.503206 -1.38225 0
M  V30 108 H 9.8696 1.17645 -4.00269 0
M  V30 109 H 8.4996 1.43557 -2.89122 0
M  V30 110 H 7.5516 -0.841777 -3.70969 0
M  V30 111 H 8.8636 -0.888751 -4.90818 0
M  V30 112 H 8.0176 1.2283 -5.94136 0
M  V30 113 H 6.7566 1.36121 -4.68319 0
M  V30 114 H 5.7616 -0.816904 -5.43697 0
M  V30 115 H 6.9866 -0.93509 -6.72631 0
M  V30 116 H 4.9326 1.28955 -6.432 0
M  V30 117 H 4.8496 -0.0236952 -7.55996 0
M  V30 118 H 6.1176 1.15613 -7.70879 0
M  V30 119 N 10.3467 1.47872 -0.545128 0
M  V30 120 C 11.2767 2.32661 0.197793 0
M  V30 121 C 12.2577 1.43041 0.920504 0
M  V30 122 O 13.4427 1.71912 0.90333 0
M  V30 123 C 10.5727 3.24569 1.23582 0
M  V30 124 C 9.5267 4.23333 0.630323 0
M  V30 125 C 8.8527 5.0448 1.77211 0
M  V30 126 C 10.1527 5.20704 -0.407974 0
M  V30 127 H 11.8467 2.95024 -0.510045 0
M  V30 128 H 9.3927 1.4187 -0.246731 0
M  V30 129 H 11.3457 3.8272 1.76362 0
M  V30 130 H 10.0697 2.60236 1.97344 0
M  V30 131 H 8.7287 3.6639 0.123922 0
M  V30 132 H 8.3767 4.36561 2.49847 0
M  V30 133 H 8.0767 5.71339 1.37281 0
M  V30 134 H 9.6007 5.65487 2.3034 0
M  V30 135 H 11.0147 5.7329 0.033305 0
M  V30 136 H 9.4117 5.95699 -0.725486 0
M  V30 137 H 10.4817 4.66917 -1.30828 0
M  V30 138 N 11.8248 0.280983 1.55075 0
M  V30 139 C 13.0528 -0.337293 2.04132 0
M  V30 140 C 13.4678 -1.4903 1.15912 0
M  V30 141 O 12.8248 -1.81606 0.180459 0
M  V30 142 C 12.8758 -0.812706 3.52246 0
M  V30 143 O 12.5968 0.294387 4.3711 0
M  V30 144 C 14.0978 -1.4982 4.17216 0
M  V30 145 H 11.3178 -0.0761638 0.666663 0
M  V30 146 H 13.8618 0.414787 2.00249 0
M  V30 147 H 12.0168 -1.51486 3.56554 0
M  V30 148 H 12.4308 -0.0721325 5.2445 0
M  V30 149 H 13.9048 -1.7822 5.22438 0
M  V30 150 H 14.3818 -2.43168 3.65741 0
M  V30 151 H 14.9878 -0.839742 4.16927 0
M  V30 152 N 13.3029 -1.57598 0.00835791 0
M  V30 153 C 14.2329 -2.1198 -0.979113 0
M  V30 154 C 15.2139 -1.03091 -1.35301 0
M  V30 155 O 16.3989 -1.30818 -1.43528 0
M  V30 156 C 13.5289 -2.62995 -2.26828 0
M  V30 157 C 12.4829 -3.76485 -2.03576 0
M  V30 158 C 11.8089 -4.13846 -3.38579 0
M  V30 159 C 13.1089 -5.0342 -1.39161 0
M  V30 160 H 14.8029 -2.94738 -0.526281 0
M  V30 161 H 12.3489 -1.41783 -0.251704 0
M  V30 162 H 14.3019 -2.99669 -2.96271 0
M  V30 163 H 13.0259 -1.7737 -2.7424 0
M  V30 164 H 11.6849 -3.40217 -1.36557 0
M  V30 165 H 11.3329 -3.25232 -3.83709 0
M  V30 166 H 11.0329 -4.90312 -3.23834 0
M  V30 167 H 12.5569 -4.53086 -4.09323 0
M  V30 168 H 13.9709 -5.37812 -1.98573 0
M  V30 169 H 12.3679 -5.84746 -1.34878 0
M  V30 170 H 13.4379 -4.83548 -0.361868 0
M  V30 171 N 14.781 0.264519 -1.55364 0
M  V30 172 C 16.006 1.01726 -1.80739 0
M  V30 173 C 16.431 1.78836 -0.583044 0
M  V30 174 O 15.789 1.75167 0.467566 0
M  V30 175 C 15.837 1.94482 -3.03659 0
M  V30 176 O 14.941 3.03386 -2.7934 0
M  V30 177 H 14.282 0.290395 -0.597132 0
M  V30 178 H 16.812 0.290854 -2.02522 0
M  V30 179 H 16.822 2.36278 -3.32621 0
M  V30 180 H 15.497 1.37772 -3.92418 0
M  V30 181 H 14.074 2.65844 -2.61498 0
M  V30 182 N 16.2591 1.48442 0.529413 0
M  V30 183 C 17.2061 1.63007 1.63394 0
M  V30 184 C 18.1761 0.47212 1.59249 0
M  V30 185 O 19.3611 0.695673 1.77666 0
M  V30 186 C 16.5011 1.6763 3.01653 0
M  V30 187 C 15.6141 2.94535 3.16027 0
M  V30 188 C 14.7491 2.90316 4.44849 0
M  V30 189 C 13.7881 4.11923 4.52754 0
M  V30 190 N 12.9251 4.05777 5.72965 0
M  V30 191 H 17.7651 2.5733 1.50285 0
M  V30 192 H 15.3021 1.27613 0.731656 0
M  V30 193 H 17.2601 1.68292 3.81751 0
M  V30 194 H 15.8901 0.76797 3.13532 0
M  V30 195 H 14.9421 3.03615 2.29177 0
M  V30 196 H 16.2541 3.84512 3.17729 0
M  V30 197 H 15.4081 2.89382 5.33238 0
M  V30 198 H 14.1471 1.98068 4.45668 0
M  V30 199 H 13.1521 4.13131 3.62771 0
M  V30 200 H 14.3771 5.0533 4.53672 0
M  V30 201 H 12.3231 3.16351 5.74681 0
M  V30 202 H 12.2401 4.8946 5.76164 0
M  V30 203 H 13.5081 4.08904 6.6364 0
M  V30 204 N 17.7372 -0.778329 1.37039 0
M  V30 205 C 18.7002 -1.87301 1.32102 0
M  V30 206 C 19.7002 -1.59198 0.226405 0
M  V30 207 O 20.8902 -1.67403 0.481861 0
M  V30 208 C 18.0222 -3.24309 1.05055 0
M  V30 209 H 19.2152 -1.93093 2.29467 0
M  V30 210 H 16.7682 -0.977358 1.21973 0
M  V30 211 H 17.5032 -3.24196 0.0819373 0
M  V30 212 H 17.2882 -3.46098 1.84279 0
M  V30 213 H 18.7782 -4.04382 1.04234 0
M  V30 214 N 19.2153 -1.21501 -1.00376 0
M  V30 215 C 20.4633 -1.03095 -1.73827 0
M  V30 216 C 20.7843 0.436341 -1.90055 0
M  V30 217 O 20.0543 1.31466 -1.45236 0
M  V30 218 H 18.6343 -0.378487 -0.644016 0
M  V30 219 H 21.2963 -1.52831 -1.20949 0
M  V30 220 H 20.3923 -1.49991 -2.73695 0
M  V30 221 N 20.6934 1.19889 -1.02296 0
M  V30 222 C 21.6254 2.22334 -0.556787 0
M  V30 223 C 22.6384 1.58674 0.364199 0
M  V30 224 O 23.8274 1.77768 0.161533 0
M  V30 225 C 20.9274 3.38257 0.208694 0
M  V30 226 C 20.1004 4.31504 -0.71577 0
M  V30 227 C 19.1594 5.262 0.00325597 0
M  V30 228 O 18.1854 5.65798 -0.621357 0
M  V30 229 N 19.3874 5.66303 1.27599 0
M  V30 230 H 22.1524 2.62957 -1.43784 0
M  V30 231 H 19.7134 1.34495 -0.901261 0
M  V30 232 H 21.7054 3.98616 0.699111 0
M  V30 233 H 20.2754 2.96472 0.991102 0
M  V30 234 H 19.4954 3.69016 -1.38638 0
M  V30 235 H 20.7834 4.9072 -1.34428 0
M  V30 236 H 20.1814 5.36155 1.80429 0
M  V30 237 H 18.7384 6.28942 1.71102 0
M  V30 238 N 22.1715 0.800033 1.35784 0
M  V30 239 C 23.0815 0.207204 2.33683 0
M  V30 240 C 24.0975 -0.64631 1.61551 0
M  V30 241 O 25.2735 -0.559604 1.93469 0
M  V30 242 C 22.3385 -0.639659 3.40748 0
M  V30 243 C 21.3995 0.233585 4.28664 0
M  V30 244 C 20.6325 -0.572954 5.30616 0
M  V30 245 O 20.8555 -1.80816 5.40982 0
M  V30 246 O 19.7895 0.0327285 6.01891 0
M  V30 247 H 23.6155 1.01692 2.86169 0
M  V30 248 H 21.2005 0.561691 1.38439 0
M  V30 249 H 23.0825 -1.12223 4.06182 0
M  V30 250 H 21.7575 -1.42708 2.90544 0
M  V30 251 H 20.6645 0.763147 3.66233 0
M  V30 252 H 21.9975 0.984784 4.82248 0
M  V30 253 N 23.6496 -1.47581 0.552962 0
M  V30 254 C 24.5996 -2.26961 -0.217423 0
M  V30 255 C 25.5836 -1.34099 -0.889168 0
M  V30 256 O 26.7756 -1.58483 -0.788176 0
M  V30 257 C 23.9046 -3.19756 -1.24944 0
M  V30 258 C 22.9906 -4.20097 -0.581327 0
M  V30 259 N 23.3816 -5.04614 0.346171 0
M  V30 260 C 21.6796 -4.38099 -0.835767 0
M  V30 261 C 22.3806 -5.77052 0.733854 0
M  V30 262 N 21.3566 -5.43526 0.0896567 0
M  V30 263 H 25.1586 -2.89688 0.495761 0
M  V30 264 H 22.6726 -1.58068 0.372597 0
M  V30 265 H 24.6696 -3.75305 -1.81527 0
M  V30 266 H 23.3296 -2.58585 -1.96376 0
M  V30 267 H 24.3406 -5.12869 0.720098 0
M  V30 268 H 21.0176 -3.88102 -1.53892 0
M  V30 269 H 22.4076 -6.5504 1.49574 0
M  V30 270 N 25.1277 -0.289203 -1.54924 0
M  V30 271 C 26.0577 0.58549 -2.2604 0
M  V30 272 C 27.0387 1.14753 -1.25562 0
M  V30 273 O 28.2237 1.17906 -1.54311 0
M  V30 274 C 25.3537 1.76305 -2.99222 0
M  V30 275 C 24.3077 1.33191 -4.06748 0
M  V30 276 C 23.6337 2.5937 -4.6758 0
M  V30 277 C 24.9337 0.471775 -5.20165 0
M  V30 278 H 26.6277 -0.00763532 -2.99399 0
M  V30 279 H 24.1737 -0.00511229 -1.43999 0
M  V30 280 H 26.1267 2.38097 -3.47689 0
M  V30 281 H 24.8507 2.38223 -2.23422 0
M  V30 282 H 23.5097 0.737121 -3.59113 0
M  V30 283 H 23.1577 3.19576 -3.88433 0
M  V30 284 H 22.8577 2.31228 -5.40192 0
M  V30 285 H 24.3817 3.21985 -5.18804 0
M  V30 286 H 25.7957 0.995056 -5.64599 0
M  V30 287 H 24.1927 0.284639 -5.99425 0
M  V30 288 H 25.2627 -0.506041 -4.82252 0
M  V30 289 N 26.6058 1.57591 -0.0167156 0
M  V30 290 C 27.5358 2.12496 0.967858 0
M  V30 291 C 28.5168 1.03807 1.34752 0
M  V30 292 O 29.7018 1.31577 1.42833 0
M  V30 293 C 26.8318 2.64194 2.25431 0
M  V30 294 C 25.7858 3.77559 2.01576 0
M  V30 295 C 25.1118 4.15636 3.36379 0
M  V30 296 C 26.4118 5.04151 1.36489 0
M  V30 297 H 28.1058 2.95013 0.510643 0
M  V30 298 H 25.6518 1.41915 0.244181 0
M  V30 299 H 27.6048 3.01236 2.94678 0
M  V30 300 H 26.3288 1.78821 2.73296 0
M  V30 301 H 24.9878 3.40937 1.34751 0
M  V30 302 H 24.6358 3.27263 3.81979 0
M  V30 303 H 24.3358 4.92022 3.21229 0
M  V30 304 H 25.8598 4.5525 4.06915 0
M  V30 305 H 27.2738 5.38857 1.95718 0
M  V30 306 H 25.6708 5.85453 1.31776 0
M  V30 307 H 26.7408 4.83733 0.336219 0
M  V30 308 N 28.0839 -0.256276 1.55502 0
M  V30 309 C 29.4999 -0.604325 1.47716 0
M  V30 310 C 29.6999 -1.88763 0.705039 0
M  V30 311 O 28.7559 -2.51445 0.230613 0
M  V30 312 C 30.0689 -0.715756 2.92057 0
M  V30 313 C 31.6169 -0.808706 3.02372 0
M  V30 314 C 32.0919 -0.951777 4.48001 0
M  V30 315 N 33.5829 -1.01688 4.519 0
M  V30 316 C 34.3179 -1.14668 5.61817 0
M  V30 317 N 33.8139 -1.24261 6.81565 0
M  V30 318 N 35.6069 -1.1791 5.49594 0
M  V30 319 H 27.7579 0.586291 2.04148 0
M  V30 320 H 30.0209 0.201015 0.926443 0
M  V30 321 H 29.7269 0.157027 3.51349 0
M  V30 322 H 29.6009 -1.59071 3.42018 0
M  V30 323 H 31.9879 -1.67195 2.43166 0
M  V30 324 H 32.0689 0.0912063 2.55637 0
M  V30 325 H 31.7129 -0.0931291 5.07815 0
M  V30 326 H 31.6429 -1.86659 4.92408 0
M  V30 327 H 34.1339 -0.954468 3.65648 0
M  V30 328 H 34.4469 -1.34046 7.61086 0
M  V30 329 H 32.7919 -1.21236 6.84344 0
M  V30 330 H 35.9829 -1.10057 4.54978 0
M  V30 331 H 36.1559 -1.27681 6.35296 0
M  V30 332 N 29.562 -1.4872 -0.521534 0
M  V30 333 C 30.809 -1.57168 -1.27689 0
M  V30 334 C 31.137 -0.249275 -1.92896 0
M  V30 335 O 30.392 0.761162 -1.80291 0
M  V30 336 C 30.691 -2.66497 -2.38148 0
M  V30 337 C 30.357 -4.08664 -1.90538 0
M  V30 338 C 29.019 -4.47357 -1.77271 0
M  V30 339 C 31.371 -4.97724 -1.54663 0
M  V30 340 C 28.699 -5.72905 -1.26478 0
M  V30 341 C 31.051 -6.2377 -1.05329 0
M  V30 342 C 29.715 -6.61311 -0.906861 0
M  V30 343 H 28.985 -0.575117 -0.467249 0
M  V30 344 H 31.632 -1.82472 -0.581051 0
M  V30 345 H 29.937 -2.35085 -3.13437 0
M  V30 346 H 31.634 -2.70246 -2.96257 0
M  V30 347 H 28.224 -3.78111 -2.01816 0
M  V30 348 H 32.408 -4.68501 -1.63768 0
M  V30 349 H 27.664 -6.00709 -1.13835 0
M  V30 350 H 31.838 -6.9217 -0.76644 0
M  V30 351 H 29.465 -7.5848 -0.511083 0
M  V30 352 N 31.0401 0.771051 -1.3745 0
M  V30 353 C 32.2861 1.53109 -1.339 0
M  V30 354 C 32.6411 1.9225 0.0758401 0
M  V30 355 O 31.9341 1.61264 1.03463 0
M  V30 356 C 32.1281 2.80676 -2.2126 0
M  V30 357 C 31.9571 2.54003 -3.71096 0
M  V30 358 C 30.7271 2.48097 -4.402 0
M  V30 359 C 32.9251 2.21953 -4.63941 0
M  V30 360 N 30.9071 2.13515 -5.75573 0
M  V30 361 C 32.2781 1.97516 -5.87697 0
M  V30 362 C 34.3331 2.08114 -4.5232 0
M  V30 363 C 33.0361 1.60638 -7.01133 0
M  V30 364 C 35.0621 1.72636 -5.65642 0
M  V30 365 C 34.4241 1.4906 -6.88448 0
M  V30 366 H 30.5231 0.56055 -0.54526 0
M  V30 367 H 33.1071 0.899472 -1.72678 0
M  V30 368 H 31.2781 3.41674 -1.84698 0
M  V30 369 H 33.0101 3.46578 -2.08963 0
M  V30 370 H 29.7651 2.63974 -3.93211 0
M  V30 371 H 30.1891 1.98919 -6.47117 0
M  V30 372 H 34.8311 2.25024 -3.57944 0
M  V30 373 H 32.5491 1.42467 -7.95443 0
M  V30 374 H 36.1351 1.62586 -5.58621 0
M  V30 375 H 35.0151 1.22014 -7.7465 0
M  V30 376 N 32.5182 1.22032 0.997298 0
M  V30 377 C 33.4662 0.983634 2.10778 0
M  V30 378 C 34.4602 -0.0717564 1.69248 0
M  V30 379 O 35.6662 0.080304 1.79821 0
M  V30 380 H 32.0412 0.300877 0.689186 0
M  V30 381 H 34.0122 1.92606 2.27916 0
M  V30 382 C 32.7612 0.57326 3.42942 0
M  V30 383 H 32.0842 1.37702 3.75338 0
M  V30 384 H 33.5242 0.447031 4.21637 0
M  V30 385 C 31.9832 -0.7167 3.29188 0
M  V30 386 O 32.5132 -1.77027 3.60589 0
M  V30 387 N 30.7192 -0.686167 2.82383 0
M  V30 388 H 30.2662 0.171507 2.57028 0
M  V30 389 H 30.2242 -1.54955 2.73562 0
M  V30 390 N 33.9963 -1.19345 1.0293 0
M  V30 391 C 34.9063 -2.26245 0.620515 0
M  V30 392 C 35.9223 -1.70486 -0.347928 0
M  V30 393 O 37.0983 -2.00347 -0.205704 0
M  V30 394 C 34.1633 -3.46693 -0.0218957 0
M  V30 395 C 33.2243 -4.17632 0.994102 0
M  V30 396 C 32.4573 -5.32329 0.382253 0
M  V30 397 O 32.6803 -5.64552 -0.814676 0
M  V30 398 O 31.6143 -5.91664 1.10531 0
M  V30 399 H 35.4403 -2.63453 1.51083 0
M  V30 400 H 33.0253 -1.26207 0.799513 0
M  V30 401 H 34.9073 -4.19683 -0.380072 0
M  V30 402 H 33.5823 -3.11333 -0.886209 0
M  V30 403 H 32.4893 -3.4676 1.40387 0
M  V30 404 H 33.8223 -4.56964 1.8288 0
M  V30 405 N 35.4744 -0.807222 -1.35358 0
M  V30 406 C 36.4044 -0.232509 -2.3234 0
M  V30 407 C 37.3854 0.642386 -1.57504 0
M  V30 408 O 38.5704 0.572526 -1.85569 0
M  V30 409 C 35.7004 0.619238 -3.41735 0
M  V30 410 C 34.6544 -0.157215 -4.27711 0
M  V30 411 C 33.9804 0.816273 -5.28433 0
M  V30 412 C 35.2804 -1.35656 -5.04376 0
M  V30 413 H 36.9744 -1.04276 -2.80654 0
M  V30 414 H 34.5204 -0.50288 -1.34934 0
M  V30 415 H 36.4734 1.03137 -4.08584 0
M  V30 416 H 35.1974 1.46239 -2.92031 0
M  V30 417 H 33.8564 -0.550525 -3.62443 0
M  V30 418 H 33.5044 1.65494 -4.74996 0
M  V30 419 H 33.2044 0.301067 -5.86828 0
M  V30 420 H 34.7284 1.22659 -5.98153 0
M  V30 421 H 36.1424 -1.01927 -5.64166 0
M  V30 422 H 34.5394 -1.8063 -5.7227 0
M  V30 423 H 35.6094 -2.14288 -4.34981 0
M  V30 424 N 36.9525 1.47285 -0.560781 0
M  V30 425 C 37.8625 2.33846 0.187954 0
M  V30 426 C 38.8785 1.48412 0.908293 0
M  V30 427 O 40.0545 1.81332 0.876388 0
M  V30 428 C 37.1195 3.25178 1.2025 0
M  V30 429 C 36.1805 4.26504 0.489208 0
M  V30 430 C 35.4135 5.13472 1.45542 0
M  V30 431 O 35.6365 5.02959 2.6905 0
M  V30 432 O 34.5705 5.93902 0.977963 0
M  V30 433 H 38.3965 2.99177 -0.522177 0
M  V30 434 H 35.9815 1.45903 -0.321364 0
M  V30 435 H 37.8635 3.81584 1.78805 0
M  V30 436 H 36.5385 2.6247 1.89449 0
M  V30 437 H 35.4455 3.73847 -0.137627 0
M  V30 438 H 36.7785 4.91935 -0.161399 0
M  V30 439 N 38.4306 0.297415 1.54768 0
M  V30 440 C 39.3406 -0.58983 2.27064 0
M  V30 441 C 40.3566 -1.15144 1.30453 0
M  V30 442 O 41.5326 -1.17699 1.63428 0
M  V30 443 C 38.5976 -1.74714 2.9946 0
M  V30 444 C 37.6586 -1.21997 4.11601 0
M  V30 445 C 36.8916 -2.32212 4.80535 0
M  V30 446 O 37.1146 -3.52036 4.48806 0
M  V30 447 O 36.0486 -1.99106 5.68014 0
M  V30 448 H 39.8746 -0.00348199 3.037 0
M  V30 449 H 37.4596 0.0640035 1.49263 0
M  V30 450 H 39.3416 -2.42147 3.44881 0
M  V30 451 H 38.0166 -2.32016 2.25722 0
M  V30 452 H 36.9236 -0.511458 3.70587 0
M  V30 453 H 38.2566 -0.692419 4.87305 0
M  V30 454 N 39.9087 -1.5758 0.0250728 0
M  V30 455 C 40.8717 -2.08896 -0.943139 0
M  V30 456 C 41.8717 -1.00321 -1.25668 0
M  V30 457 O 43.0617 -1.26495 -1.19769 0
M  V30 458 C 40.1937 -2.55143 -2.26086 0
M  V30 459 H 41.3867 -2.95723 -0.498775 0
M  V30 460 H 38.9397 -1.54703 -0.222888 0
M  V30 461 H 39.6747 -1.71633 -2.75159 0
M  V30 462 H 39.4597 -3.34461 -2.04641 0
M  V30 463 H 40.9497 -2.95083 -2.95492 0
M  V30 464 N 41.3868 0.248026 -1.55636 0
M  V30 465 C 42.3188 1.32993 -1.8667 0
M  V30 466 C 43.3318 1.44345 -0.752877 0
M  V30 467 O 44.5208 1.45715 -1.03098 0
M  V30 468 C 41.6208 2.70863 -2.03682 0
M  V30 469 C 40.7938 2.81792 -3.34532 0
M  V30 470 C 39.8528 4.005 -3.41301 0
M  V30 471 O 38.8788 3.9008 -4.14519 0
M  V30 472 N 40.0808 5.13618 -2.70512 0
M  V30 473 H 42.8458 1.06707 -2.8006 0
M  V30 474 H 40.4068 0.438129 -1.55859 0
M  V30 475 H 42.3988 3.48612 -2.05553 0
M  V30 476 H 40.9688 2.89862 -1.17041 0
M  V30 477 H 40.1888 1.90729 -3.44987 0
M  V30 478 H 41.4768 2.86043 -4.20781 0
M  V30 479 H 40.8748 5.24975 -2.10755 0
M  V30 480 H 39.4318 5.89505 -2.78077 0
M  V30 481 N 42.8649 1.48995 0.513639 0
M  V30 482 C 43.7969 1.60836 1.63293 0
M  V30 483 C 44.8099 0.491701 1.55197 0
M  V30 484 O 45.9989 0.763238 1.6136 0
M  V30 485 C 43.0989 1.53731 3.02027 0
M  V30 486 C 42.2719 2.80715 3.35437 0
M  V30 487 C 41.3309 2.66837 4.53525 0
M  V30 488 O 40.3569 3.40753 4.55934 0
M  V30 489 N 41.5589 1.77539 5.52684 0
M  V30 490 H 44.3239 2.57366 1.53566 0
M  V30 491 H 41.8849 1.45925 0.701259 0
M  V30 492 H 43.8769 1.42118 3.78926 0
M  V30 493 H 42.4469 0.651092 3.05744 0
M  V30 494 H 41.6669 3.06772 2.47557 0
M  V30 495 H 42.9549 3.64927 3.54551 0
M  V30 496 H 42.3529 1.16719 5.53528 0
M  V30 497 H 40.9099 1.71856 6.28736 0
M  V30 498 N 44.343 -0.763751 1.37857 0
M  V30 499 C 45.589 -1.52483 1.33704 0
M  V30 500 C 45.922 -1.94051 -0.0759612 0
M  V30 501 O 45.197 -1.64675 -1.03501 0
M  V30 502 C 45.48 -2.78441 2.28348 0
M  V30 503 C 45.333 -2.43075 3.78463 0
M  V30 504 C 46.652 -3.80415 2.21298 0
M  V30 505 H 43.771 -0.553169 0.487005 0
M  V30 506 H 46.413 -0.875562 1.68624 0
M  V30 507 H 44.563 -3.33842 1.987 0
M  V30 508 H 46.235 -1.93527 4.18742 0
M  V30 509 H 44.478 -1.75666 3.96641 0
M  V30 510 H 45.149 -3.33149 4.40132 0
M  V30 511 H 47.625 -3.34527 2.47449 0
M  V30 512 H 46.501 -4.66257 2.89647 0
M  V30 513 H 46.762 -4.25262 1.20849 0
M  V30 514 N 45.8211 -1.22559 -0.990812 0
M  V30 515 C 46.7311 -1.01394 -2.11557 0
M  V30 516 C 47.7471 0.0383962 -1.73958 0
M  V30 517 O 48.9231 -0.154787 -2.00804 0
M  V30 518 C 45.9881 -0.596569 -3.41529 0
M  V30 519 C 45.0491 -1.72276 -3.93217 0
M  V30 520 C 44.2821 -1.32521 -5.16985 0
M  V30 521 O 44.5051 -0.204909 -5.70032 0
M  V30 522 O 43.4391 -2.14247 -5.62478 0
M  V30 523 H 47.2651 -1.95633 -2.32296 0
M  V30 524 H 44.8501 -1.01172 -1.0993 0
M  V30 525 H 46.7321 -0.374263 -4.19735 0
M  V30 526 H 45.4071 0.316939 -3.22145 0
M  V30 527 H 44.3141 -1.99961 -3.16174 0
M  V30 528 H 45.6471 -2.61421 -4.17037 0
M  V30 529 N 47.2992 1.18797 -1.03562 0
M  V30 530 C 48.2292 2.24472 -0.643019 0
M  V30 531 C 49.2102 1.66433 0.351283 0
M  V30 532 O 50.3952 1.92803 0.232505 0
M  V30 533 C 47.5252 3.473 4.24935e-05 0
M  V30 534 C 46.4792 4.18055 -0.917257 0
M  V30 535 C 45.8052 5.34519 -0.138941 0
M  V30 536 C 47.1052 4.72109 -2.23407 0
M  V30 537 H 48.7992 2.57566 -1.52643 0
M  V30 538 H 46.3452 1.23806 -0.735394 0
M  V30 539 H 48.2982 4.20426 0.286383 0
M  V30 540 H 47.0222 3.13424 0.918299 0
M  V30 541 H 45.6812 3.46821 -1.1879 0
M  V30 542 H 45.3292 4.96891 0.781562 0
M  V30 543 H 45.0292 5.82794 -0.750005 0
M  V30 544 H 46.5532 6.10438 0.1405 0
M  V30 545 H 47.9672 5.36955 -2.00879 0
M  V30 546 H 46.3642 5.30897 -2.79765 0
M  V30 547 H 47.4342 3.89807 -2.88407 0
M  V30 548 N 48.7773 0.814389 1.34928 0
M  V30 549 C 50.0073 0.41054 2.0248 0
M  V30 550 C 50.4153 -0.985625 1.61499 0
M  V30 551 O 49.7583 -1.64781 0.811976 0
M  V30 552 C 49.8203 0.423384 3.56998 0
M  V30 553 C 49.4843 1.77141 4.21272 0
M  V30 554 C 50.4813 2.73093 4.42398 0
M  V30 555 C 48.1663 2.05755 4.58225 0
M  V30 556 C 50.1603 3.95838 4.9959 0
M  V30 557 C 47.8473 3.28762 5.1513 0
M  V30 558 C 48.8453 4.23621 5.35755 0
M  V30 559 O 48.5333 5.44456 5.91458 0
M  V30 560 H 48.2653 0.163997 0.655806 0
M  V30 561 H 50.8193 1.10155 1.73364 0
M  V30 562 H 49.0493 -0.324276 3.85338 0
M  V30 563 H 50.7383 0.0407683 4.0588 0
M  V30 564 H 51.5043 2.5228 4.14222 0
M  V30 565 H 47.3833 1.32727 4.4148 0
M  V30 566 H 50.9273 4.69891 5.15605 0
M  V30 567 H 46.8243 3.49443 5.42734 0
M  V30 568 H 47.5923 5.4586 6.09901 0
M  V30 569 N 50.2554 -1.46986 0.568584 0
M  V30 570 C 51.2184 -2.28624 -0.162366 0
M  V30 571 C 52.2184 -1.37596 -0.832103 0
M  V30 572 O 53.4084 -1.60115 -0.68622 0
M  V30 573 C 50.5404 -3.17596 -1.23878 0
M  V30 574 H 51.7334 -2.94722 0.554899 0
M  V30 575 H 49.2864 -1.52863 0.325976 0
M  V30 576 H 50.0214 -2.56214 -1.98808 0
M  V30 577 H 49.8064 -3.846 -0.763219 0
M  V30 578 H 51.2964 -3.79078 -1.75185 0
M  V30 579 N 51.7335 -0.305618 -1.54608 0
M  V30 580 C 52.6435 0.57778 -2.27374 0
M  V30 581 C 53.6595 1.14451 -1.31061 0
M  V30 582 O 54.8355 1.16831 -1.6405 0
M  V30 583 C 51.9005 1.73123 -3.00382 0
M  V30 584 C 50.9615 1.19812 -4.12242 0
M  V30 585 C 50.1945 2.2966 -4.81759 0
M  V30 586 O 50.4175 3.49651 -4.50666 0
M  V30 587 O 49.3515 1.96091 -5.69062 0
M  V30 588 H 53.1775 -0.012624 -3.03697 0
M  V30 589 H 50.7625 -0.0719184 -1.49227 0
M  V30 590 H 52.6445 2.40315 -3.4616 0
M  V30 591 H 51.3195 2.30815 -2.26949 0
M  V30 592 H 50.2265 0.491798 -3.70853 0
M  V30 593 H 51.5595 0.666566 -4.87666 0
M  V30 594 N 53.2116 1.57565 -0.0334293 0
M  V30 595 C 54.1416 2.13511 0.945265 0
M  V30 596 C 55.1226 1.05231 1.33643 0
M  V30 597 O 56.3076 1.33084 1.41429 0
M  V30 598 C 53.4376 2.6657 2.22616 0
M  V30 599 C 52.3916 3.79676 1.97561 0
M  V30 600 C 51.7176 4.1918 3.31952 0
M  V30 601 C 53.0176 5.0557 1.31135 0
M  V30 602 H 54.7116 2.95538 0.479325 0
M  V30 603 H 52.2576 1.42166 0.229115 0
M  V30 604 H 54.2106 3.04344 2.91466 0
M  V30 605 H 52.9346 1.8171 2.71384 0
M  V30 606 H 51.5936 3.42347 1.31127 0
M  V30 607 H 51.2416 3.31296 3.78487 0
M  V30 608 H 50.9416 4.95402 3.15992 0
M  V30 609 H 52.4656 4.59541 4.02063 0
M  V30 610 H 53.8796 5.40903 1.89992 0
M  V30 611 H 52.2766 5.86818 1.25559 0
M  V30 612 H 53.3466 4.84062 0.284894 0
M  V30 613 N 54.6897 -0.239769 1.55765 0
M  V30 614 C 55.6217 -1.32001 1.87372 0
M  V30 615 C 56.6347 -1.43944 0.760522 0
M  V30 616 O 57.8237 -1.45167 1.0387 0
M  V30 617 C 54.9237 -2.69779 2.05115 0
M  V30 618 C 54.0967 -2.80014 3.36022 0
M  V30 619 C 53.1557 -3.98684 3.4342 0
M  V30 620 O 52.1817 -3.87877 4.16582 0
M  V30 621 N 53.3837 -5.12176 2.73232 0
M  V30 622 H 56.1487 -1.0522 2.80622 0
M  V30 623 H 53.7097 -0.429857 1.56089 0
M  V30 624 H 55.7017 -3.47517 2.07399 0
M  V30 625 H 54.2717 -2.89237 1.18577 0
M  V30 626 H 53.4917 -1.88896 3.45994 0
M  V30 627 H 54.7797 -2.83808 4.22292 0
M  V30 628 H 54.1777 -5.2385 2.13536 0
M  V30 629 H 52.7347 -5.88022 2.81199 0
M  V30 630 N 56.1678 -1.49265 -0.50573 0
M  V30 631 C 57.1308 -1.65075 -1.59006 0
M  V30 632 C 58.1308 -0.522768 -1.52065 0
M  V30 633 O 59.3208 -0.789117 -1.55302 0
M  V30 634 C 56.4528 -1.64369 -2.98656 0
M  V30 635 H 57.6458 -2.61784 -1.46319 0
M  V30 636 H 55.1988 -1.38226 -0.729616 0
M  V30 637 H 55.9338 -0.692272 -3.16825 0
M  V30 638 H 55.7188 -2.46282 -3.05103 0
M  V30 639 H 57.2088 -1.78674 -3.77446 0
M  V30 640 N 57.6459 0.756429 -1.3826 0
M  V30 641 C 58.5789 1.87802 -1.29637 0
M  V30 642 C 59.5569 1.61667 -0.173939 0
M  V30 643 O 60.7409 1.85208 -0.350775 0
M  V30 644 C 57.8679 3.23354 -1.00797 0
M  V30 645 C 56.9139 3.68379 -2.14939 0
M  V30 646 S 57.7469 3.8025 -3.77054 0
M  V30 647 C 58.9029 5.18626 -3.50396 0
M  V30 648 H 59.1359 1.94829 -2.24564 0
M  V30 649 H 56.6689 0.919117 -1.24063 0
M  V30 650 H 58.6269 4.01637 -0.848413 0
M  V30 651 H 57.2879 3.14008 -0.0759369 0
M  V30 652 H 56.4809 4.66693 -1.90299 0
M  V30 653 H 56.0829 2.97242 -2.26988 0
M  V30 654 H 58.3749 6.04289 -3.06334 0
M  V30 655 H 59.3179 5.48286 -4.48094 0
M  V30 656 H 59.7259 4.87289 -2.84973 0
M  V30 657 N 59.124 1.23083 0.984299 0
M  V30 658 C 60.072 1.00593 2.09723 0
M  V30 659 C 61.066 -0.0538014 1.69315 0
M  V30 660 O 62.272 0.0993719 1.79725 0
M  V30 661 H 58.647 0.30817 0.685956 0
M  V30 662 H 60.618 1.95012 2.2586 0
M  V30 663 C 59.367 0.609601 3.42314 0
M  V30 664 H 58.69 1.41675 3.73856 0
M  V30 665 H 60.13 0.491726 4.21139 0
M  V30 666 C 58.589 -0.681745 3.2993 0
M  V30 667 O 59.119 -1.73192 3.62446 0
M  V30 668 N 57.325 -0.656178 2.83095 0
M  V30 669 H 56.872 0.198759 2.56832 0
M  V30 670 H 56.83 -1.52044 2.75191 0
M  V30 671 N 60.6021 -1.18246 1.0419 0
M  V30 672 C 61.8491 -1.88257 0.746017 0
M  V30 673 C 62.1771 -1.80429 -0.726331 0
M  V30 674 O 61.4321 -1.2 -1.54591 0
M  V30 675 C 61.7311 -3.38082 1.15911 0
M  V30 676 C 61.3971 -3.66114 2.63195 0
M  V30 677 C 60.0591 -3.73474 3.03432 0
M  V30 678 C 62.4111 -3.78398 3.5842 0
M  V30 679 C 59.7391 -3.90599 4.37778 0
M  V30 680 C 62.0911 -3.97039 4.92487 0
M  V30 681 C 60.7551 -4.02635 5.32392 0
M  V30 682 H 60.0251 -0.688883 0.272987 0
M  V30 683 H 62.6721 -1.3995 1.30715 0
M  V30 684 H 60.9771 -3.88377 0.516806 0
M  V30 685 H 62.6741 -3.90596 0.907516 0
M  V30 686 H 59.2641 -3.61003 2.3103 0
M  V30 687 H 63.4481 -3.72042 3.28479 0
M  V30 688 H 58.7041 -3.93175 4.68213 0
M  V30 689 H 62.8781 -4.05486 5.66175 0
M  V30 690 H 60.5051 -4.15657 6.36501 0
M  V30 691 N 62.0802 -0.821533 -1.34494 0
M  V30 692 C 62.9902 -0.244355 -2.33324 0
M  V30 693 C 64.0062 0.620527 -1.62559 0
M  V30 694 O 65.1822 0.528754 -1.94335 0
M  V30 695 C 62.2472 0.585368 -3.41723 0
M  V30 696 C 61.3082 -0.301752 -4.28238 0
M  V30 697 C 60.5412 0.488466 -5.3146 0
M  V30 698 O 60.7642 1.72186 -5.4379 0
M  V30 699 O 59.6982 -0.12848 -6.01763 0
M  V30 700 H 63.5242 -1.06231 -2.84515 0
M  V30 701 H 61.1092 -0.583645 -1.37528 0
M  V30 702 H 62.9912 1.05747 -4.07916 0
M  V30 703 H 61.6662 1.38068 -2.92778 0
M  V30 704 H 60.5732 -0.821315 -3.64973 0
M  V30 705 H 61.9062 -1.06138 -4.8062 0
M  V30 706 N 63.5583 1.46682 -0.576371 0
M  V30 707 C 64.4683 2.34032 0.163141 0
M  V30 708 C 65.4843 1.49367 0.892501 0
M  V30 709 O 66.6603 1.82252 0.857106 0
M  V30 710 C 63.7253 3.26435 1.16795 0
M  V30 711 C 62.7863 4.26998 0.443944 0
M  V30 712 C 62.0193 5.14986 1.40088 0
M  V30 713 O 62.2423 5.05785 2.637 0
M  V30 714 O 61.1763 5.94906 0.914917 0
M  V30 715 H 65.0023 2.98607 -0.55388 0
M  V30 716 H 62.5873 1.45554 -0.336821 0
M  V30 717 H 64.4693 3.83459 1.74748 0
M  V30 718 H 63.1443 2.64465 1.86655 0
M  V30 719 H 62.0513 3.7368 -0.177271 0
M  V30 720 H 63.3843 4.91736 -0.213566 0
M  V30 721 N 65.0364 0.313813 1.54444 0
M  V30 722 C 65.9664 -0.549454 2.26943 0
M  V30 723 C 66.9474 -1.12741 1.27372 0
M  V30 724 O 68.1324 -1.15436 1.56167 0
M  V30 725 C 65.2624 -1.71523 3.01989 0
M  V30 726 C 64.2164 -1.26703 4.08816 0
M  V30 727 C 63.5424 -2.51898 4.71647 0
M  V30 728 C 64.8424 -0.388962 5.2085 0
M  V30 729 H 66.5364 0.0552661 2.99349 0
M  V30 730 H 64.0824 0.0280207 1.43973 0
M  V30 731 H 66.0354 -2.32535 3.51433 0
M  V30 732 H 64.7594 -2.34639 2.27183 0
M  V30 733 H 63.4184 -0.679896 3.6024 0
M  V30 734 H 63.0664 -3.13356 3.93468 0
M  V30 735 H 62.7664 -2.22605 5.43802 0
M  V30 736 H 64.2904 -3.1369 5.23861 0
M  V30 737 H 65.7044 -0.905107 5.6611 0
M  V30 738 H 64.1014 -0.18924 5.99802 0
M  V30 739 H 65.1714 0.582699 4.81386 0
M  V30 740 N 66.5145 -1.57545 0.0417849 0
M  V30 741 C 67.4625 -2.12148 -0.953723 0
M  V30 742 C 68.4565 -1.05104 -1.32852 0
M  V30 743 O 69.6625 -1.23524 -1.30927 0
M  V30 744 H 66.0375 -0.677957 -0.325389 0
M  V30 745 H 68.0085 -2.94707 -0.467991 0
M  V30 746 C 66.7575 -2.6739 -2.22257 0
M  V30 747 H 66.0805 -3.49413 -1.94295 0
M  V30 748 H 67.5205 -3.09227 -2.90094 0
M  V30 749 C 65.9795 -1.60723 -2.96091 0
M  V30 750 O 66.5095 -1.01449 -3.88679 0
M  V30 751 N 64.7155 -1.32466 -2.58652 0
M  V30 752 H 64.2625 -1.80856 -1.83437 0
M  V30 753 H 64.2205 -0.61325 -3.08361 0
M  V30 754 N 67.9926 0.231505 -1.5589 0
M  V30 755 C 69.2396 0.957352 -1.78441 0
M  V30 756 C 69.5676 1.84726 -0.60882 0
M  V30 757 O 68.8226 1.91416 0.40725 0
M  V30 758 C 69.1216 1.83577 -3.0665 0
M  V30 759 C 68.7876 1.09993 -4.37278 0
M  V30 760 C 67.4496 0.896629 -4.72773 0
M  V30 761 C 69.8016 0.579558 -5.17968 0
M  V30 762 C 67.1296 0.160896 -5.86479 0
M  V30 763 C 69.4816 -0.142783 -6.32439 0
M  V30 764 C 68.1456 -0.357427 -6.66542 0
M  V30 765 H 67.4156 0.35032 -0.65296 0
M  V30 766 H 70.0626 0.226259 -1.90159 0
M  V30 767 H 68.3676 2.63441 -2.90011 0
M  V30 768 H 70.0646 2.39934 -3.21298 0
M  V30 769 H 66.6546 1.26835 -4.09403 0
M  V30 770 H 70.8386 0.724125 -4.90989 0
M  V30 771 H 66.0946 -0.0157293 -6.11398 0
M  V30 772 H 70.2686 -0.553559 -6.94196 0
M  V30 773 H 67.8956 -0.929466 -7.54497 0
M  V30 774 N 69.4707 1.49531 0.497807 0
M  V30 775 C 70.7177 1.59179 1.25173 0
M  V30 776 C 71.0457 0.279932 1.92475 0
M  V30 777 O 70.3007 -0.732383 1.81479 0
M  V30 778 C 70.5997 2.70252 2.33878 0
M  V30 779 C 70.2657 4.11644 1.84012 0
M  V30 780 C 68.9277 4.50121 1.70132 0
M  V30 781 C 71.2797 5.00121 1.46725 0
M  V30 782 C 68.6077 5.74845 1.17348 0
M  V30 783 C 70.9597 6.25366 0.95392 0
M  V30 784 C 69.6237 6.6267 0.801538 0
M  V30 785 H 68.8937 0.582478 0.45804 0
M  V30 786 H 71.5407 1.83373 0.551948 0
M  V30 787 H 69.8457 2.40041 3.09657 0
M  V30 788 H 71.5427 2.74925 2.9192 0
M  V30 789 H 68.1327 3.81274 1.95775 0
M  V30 790 H 72.3167 4.71048 1.56294 0
M  V30 791 H 67.5727 6.02444 1.04264 0
M  V30 792 H 71.7467 6.93301 0.656225 0
M  V30 793 H 69.3737 7.59197 0.390351 0
M  V30 794 N 70.9488 -0.749086 1.3866 0
M  V30 795 C 72.1958 -1.50833 1.35114 0
M  V30 796 C 72.5238 -1.94415 -0.0574049 0
M  V30 797 O 71.7788 -1.66065 -1.03541 0
M  V30 798 C 72.0778 -2.7712 2.25697 0
M  V30 799 C 71.7438 -2.52477 3.73585 0
M  V30 800 C 70.4058 -2.45466 4.13884 0
M  V30 801 C 72.7578 -2.31066 4.67181 0
M  V30 802 C 70.0858 -2.15064 5.45861 0
M  V30 803 C 72.4378 -2.02183 5.9942 0
M  V30 804 C 71.1018 -1.93631 6.38798 0
M  V30 805 H 70.3718 -0.551936 0.494416 0
M  V30 806 H 73.0188 -0.860979 1.71054 0
M  V30 807 H 71.3238 -3.46528 1.82827 0
M  V30 808 H 73.0208 -3.35096 2.20254 0
M  V30 809 H 69.6108 -2.58807 3.41638 0
M  V30 810 H 73.7948 -2.35459 4.3689 0
M  V30 811 H 69.0508 -2.06954 5.75308 0
M  V30 812 H 73.2248 -1.8462 6.71482 0
M  V30 813 H 70.8518 -1.69839 7.40985 0
M  V30 814 N 72.4269 -1.23603 -0.977757 0
M  V30 815 C 73.3589 -0.977369 -2.07317 0
M  V30 816 C 74.3719 0.0495845 -1.62724 0
M  V30 817 O 75.5609 -0.186261 -1.77526 0
M  V30 818 C 72.6609 -0.451216 -3.35883 0
M  V30 819 C 71.8339 -1.53896 -4.09432 0
M  V30 820 C 70.8929 -1.01721 -5.16274 0
M  V30 821 O 69.9189 -1.70676 -5.43009 0
M  V30 822 N 71.1209 0.153594 -5.80297 0
M  V30 823 H 73.8859 -1.92047 -2.30082 0
M  V30 824 H 71.4469 -1.14497 -1.14465 0
M  V30 825 H 73.4389 -0.0871574 -4.04606 0
M  V30 826 H 72.0089 0.397368 -3.10064 0
M  V30 827 H 71.2289 -2.07566 -3.35127 0
M  V30 828 H 72.5169 -2.27037 -4.55337 0
M  V30 829 H 71.9149 0.730323 -5.60966 0
M  V30 830 H 70.4719 0.458892 -6.50183 0
M  V30 831 N 73.905 1.17692 -1.04816 0
M  V30 832 C 74.852 2.21581 -0.645797 0
M  V30 833 C 75.822 1.62367 0.350159 0
M  V30 834 O 77.007 1.89254 0.242433 0
M  V30 835 C 74.147 3.45092 -0.0227568 0
M  V30 836 C 73.26 4.18613 -1.06709 0
M  V30 837 C 72.395 5.29602 -0.411767 0
M  V30 838 C 71.434 5.94904 -1.44067 0
M  V30 839 N 70.571 6.97414 -0.809781 0
M  V30 840 H 75.411 2.55353 -1.5362 0
M  V30 841 H 72.948 1.25438 -0.768364 0
M  V30 842 H 74.906 4.15679 0.35588 0
M  V30 843 H 73.536 3.11917 0.831122 0
M  V30 844 H 72.588 3.46779 -1.5636 0
M  V30 845 H 73.9 4.63293 -1.84827 0
M  V30 846 H 73.054 6.06696 0.0206623 0
M  V30 847 H 71.793 4.86045 0.401438 0
M  V30 848 H 70.798 5.16544 -1.88316 0
M  V30 849 H 72.023 6.40542 -2.25571 0
M  V30 850 H 69.969 6.55998 -0.0170186 0
M  V30 851 H 69.886 7.40386 -1.52856 0
M  V30 852 H 71.154 7.78463 -0.401999 0
M  V30 853 N 75.3831 0.828654 1.34056 0
M  V30 854 C 76.3461 0.259927 2.27721 0
M  V30 855 C 77.3461 -0.565478 1.50529 0
M  V30 856 O 78.5361 -0.38075 1.69988 0
M  V30 857 C 75.6681 -0.634944 3.34935 0
M  V30 858 H 76.8611 1.0863 2.79534 0
M  V30 859 H 74.4141 0.600951 1.44285 0
M  V30 860 H 75.1491 -1.48416 2.88346 0
M  V30 861 H 74.9341 -0.0444999 3.92075 0
M  V30 862 H 76.4241 -1.02648 4.04788 0
M  V30 863 N 76.8612 -1.46375 0.584142 0
M  V30 864 C 78.1102 -2.01585 0.0679741 0
M  V30 865 C 78.4232 -1.46109 -1.30045 0
M  V30 866 O 79.6292 -1.93148 -1.90804 0
M  V30 867 C 78.0852 -3.5983 0.0709207 0
M  V30 868 C 77.6932 -4.24303 1.43775 0
M  V30 869 C 79.4372 -4.22693 -0.391228 0
M  V30 870 C 77.3442 -5.74631 1.39834 0
M  V30 871 H 76.2742 -0.753689 0.0216421 0
M  V30 872 H 78.9252 -1.68093 0.736001 0
M  V30 873 H 77.3072 -3.90405 -0.663299 0
M  V30 874 H 78.4812 -4.05335 2.19181 0
M  V30 875 H 76.7962 -3.73539 1.84004 0
M  V30 876 H 79.3932 -5.3289 -0.439524 0
M  V30 877 H 79.7362 -3.91728 -1.40906 0
M  V30 878 H 80.2692 -3.96749 0.288974 0
M  V30 879 H 77.0082 -6.10258 2.39303 0
M  V30 880 H 76.5282 -5.95858 0.686505 0
M  V30 881 H 78.2072 -6.37375 1.11187 0
M  V30 882 N 78.3393 -0.321999 -1.54275 0
M  V30 883 C 79.2493 0.553631 -2.27974 0
M  V30 884 C 80.2653 1.13054 -1.32268 0
M  V30 885 O 81.4413 1.15084 -1.6528 0
M  V30 886 C 78.5063 1.69927 -3.02201 0
M  V30 887 C 77.5673 1.15433 -4.1349 0
M  V30 888 C 76.8003 2.24537 -4.84168 0
M  V30 889 O 77.0233 3.44852 -4.5435 0
M  V30 890 O 75.9573 1.90044 -5.7111 0
M  V30 891 H 79.7833 -0.0448345 -3.03667 0
M  V30 892 H 77.3683 -0.0877418 -1.49142 0
M  V30 893 H 79.2503 2.3663 -3.48689 0
M  V30 894 H 77.9253 2.28395 -2.29385 0
M  V30 895 H 76.8323 0.452436 -3.71354 0
M  V30 896 H 78.1653 0.614805 -4.88345 0
M  V30 897 N 79.8174 1.5752 -0.0501392 0
M  V30 898 C 81.0654 1.9227 0.622642 0
M  V30 899 C 81.3864 0.929083 1.71444 0
M  V30 900 O 80.6564 -0.0262186 1.95882 0
M  V30 901 H 79.2364 0.709739 0.232981 0
M  V30 902 H 81.8984 1.94628 -0.102898 0
M  V30 903 H 80.9944 2.93479 1.06191 0
M  V30 904 N 81.2955 -0.223234 1.56011 0
M  V30 905 C 82.5425 -0.947875 1.78946 0
M  V30 906 C 82.8705 -1.844 0.618608 0
M  V30 907 O 82.1255 -1.91629 -0.397093 0
M  V30 908 C 82.4245 -1.81948 3.0762 0
M  V30 909 C 82.0905 -1.07672 4.37856 0
M  V30 910 C 80.7525 -0.871544 4.73242 0
M  V30 911 C 83.1045 -0.552081 5.18268 0
M  V30 912 C 80.4325 -0.129791 5.86556 0
M  V30 913 C 82.7845 0.17632 6.32354 0
M  V30 914 C 81.4485 0.39277 6.66343 0
M  V30 915 H 80.7185 -0.346852 0.654809 0
M  V30 916 H 83.3655 -0.216171 1.90276 0
M  V30 917 H 81.6705 -2.61899 2.91404 0
M  V30 918 H 83.3675 -2.38227 3.22566 0
M  V30 919 H 79.9575 -1.24662 4.1007 0
M  V30 920 H 84.1415 -0.698076 4.91366 0
M  V30 921 H 79.3975 0.048153 6.11381 0
M  V30 922 H 83.5715 0.590367 6.93893 0
M  V30 923 H 81.1985 0.969466 7.53993 0
M  V30 924 N 82.7736 -1.49793 -0.48987 0
M  V30 925 C 83.7216 -1.67783 -1.61095 0
M  V30 926 C 84.7156 -0.543683 -1.60438 0
M  V30 927 O 85.9216 -0.723647 -1.64813 0
M  V30 928 H 82.2966 -0.529255 -0.534222 0
M  V30 929 H 84.2676 -2.61861 -1.43078 0
M  V30 930 C 83.0166 -1.77191 -2.99164 0
M  V30 931 H 82.3396 -2.63841 -3.0038 0
M  V30 932 H 83.7796 -1.93809 -3.77113 0
M  V30 933 C 82.2386 -0.519203 -3.32875 0
M  V30 934 O 82.7686 0.350124 -4.00171 0
M  V30 935 N 80.9746 -0.378816 -2.8812 0
M  V30 936 H 80.5216 -1.08725 -2.33531 0
M  V30 937 H 80.4796 0.458239 -3.11043 0
M  V30 938 N 84.2517 0.741722 -1.39055 0
M  V30 939 C 85.1837 1.8657 -1.33133 0
M  V30 940 C 86.1967 1.61001 -0.241329 0
M  V30 941 O 87.3857 1.7136 -0.499784 0
M  V30 942 C 84.4857 3.22457 -1.04283 0
M  V30 943 C 83.6587 3.75435 -2.24427 0
M  V30 944 C 82.7177 4.89867 -1.92138 0
M  V30 945 O 81.7437 5.03879 -2.64754 0
M  V30 946 N 82.9457 5.73738 -0.88347 0
M  V30 947 H 85.7107 1.92156 -2.29991 0
M  V30 948 H 83.2717 0.922172 -1.3307 0
M  V30 949 H 85.2637 3.9657 -0.807128 0
M  V30 950 H 83.8337 3.12181 -0.161807 0
M  V30 951 H 83.0537 2.92751 -2.6399 0
M  V30 952 H 84.3417 4.07563 -3.04581 0
M  V30 953 H 83.7397 5.64999 -0.281517 0
M  V30 954 H 82.2967 6.47947 -0.707662 0
M  V30 955 N 85.7298 1.2412 0.971189 0
M  V30 956 C 86.9548 1.10667 1.75407 0
M  V30 957 C 87.3798 -0.337048 1.85056 0
M  V30 958 O 86.7378 -1.24396 1.31892 0
M  V30 959 C 86.7858 1.74726 3.15441 0
M  V30 960 O 85.8898 1.01566 3.99697 0
M  V30 961 H 85.2308 0.387341 0.539317 0
M  V30 962 H 87.7608 1.64358 1.2185 0
M  V30 963 H 87.7708 1.80341 3.6598 0
M  V30 964 H 86.4458 2.79773 3.07734 0
M  V30 965 H 85.0228 1.03713 3.58187 0
M  V30 966 N 87.2079 -1.17134 1.05439 0
M  V30 967 C 88.4329 -1.91913 0.786396 0
M  V30 968 C 88.8579 -1.7643 -0.652234 0
M  V30 969 O 88.2159 -1.08372 -1.45345 0
M  V30 970 C 88.2639 -3.40921 1.17497 0
M  V30 971 O 87.3679 -4.11244 0.308589 0
M  V30 972 H 86.7089 -0.598215 0.288158 0
M  V30 973 H 89.2389 -1.48457 1.4079 0
M  V30 974 H 89.2489 -3.91668 1.14281 0
M  V30 975 H 87.9239 -3.5151 2.22292 0
M  V30 976 H 86.5009 -3.70731 0.40157 0
M  V30 977 N 88.686 -0.835752 -1.33615 0
M  V30 978 C 89.636 -0.238856 -2.26745 0
M  V30 979 C 90.62 0.604343 -1.49119 0
M  V30 980 O 91.812 0.456822 -1.71003 0
M  V30 981 C 88.941 0.587725 -3.38232 0
M  V30 982 C 88.027 -0.266811 -4.2326 0
M  V30 983 N 88.418 -1.34403 -4.87616 0
M  V30 984 C 86.716 -0.0533131 -4.45968 0
M  V30 985 C 87.417 -1.86819 -5.50884 0
M  V30 986 N 86.393 -1.17013 -5.30857 0
M  V30 987 H 90.195 -1.06266 -2.74016 0
M  V30 988 H 87.709 -0.679881 -1.47483 0
M  V30 989 H 89.706 1.03161 -4.03935 0
M  V30 990 H 88.366 1.40954 -2.9251 0
M  V30 991 H 89.377 -1.7269 -4.88261 0
M  V30 992 H 86.054 0.735312 -4.10974 0
M  V30 993 H 87.444 -2.7701 -6.1214 0
M  V30 994 N 90.1641 1.46063 -0.591896 0
M  V30 995 C 91.0961 2.28539 0.174001 0
M  V30 996 C 92.1091 1.39047 0.846753 0
M  V30 997 O 93.2981 1.63564 0.714774 0
M  V30 998 C 90.3981 3.14347 1.26645 0
M  V30 999 C 89.5711 4.32021 0.683856 0
M  V30 1000 C 88.6301 4.99157 1.66518 0
M  V30 1001 O 87.6561 5.56458 1.19763 0
M  V30 1002 N 88.8581 4.97005 2.99943 0
M  V30 1003 H 91.6231 2.94911 -0.533633 0
M  V30 1004 H 89.1841 1.56077 -0.430294 0
M  V30 1005 H 91.1761 3.56125 1.92242 0
M  V30 1006 H 89.7461 2.49988 1.87682 0
M  V30 1007 H 88.9661 3.93915 -0.1498 0
M  V30 1008 H 90.2541 5.08059 0.274567 0
M  V30 1009 H 89.6521 4.51714 3.40545 0
M  V30 1010 H 88.2091 5.42696 3.61004 0
M  V30 1011 N 91.6422 0.330177 1.54103 0
M  V30 1012 C 92.5892 -0.532762 2.24567 0
M  V30 1013 C 93.5592 -1.10635 1.23892 0
M  V30 1014 O 94.7442 -1.14546 1.5259 0
M  V30 1015 C 91.8842 -1.6845 3.01195 0
M  V30 1016 C 90.9972 -1.13951 4.167 0
M  V30 1017 C 90.1322 -2.25746 4.80845 0
M  V30 1018 C 89.1712 -1.6853 5.88442 0
M  V30 1019 N 88.3082 -2.74014 6.46421 0
M  V30 1020 H 93.1482 0.0746905 2.97906 0
M  V30 1021 H 90.6852 0.048632 1.4702 0
M  V30 1022 H 92.6432 -2.36234 3.43874 0
M  V30 1023 H 91.2732 -2.26314 2.30178 0
M  V30 1024 H 90.3252 -0.35301 3.78758 0
M  V30 1025 H 91.6372 -0.680892 4.94131 0
M  V30 1026 H 90.7912 -3.01422 5.26526 0
M  V30 1027 H 89.5302 -2.74947 4.0281 0
M  V30 1028 H 88.5352 -0.913543 5.42157 0
M  V30 1029 H 89.7602 -1.20198 6.68378 0
M  V30 1030 H 87.7062 -3.22494 5.71256 0
M  V30 1031 H 87.6232 -2.32735 7.19285 0
M  V30 1032 H 88.8912 -3.49499 6.96757 0
M  V30 1033 N 93.1203 -1.57491 0.0584922 0
M  V30 1034 C 94.0683 -2.13148 -0.931168 0
M  V30 1035 C 95.0623 -1.06507 -1.31729 0
M  V30 1036 O 96.2683 -1.24906 -1.29609 0
M  V30 1037 H 92.6433 -0.68137 -0.31818 0
M  V30 1038 H 94.6143 -2.95187 -0.436707 0
M  V30 1039 C 93.3633 -2.69732 -2.19408 0
M  V30 1040 H 92.6863 -3.51454 -1.90578 0
M  V30 1041 H 94.1263 -3.12287 -2.86798 0
M  V30 1042 C 92.5853 -1.63855 -2.94369 0
M  V30 1043 O 93.1153 -1.05565 -3.87581 0
M  V30 1044 N 91.3213 -1.35202 -2.57233 0
M  V30 1045 H 90.8683 -1.82791 -1.81508 0
M  V30 1046 H 90.8263 -0.645922 -3.07693 0
M  V30 1047 N 94.5984 0.214957 -1.56127 0
M  V30 1048 C 95.8444 0.939762 -1.79712 0
M  V30 1049 C 96.1774 1.83723 -0.629247 0
M  V30 1050 O 95.4524 1.90925 0.371197 0
M  V30 1051 C 95.7354 1.77306 -3.13424 0
M  V30 1052 C 95.5884 0.90164 -4.40671 0
M  V30 1053 C 96.9074 2.74956 -3.43638 0
M  V30 1054 H 94.0264 0.340214 -0.653776 0
M  V30 1055 H 96.6684 0.20824 -1.88855 0
M  V30 1056 H 94.8184 2.39673 -3.0576 0
M  V30 1057 H 96.4904 0.294206 -4.60361 0
M  V30 1058 H 94.7334 0.207368 -4.33304 0
M  V30 1059 H 95.4044 1.51923 -5.30682 0
M  V30 1060 H 97.8804 2.22724 -3.51473 0
M  V30 1061 H 96.7564 3.30358 -4.38355 0
M  V30 1062 H 97.0174 3.53023 -2.66134 0
M  V30 1063 N 96.0765 1.50051 0.48192 0
M  V30 1064 C 97.3535 1.51009 1.2432 0
M  V30 1065 C 97.7335 0.248587 2.09631 0
M  V30 1066 O 97.0815 -0.768409 2.15192 0
M  V30 1067 C 97.2915 2.79981 2.08355 0
M  V30 1068 C 98.6395 3.3022 2.66908 0
M  V30 1069 O 99.6635 2.81228 2.18607 0
M  V30 1070 O 98.5225 4.15595 3.54884 0
M  V30 1071 H 95.6165 0.605239 0.563573 0
M  V30 1072 H 98.1625 1.62332 0.494627 0
M  V30 1073 H 96.9345 3.63275 1.45419 0
M  V30 1074 H 96.5575 2.7161 2.90368 0
M  V30 1075 N 97.5546 -0.734337 1.39446 0
M  V30 1076 C 98.5176 -1.83004 1.37994 0
M  V30 1077 C 99.5176 -1.58397 0.276938 0
M  V30 1078 O 100.708 -1.65785 0.534875 0
M  V30 1079 C 97.8396 -3.20802 1.1532 0
M  V30 1080 H 99.0326 -1.85694 2.35494 0
M  V30 1081 H 96.5856 -0.938059 1.25021 0
M  V30 1082 H 97.3206 -3.23772 0.185036 0
M  V30 1083 H 97.1056 -3.4006 1.95197 0
M  V30 1084 H 98.5956 -4.00862 1.17046 0
M  V30 1085 N 99.0327 -1.24633 -0.964593 0
M  V30 1086 C 100.449 -1.01239 -1.2338 0
M  V30 1087 C 100.649 0.2769 -1.99588 0
M  V30 1088 O 99.7047 0.992241 -2.32187 0
M  V30 1089 C 101.018 -2.22937 -2.01791 0
M  V30 1090 C 102.566 -2.27594 -2.14872 0
M  V30 1091 C 103.041 -3.48921 -2.96678 0
M  V30 1092 N 104.532 -3.49257 -3.04259 0
M  V30 1093 C 105.267 -4.39795 -3.67924 0
M  V30 1094 N 104.763 -5.40591 -4.33281 0
M  V30 1095 N 106.556 -4.275 -3.64966 0
M  V30 1096 H 98.7067 -2.0748 -0.454502 0
M  V30 1097 H 100.97 -0.910647 -0.26349 0
M  V30 1098 H 100.676 -3.16587 -1.53184 0
M  V30 1099 H 100.55 -2.25306 -3.02518 0
M  V30 1100 H 102.937 -1.34473 -2.6268 0
M  V30 1101 H 103.018 -2.2925 -1.13482 0
M  V30 1102 H 102.662 -4.42359 -2.49562 0
M  V30 1103 H 102.592 -3.4451 -3.98272 0
M  V30 1104 H 105.083 -2.76337 -2.57771 0
M  V30 1105 H 105.396 -6.05904 -4.79687 0
M  V30 1106 H 103.741 -5.44475 -4.3194 0
M  V30 1107 H 106.932 -3.47987 -3.13086 0
M  V30 1108 H 107.105 -4.98258 -4.14298 0
M  V30 1109 N 100.511 1.16574 -1.06058 0
M  V30 1110 C 101.444 2.19798 -0.61352 0
M  V30 1111 C 102.422 1.58509 0.362453 0
M  V30 1112 O 103.606 1.86527 0.271994 0
M  V30 1113 C 100.733 3.3855 0.100915 0
M  V30 1114 C 99.7788 4.18317 -0.831438 0
M  V30 1115 S 100.612 4.82375 -2.32539 0
M  V30 1116 C 101.768 6.04508 -1.62238 0
M  V30 1117 H 102.001 2.5738 -1.48805 0
M  V30 1118 H 99.5338 1.27327 -0.873338 0
M  V30 1119 H 101.492 4.07358 0.506898 0
M  V30 1120 H 100.153 2.99338 0.951604 0
M  V30 1121 H 99.3458 5.03232 -0.278071 0
M  V30 1122 H 98.9478 3.5499 -1.17719 0
M  V30 1123 H 101.24 6.71133 -0.926622 0
M  V30 1124 H 102.183 6.64389 -2.44934 0
M  V30 1125 H 102.591 5.53559 -1.106 0
M  V30 1126 N 101.989 0.842826 1.3317 0
M  V30 1127 C 102.899 0.281444 2.32906 0
M  V30 1128 C 103.915 -0.594587 1.63526 0
M  V30 1129 O 105.091 -0.49777 1.95152 0
M  V30 1130 C 102.156 -0.530929 3.42611 0
M  V30 1131 C 101.217 0.369843 4.27704 0
M  V30 1132 C 100.45 -0.403853 5.3217 0
M  V30 1133 O 100.673 -1.63513 5.46461 0
M  V30 1134 O 99.6069 0.224199 6.01482 0
M  V30 1135 H 103.433 1.10744 2.82789 0
M  V30 1136 H 101.018 0.60545 1.36582 0
M  V30 1137 H 102.9 -0.992437 4.09547 0
M  V30 1138 H 101.575 -1.33392 2.94938 0
M  V30 1139 H 100.482 0.879275 3.6362 0
M  V30 1140 H 101.815 1.13771 4.78871 0
M  V30 1141 N 103.467 -1.45747 0.599634 0
M  V30 1142 C 104.878 -1.85853 0.177681 0
M  V30 1143 C 105.229 -1.50102 -1.26348 0
M  V30 1144 O 104.354 -0.923905 -1.95686 0
M  V30 1145 C 104.949 -3.37326 0.315688 0
M  V30 1146 C 103.508 -3.76365 -0.0515144 0
M  V30 1147 C 102.655 -2.69722 0.643822 0
M  V30 1148 H 105.606 -1.36661 0.806814 0
M  V30 1149 H 105.627 -3.77778 -0.454321 0
M  V30 1150 H 105.139 -3.63315 1.36468 0
M  V30 1151 H 103.24 -3.55993 -1.09999 0
M  V30 1152 H 103.353 -4.77916 0.336594 0
M  V30 1153 H 101.717 -2.54567 0.0822881 0
M  V30 1154 H 102.5 -2.98549 1.6948 0
M  V30 1155 N 104.945 -0.338344 -1.53925 0
M  V30 1156 C 106.191 0.260143 -2.01125 0
M  V30 1157 C 106.524 1.50617 -1.22589 0
M  V30 1158 O 105.799 1.91979 -0.312113 0
M  V30 1159 C 106.082 0.579499 -3.55407 0
M  V30 1160 C 105.935 -0.678264 -4.44657 0
M  V30 1161 C 107.254 1.39122 -4.17532 0
M  V30 1162 H 104.373 0.0930772 -0.731099 0
M  V30 1163 H 107.015 -0.457852 -1.84401 0
M  V30 1164 H 105.165 1.19118 -3.69788 0
M  V30 1165 H 106.837 -1.31631 -4.42121 0
M  V30 1166 H 105.08 -1.3042 -4.13731 0
M  V30 1167 H 105.751 -0.410143 -5.50474 0
M  V30 1168 H 108.227 0.874035 -4.06817 0
M  V30 1169 H 107.103 1.58342 -5.25565 0
M  V30 1170 H 107.364 2.39178 -3.71815 0
M  V30 1171 N 106.423 1.57458 -0.0668435 0
M  V30 1172 C 107.834 1.80776 0.466558 0
M  V30 1173 C 108.185 0.980361 1.69951 0
M  V30 1174 O 107.31 0.201441 2.1546 0
M  V30 1175 C 107.905 3.27881 0.85321 0
M  V30 1176 C 106.464 3.52062 1.3315 0
M  V30 1177 C 105.611 2.75513 0.314264 0
M  V30 1178 H 108.562 1.5598 -0.292588 0
M  V30 1179 H 108.583 3.39659 1.715 0
M  V30 1180 H 108.095 3.88075 -0.0443439 0
M  V30 1181 H 106.196 2.97167 2.24772 0
M  V30 1182 H 106.309 4.60762 1.31285 0
M  V30 1183 H 104.673 2.42123 0.790492 0
M  V30 1184 H 105.456 3.38442 -0.575477 0
M  V30 1185 N 107.901 -0.206675 1.56239 0
M  V30 1186 C 109.317 -0.557025 1.49564 0
M  V30 1187 C 109.517 -1.86424 0.764735 0
M  V30 1188 O 108.573 -2.50584 0.310491 0
M  V30 1189 C 109.886 -0.622478 2.94186 0
M  V30 1190 C 111.434 -0.712099 3.04792 0
M  V30 1191 C 111.909 -0.808767 4.50803 0
M  V30 1192 N 113.4 -0.8726 4.54907 0
M  V30 1193 C 114.135 -0.967365 5.65181 0
M  V30 1194 N 113.631 -1.02515 6.85173 0
M  V30 1195 N 115.424 -1.00366 5.53067 0
M  V30 1196 H 107.575 0.650943 2.02179 0
M  V30 1197 H 109.838 0.230387 0.919579 0
M  V30 1198 H 109.544 0.268727 3.50672 0
M  V30 1199 H 109.418 -1.4811 3.46905 0
M  V30 1200 H 111.805 -1.59374 2.48363 0
M  V30 1201 H 111.886 0.172489 2.55218 0
M  V30 1202 H 111.53 0.0684754 5.07854 0
M  V30 1203 H 111.46 -1.70899 4.98098 0
M  V30 1204 H 113.951 -0.837657 3.68499 0
M  V30 1205 H 114.264 -1.09765 7.64965 0
M  V30 1206 H 112.609 -0.994026 6.87855 0
M  V30 1207 H 115.8 -0.95527 4.58249 0
M  V30 1208 H 115.973 -1.07405 6.39037 0
M  V30 1209 N 109.379 -1.50304 -0.473955 0
M  V30 1210 C 110.289 -1.7174 -1.5982 0
M  V30 1211 C 111.305 -0.600457 -1.63311 0
M  V30 1212 O 112.481 -0.878441 -1.81233 0
M  V30 1213 C 109.546 -1.80427 -2.96052 0
M  V30 1214 C 108.607 -3.04148 -3.02972 0
M  V30 1215 C 107.84 -3.12411 -4.32706 0
M  V30 1216 O 108.063 -2.27542 -5.23049 0
M  V30 1217 O 106.997 -4.05113 -4.45159 0
M  V30 1218 H 110.823 -2.67035 -1.44657 0
M  V30 1219 H 108.408 -1.34366 -0.653148 0
M  V30 1220 H 110.29 -1.88338 -3.7697 0
M  V30 1221 H 108.965 -0.883156 -3.11419 0
M  V30 1222 H 107.872 -3.0174 -2.21142 0
M  V30 1223 H 109.205 -3.95829 -2.92541 0
M  V30 1224 N 110.857 0.726932 -1.39834 0
M  V30 1225 C 112.103 1.48884 -1.377 0
M  V30 1226 C 112.436 1.94185 0.0244852 0
M  V30 1227 O 111.711 1.67361 0.990986 0
M  V30 1228 C 111.994 2.72288 -2.3565 0
M  V30 1229 C 111.847 2.32956 -3.84775 0
M  V30 1230 C 113.166 3.74414 -2.31306 0
M  V30 1231 H 110.285 0.540062 -0.5015 0
M  V30 1232 H 112.927 0.830547 -1.70886 0
M  V30 1233 H 111.077 3.28457 -2.07481 0
M  V30 1234 H 112.749 1.82356 -4.23726 0
M  V30 1235 H 110.992 1.65088 -4.01159 0
M  V30 1236 H 111.663 3.21362 -4.4881 0
M  V30 1237 H 114.139 3.27849 -2.56231 0
M  V30 1238 H 113.015 4.58414 -3.01907 0
M  V30 1239 H 113.276 4.21909 -1.32081 0
M  V30 1240 N 112.336 1.25143 0.95797 0
M  V30 1241 C 113.266 1.07711 2.07173 0
M  V30 1242 C 114.247 -0.0128462 1.70095 0
M  V30 1243 O 115.432 0.156061 1.93572 0
M  V30 1244 C 112.562 0.691503 3.40346 0
M  V30 1245 C 111.516 1.73132 3.9142 0
M  V30 1246 C 110.842 1.20049 5.21049 0
M  V30 1247 C 112.142 3.1294 4.1817 0
M  V30 1248 H 113.836 2.00873 2.22014 0
M  V30 1249 H 111.382 0.967191 1.06684 0
M  V30 1250 H 113.335 0.556505 4.17709 0
M  V30 1251 H 112.059 -0.275819 3.25433 0
M  V30 1252 H 110.718 1.8547 3.16222 0
M  V30 1253 H 110.366 0.223499 5.02503 0
M  V30 1254 H 110.066 1.89545 5.56189 0
M  V30 1255 H 111.59 1.07782 6.01012 0
M  V30 1256 H 113.004 3.03775 4.86203 0
M  V30 1257 H 111.401 3.79875 4.64559 0
M  V30 1258 H 112.471 3.6025 3.24573 0
M  V30 1259 N 113.814 -1.1601 1.06675 0
M  V30 1260 C 115.062 -1.86264 0.784229 0
M  V30 1261 C 115.383 -1.82328 -0.691488 0
M  V30 1262 O 114.653 -1.25947 -1.50047 0
M  V30 1263 H 113.233 -0.689621 0.28711 0
M  V30 1264 H 115.895 -1.40664 1.34906 0
M  V30 1265 H 114.991 -2.91595 1.11259 0
M  V30 1266 N 115.292 -0.849877 -1.32721 0
M  V30 1267 C 116.517 -0.463856 -2.02146 0
M  V30 1268 C 116.942 0.930449 -1.63476 0
M  V30 1269 O 116.3 1.61033 -0.832952 0
M  V30 1270 C 116.348 -0.604955 -3.55489 0
M  V30 1271 O 115.452 0.36425 -4.10788 0
M  V30 1272 H 114.793 -0.187046 -0.637111 0
M  V30 1273 H 117.323 -1.14775 -1.69375 0
M  V30 1274 H 117.333 -0.490696 -4.05038 0
M  V30 1275 H 116.008 -1.62174 -3.82978 0
M  V30 1276 H 114.585 0.206628 -3.72327 0
M  V30 1277 N 116.77 1.45427 -0.607355 0
M  V30 1278 C 117.733 2.28974 0.101693 0
M  V30 1279 C 118.733 1.39754 0.795329 0
M  V30 1280 O 119.923 1.61878 0.643527 0
M  V30 1281 C 117.055 3.20768 1.15414 0
M  V30 1282 H 118.248 2.93147 -0.632844 0
M  V30 1283 H 115.801 1.51945 -0.366391 0
M  V30 1284 H 116.536 2.61395 1.91945 0
M  V30 1285 H 116.321 3.86489 0.66098 0
M  V30 1286 H 117.811 3.83589 1.65073 0
M  V30 1287 N 118.248 0.346503 1.53744 0
M  V30 1288 C 119.476 -0.25041 2.05379 0
M  V30 1289 C 119.891 -1.43979 1.22129 0
M  V30 1290 O 119.248 -1.80677 0.257321 0
M  V30 1291 C 119.299 -0.662575 3.55376 0
M  V30 1292 O 119.02 0.479515 4.35468 0
M  V30 1293 C 120.521 -1.31989 4.23195 0
M  V30 1294 H 117.741 -0.0478198 0.669294 0
M  V30 1295 H 120.285 0.499346 1.9831 0
M  V30 1296 H 118.44 -1.36227 3.62658 0
M  V30 1297 H 118.854 0.15037 5.24284 0
M  V30 1298 H 120.328 -1.55902 5.29527 0
M  V30 1299 H 120.805 -2.27436 3.75725 0
M  V30 1300 H 121.411 -0.662154 4.20114 0
M  V30 1301 N 119.726 -1.57421 0.075193 0
M  V30 1302 C 121.142 -1.57099 -0.281444 0
M  V30 1303 C 121.342 -1.08486 -1.69803 0
M  V30 1304 O 120.398 -0.752279 -2.41033 0
M  V30 1305 C 121.711 -3.00571 -0.0880041 0
M  V30 1306 C 123.259 -3.12605 -0.157281 0
M  V30 1307 C 123.734 -4.57999 0.0079207 0
M  V30 1308 N 125.225 -4.63176 -0.0475725 0
M  V30 1309 C 125.96 -5.73373 0.0557876 0
M  V30 1310 N 125.456 -6.92473 0.21286 0
M  V30 1311 N 127.249 -5.621 -0.00152098 0
M  V30 1312 H 119.4 -1.87335 1.00098 0
M  V30 1313 H 121.663 -0.86377 0.390646 0
M  V30 1314 H 121.369 -3.40262 0.889629 0
M  V30 1315 H 121.243 -3.67754 -0.838875 0
M  V30 1316 H 123.63 -2.72798 -1.1254 0
M  V30 1317 H 123.711 -2.48053 0.62475 0
M  V30 1318 H 123.355 -4.98496 0.972824 0
M  V30 1319 H 123.285 -5.20586 -0.793556 0
M  V30 1320 H 125.776 -3.7753 -0.167244 0
M  V30 1321 H 126.089 -7.72279 0.283781 0
M  V30 1322 H 124.434 -6.94556 0.248267 0
M  V30 1323 H 127.625 -4.67938 -0.122958 0
M  V30 1324 H 127.798 -6.47948 0.0824844 0
M  V30 1325 N 121.204 0.198386 -1.56346 0
M  V30 1326 C 122.481 0.944982 -1.71258 0
M  V30 1327 C 122.861 2.0151 -0.629048 0
M  V30 1328 O 122.209 2.25639 0.360473 0
M  V30 1329 C 122.419 1.5344 -3.1346 0
M  V30 1330 C 123.767 2.01778 -3.73591 0
M  V30 1331 O 124.791 1.63288 -3.16568 0
M  V30 1332 O 123.65 2.72594 -4.73661 0
M  V30 1333 H 120.744 0.442939 -0.69838 0
M  V30 1334 H 123.29 0.188342 -1.68652 0
M  V30 1335 H 122.062 0.762869 -3.83792 0
M  V30 1336 H 121.685 2.35596 -3.20282 0
M  V30 1337 N 122.682 1.50554 0.465978 0
M  V30 1338 C 123.614 1.65949 1.58093 0
M  V30 1339 C 124.627 0.540827 1.53554 0
M  V30 1340 O 125.816 0.814187 1.5885 0
M  V30 1341 C 122.916 1.63261 2.96983 0
M  V30 1342 C 122.089 2.91245 3.26336 0
M  V30 1343 C 121.148 2.8113 4.44806 0
M  V30 1344 O 120.174 3.55086 4.44862 0
M  V30 1345 N 121.376 1.95032 5.46756 0
M  V30 1346 H 124.141 2.62122 1.45301 0
M  V30 1347 H 121.702 1.48082 0.65448 0
M  V30 1348 H 123.694 1.54101 3.74212 0
M  V30 1349 H 122.264 0.748032 3.03518 0
M  V30 1350 H 121.484 3.14493 2.37672 0
M  V30 1351 H 122.772 3.76022 3.42761 0
M  V30 1352 H 122.17 1.3427 5.49534 0
M  V30 1353 H 120.727 1.91772 6.2295 0
M  V30 1354 N 124.16 -0.719506 1.40217 0
M  V30 1355 C 125.437 -1.47221 1.28784 0
M  V30 1356 C 125.817 -2.10883 -0.0956067 0
M  V30 1357 O 125.165 -1.99833 -1.10811 0
M  V30 1358 C 125.375 -2.5111 2.42373 0
M  V30 1359 C 126.723 -3.17053 2.82423 0
M  V30 1360 O 127.747 -2.61429 2.41937 0
M  V30 1361 O 126.606 -4.17742 3.52355 0
M  V30 1362 H 123.7 -0.654491 0.50554 0
M  V30 1363 H 126.246 -0.752014 1.52128 0
M  V30 1364 H 125.018 -2.02556 3.34793 0
M  V30 1365 H 124.641 -3.3067 2.20778 0
M  V30 1366 N 125.638 -1.25649 -0.95132 0
M  V30 1367 C 126.57 -1.02112 -2.05197 0
M  V30 1368 C 127.583 0.0150571 -1.62793 0
M  V30 1369 O 128.772 -0.223874 -1.77091 0
M  V30 1370 C 125.872 -0.522361 -3.3485 0
M  V30 1371 C 125.045 -1.62546 -4.06076 0
M  V30 1372 C 124.104 -1.12649 -5.14001 0
M  V30 1373 O 123.13 -1.82156 -5.39266 0
M  V30 1374 N 124.332 0.03047 -5.80492 0
M  V30 1375 H 127.097 -1.96885 -2.25957 0
M  V30 1376 H 124.658 -1.16899 -1.1201 0
M  V30 1377 H 126.65 -0.172961 -4.0433 0
M  V30 1378 H 125.22 0.33151 -3.10837 0
M  V30 1379 H 124.44 -2.14628 -3.30649 0
M  V30 1380 H 125.728 -2.36644 -4.50419 0
M  V30 1381 H 125.126 0.611169 -5.62389 0
M  V30 1382 H 123.683 0.320875 -6.5101 0
M  V30 1383 N 127.117 1.15442 -1.07289 0
M  V30 1384 C 128.047 2.22312 -0.714107 0
M  V30 1385 C 129.028 1.67467 0.298155 0
M  V30 1386 O 130.213 1.93445 0.171048 0
M  V30 1387 C 127.343 3.47124 -0.110448 0
M  V30 1388 C 126.297 4.14926 -1.04979 0
M  V30 1389 C 125.623 5.33807 -0.308924 0
M  V30 1390 C 126.923 4.64762 -2.38314 0
M  V30 1391 H 128.617 2.5258 -1.6076 0
M  V30 1392 H 126.163 1.21404 -0.77441 0
M  V30 1393 H 128.116 4.21124 0.152482 0
M  V30 1394 H 126.84 3.16187 0.81812 0
M  V30 1395 H 125.499 3.42866 -1.29764 0
M  V30 1396 H 125.147 4.99126 0.623084 0
M  V30 1397 H 124.847 5.80113 -0.935036 0
M  V30 1398 H 126.371 6.10576 -0.0537771 0
M  V30 1399 H 127.785 5.30292 -2.1786 0
M  V30 1400 H 126.182 5.21728 -2.96514 0
M  V30 1401 H 127.252 3.80434 -3.00663 0
M  V30 1402 N 128.595 0.856903 1.32268 0
M  V30 1403 C 129.527 0.260412 2.27716 0
M  V30 1404 C 130.54 -0.569137 1.52528 0
M  V30 1405 O 131.729 -0.39326 1.74114 0
M  V30 1406 C 128.829 -0.650477 3.32599 0
M  V30 1407 C 128.002 0.14372 4.37164 0
M  V30 1408 C 127.061 -0.69328 5.21613 0
M  V30 1409 O 126.087 -0.12599 5.69061 0
M  V30 1410 N 127.289 -2.00761 5.44679 0
M  V30 1411 H 130.054 1.08059 2.79541 0
M  V30 1412 H 127.615 0.717103 1.45152 0
M  V30 1413 H 129.607 -1.21581 3.86005 0
M  V30 1414 H 128.177 -1.37133 2.80915 0
M  V30 1415 H 127.397 0.890486 3.8401 0
M  V30 1416 H 128.685 0.68915 5.04111 0
M  V30 1417 H 128.083 -2.49181 5.07863 0
M  V30 1418 H 126.64 -2.52103 6.01072 0
M  V30 1419 N 130.073 -1.45103 0.615059 0
M  V30 1420 C 131.036 -2.29025 -0.0895485 0
M  V30 1421 C 132.036 -1.40174 -0.787906 0
M  V30 1422 O 133.226 -1.62217 -0.634933 0
M  V30 1423 C 130.358 -3.21376 -1.13711 0
M  V30 1424 H 131.551 -2.92807 0.648382 0
M  V30 1425 H 129.104 -1.51749 0.374444 0
M  V30 1426 H 129.839 -2.6241 -1.90556 0
M  V30 1427 H 129.624 -3.86834 -0.640475 0
M  V30 1428 H 131.114 -3.84459 -1.63036 0
M  V30 1429 N 131.551 -0.354651 -1.53558 0
M  V30 1430 C 132.797 0.231422 -2.02079 0
M  V30 1431 C 133.152 1.47308 -1.23767 0
M  V30 1432 O 132.445 1.8891 -0.319947 0
M  V30 1433 C 132.639 0.587121 -3.52545 0
M  V30 1434 C 132.468 -0.618513 -4.45426 0
M  V30 1435 C 131.238 -1.12724 -4.92566 0
M  V30 1436 C 133.436 -1.48039 -4.92533 0
M  V30 1437 N 131.418 -2.29404 -5.69427 0
M  V30 1438 C 132.789 -2.49397 -5.67628 0
M  V30 1439 C 134.844 -1.50454 -4.74624 0
M  V30 1440 C 133.547 -3.53013 -6.26717 0
M  V30 1441 C 135.573 -2.52958 -5.34571 0
M  V30 1442 C 134.935 -3.5304 -6.09543 0
M  V30 1443 H 131.034 0.0476909 -0.780544 0
M  V30 1444 H 133.618 -0.496727 -1.88257 0
M  V30 1445 H 131.789 1.28436 -3.6655 0
M  V30 1446 H 133.521 1.15734 -3.87799 0
M  V30 1447 H 130.276 -0.693577 -4.68494 0
M  V30 1448 H 130.7 -2.88347 -6.12524 0
M  V30 1449 H 135.342 -0.744356 -4.16196 0
M  V30 1450 H 133.06 -4.2992 -6.84247 0
M  V30 1451 H 136.646 -2.55667 -5.22614 0
M  V30 1452 H 135.526 -4.31056 -6.55103 0
M  V30 1453 N 133.029 1.57378 -0.0835403 0
M  V30 1454 C 133.939 2.16897 0.894021 0
M  V30 1455 C 134.955 1.13528 1.31861 0
M  V30 1456 O 136.131 1.45848 1.3889 0
M  V30 1457 C 133.196 2.72831 2.13925 0
M  V30 1458 C 132.257 3.91115 1.76997 0
M  V30 1459 C 131.49 4.44371 2.95584 0
M  V30 1460 O 131.713 3.96596 4.09961 0
M  V30 1461 O 130.647 5.35549 2.74719 0
M  V30 1462 H 134.473 3.00814 0.417679 0
M  V30 1463 H 132.058 1.48741 0.140181 0
M  V30 1464 H 133.94 3.0863 2.86924 0
M  V30 1465 H 132.615 1.91967 2.60635 0
M  V30 1466 H 131.522 3.60148 1.01214 0
M  V30 1467 H 132.855 4.73307 1.3506 0
M  V30 1468 N 134.507 -0.190092 1.56449 0
M  V30 1469 C 135.732 -0.929864 1.85387 0
M  V30 1470 C 136.157 -1.7585 0.667704 0
M  V30 1471 O 135.515 -1.77198 -0.383459 0
M  V30 1472 C 135.563 -1.79773 3.12593 0
M  V30 1473 O 134.667 -2.89713 2.93496 0
M  V30 1474 H 134.008 -0.261574 0.610307 0
M  V30 1475 H 136.538 -0.193896 2.03679 0
M  V30 1476 H 136.548 -2.20139 3.43515 0
M  V30 1477 H 135.223 -1.18892 3.98544 0
M  V30 1478 H 133.8 -2.53065 2.73884 0
M  V30 1479 N 135.985 -1.50799 -0.457987 0
M  V30 1480 C 136.895 -1.73426 -1.57989 0
M  V30 1481 C 137.911 -0.617745 -1.62665 0
M  V30 1482 O 139.087 -0.897614 -1.80291 0
M  V30 1483 C 136.152 -1.83557 -2.94122 0
M  V30 1484 C 135.213 -3.07345 -2.99729 0
M  V30 1485 C 134.446 -3.16983 -4.29368 0
M  V30 1486 O 134.669 -2.33077 -5.20607 0
M  V30 1487 O 133.603 -4.09812 -4.40837 0
M  V30 1488 H 137.429 -2.68555 -1.41817 0
M  V30 1489 H 135.014 -1.35052 -0.638859 0
M  V30 1490 H 136.896 -1.92326 -3.74952 0
M  V30 1491 H 135.571 -0.916137 -3.10465 0
M  V30 1492 H 134.478 -3.04068 -2.1793 0
M  V30 1493 H 135.811 -3.9891 -2.88326 0
M  V30 1494 N 137.463 0.71206 -1.40597 0
M  V30 1495 C 138.711 1.46907 -1.38791 0
M  V30 1496 C 139.032 1.94998 0.00780391 0
M  V30 1497 O 138.302 1.70587 0.963174 0
M  V30 1498 H 136.882 0.545043 -0.51082 0
M  V30 1499 H 139.544 0.843882 -1.75683 0
M  V30 1500 H 138.64 2.34021 -2.06496 0
M  V30 1501 N 138.941 1.26152 0.944643 0
M  V30 1502 C 139.871 1.09902 2.06019 0
M  V30 1503 C 140.852 0.00519538 1.70099 0
M  V30 1504 O 142.037 0.176583 1.93396 0
M  V30 1505 C 139.167 0.727562 3.39594 0
M  V30 1506 C 138.121 1.77274 3.89561 0
M  V30 1507 C 137.447 1.25569 5.19747 0
M  V30 1508 C 138.747 3.17357 4.14827 0
M  V30 1509 H 140.441 2.03217 2.19871 0
M  V30 1510 H 137.987 0.978452 1.05652 0
M  V30 1511 H 139.94 0.600777 4.17095 0
M  V30 1512 H 138.664 -0.241287 3.25707 0
M  V30 1513 H 137.323 1.88814 3.14237 0
M  V30 1514 H 136.971 0.276783 5.02238 0
M  V30 1515 H 136.671 1.95433 5.54148 0
M  V30 1516 H 138.195 1.1415 5.99835 0
M  V30 1517 H 139.609 3.08914 4.82954 0
M  V30 1518 H 138.006 3.84781 4.60504 0
M  V30 1519 H 139.076 3.63673 3.20734 0
M  V30 1520 N 140.419 -1.14872 1.07899 0
M  V30 1521 C 141.666 -1.85789 0.805532 0
M  V30 1522 C 141.994 -1.82649 -0.668561 0
M  V30 1523 O 141.249 -1.24858 -1.50695 0
M  V30 1524 C 141.548 -3.34223 1.26609 0
M  V30 1525 C 141.214 -3.57555 2.74709 0
M  V30 1526 C 139.876 -3.63631 3.1516 0
M  V30 1527 C 142.228 -3.66803 3.70277 0
M  V30 1528 C 139.556 -3.76473 4.49983 0
M  V30 1529 C 141.908 -3.8117 5.04869 0
M  V30 1530 C 140.572 -3.85494 5.44932 0
M  V30 1531 H 139.842 -0.679849 0.294765 0
M  V30 1532 H 142.489 -1.3572 1.35101 0
M  V30 1533 H 140.794 -3.86536 0.640103 0
M  V30 1534 H 142.491 -3.87511 1.03132 0
M  V30 1535 H 139.081 -3.5347 2.42398 0
M  V30 1536 H 143.265 -3.61404 3.40149 0
M  V30 1537 H 138.521 -3.7808 4.80484 0
M  V30 1538 H 142.695 -3.87268 5.78789 0
M  V30 1539 H 140.322 -3.95197 6.49403 0
M  V30 1540 N 141.898 -0.863906 -1.31812 0
M  V30 1541 C 142.83 -0.272485 -2.27575 0
M  V30 1542 C 143.843 0.56104 -1.52827 0
M  V30 1543 O 145.032 0.384021 -1.7432 0
M  V30 1544 C 142.132 0.63283 -3.32939 0
M  V30 1545 C 141.305 -0.166902 -4.37081 0
M  V30 1546 C 140.364 0.665608 -5.21973 0
M  V30 1547 O 139.39 0.0958091 -5.69119 0
M  V30 1548 N 140.592 1.9787 -5.45736 0
M  V30 1549 H 143.357 -1.0954 -2.78964 0
M  V30 1550 H 140.918 -0.724791 -1.4477 0
M  V30 1551 H 142.91 1.19532 -3.86645 0
M  V30 1552 H 141.48 1.35642 -2.81638 0
M  V30 1553 H 140.7 -0.910838 -3.83533 0
M  V30 1554 H 141.988 -0.715874 -5.03739 0
M  V30 1555 H 141.386 2.46484 -5.09178 0
M  V30 1556 H 139.943 2.48911 -6.024 0
M  V30 1557 N 143.376 1.44774 -0.622745 0
M  V30 1558 C 144.625 2.01334 -0.121397 0
M  V30 1559 C 144.938 1.49505 1.26125 0
M  V30 1560 O 146.144 1.98139 1.85616 0
M  V30 1561 C 144.6 3.59516 -0.166298 0
M  V30 1562 C 144.208 4.20342 -1.54974 0
M  V30 1563 C 145.952 4.23582 0.279021 0
M  V30 1564 C 143.859 5.70721 -1.55021 0
M  V30 1565 H 142.789 0.752851 -0.0416172 0
M  V30 1566 H 145.44 1.66083 -0.780309 0
M  V30 1567 H 143.822 3.92027 0.559557 0
M  V30 1568 H 144.996 3.99381 -2.29851 0
M  V30 1569 H 143.311 3.68529 -1.93843 0
M  V30 1570 H 145.908 5.33868 0.298083 0
M  V30 1571 H 146.251 3.95327 1.30471 0
M  V30 1572 H 146.784 3.95843 -0.394063 0
M  V30 1573 H 143.523 6.03698 -2.55399 0
M  V30 1574 H 143.043 5.93829 -0.844245 0
M  V30 1575 H 144.722 6.34203 -1.28047 0
M  V30 1576 N 144.854 0.36279 1.53368 0
M  V30 1577 C 146.079 -0.231226 2.06107 0
M  V30 1578 C 146.504 -1.419 1.23474 0
M  V30 1579 O 145.862 -1.79524 0.253128 0
M  V30 1580 C 145.91 -0.605523 3.5548 0
M  V30 1581 O 145.014 -1.70312 3.7559 0
M  V30 1582 H 144.355 -0.034327 0.663112 0
M  V30 1583 H 146.885 0.522584 1.97814 0
M  V30 1584 H 146.895 -0.877314 3.98456 0
M  V30 1585 H 145.57 0.263004 4.15068 0
M  V30 1586 H 144.147 -1.4271 3.44512 0
M  V30 1587 N 146.332 -1.57332 0.0918853 0
M  V30 1588 C 147.264 -2.10869 -0.898168 0
M  V30 1589 C 148.277 -1.04521 -1.24817 0
M  V30 1590 O 149.466 -1.31977 -1.20184 0
M  V30 1591 C 146.566 -2.57083 -2.2082 0
M  V30 1592 C 145.739 -3.87229 -2.03402 0
M  V30 1593 C 144.798 -4.19324 -3.17889 0
M  V30 1594 O 143.824 -4.88598 -2.91994 0
M  V30 1595 N 145.026 -3.74471 -4.43567 0
M  V30 1596 H 147.791 -2.96439 -0.440943 0
M  V30 1597 H 145.352 -1.61631 -0.0933064 0
M  V30 1598 H 147.344 -2.75602 -2.96354 0
M  V30 1599 H 145.914 -1.76541 -2.57977 0
M  V30 1600 H 145.134 -3.7789 -1.12218 0
M  V30 1601 H 146.422 -4.72379 -1.89038 0
M  V30 1602 H 145.82 -3.18546 -4.67488 0
M  V30 1603 H 144.377 -3.98151 -5.16061 0
M  V30 1604 N 147.81 0.181792 -1.56548 0
M  V30 1605 C 148.758 1.24461 -1.965 0
M  V30 1606 C 149.752 1.464 -0.852261 0
M  V30 1607 O 150.958 1.47103 -1.03733 0
M  V30 1608 H 147.333 0.418138 -0.625031 0
M  V30 1609 H 149.304 0.880714 -2.85107 0
M  V30 1610 C 148.053 2.57891 -2.33212 0
M  V30 1611 H 147.376 2.41829 -3.18369 0
M  V30 1612 H 148.816 3.3097 -2.65019 0
M  V30 1613 C 147.275 3.15871 -1.17163 0
M  V30 1614 O 147.805 3.9913 -0.453708 0
M  V30 1615 N 146.011 2.74808 -0.944936 0
M  V30 1616 H 145.558 2.07205 -1.53049 0
M  V30 1617 H 145.516 3.13939 -0.170286 0
M  V30 1618 N 149.288 1.51039 0.449983 0
M  V30 1619 C 150.235 1.71439 1.54523 0
M  V30 1620 C 151.205 0.555871 1.56522 0
M  V30 1621 O 152.39 0.788871 1.73728 0
M  V30 1622 C 149.53 1.83384 2.92343 0
M  V30 1623 C 148.643 3.10873 2.9997 0
M  V30 1624 C 147.778 3.13488 4.28834 0
M  V30 1625 C 146.817 4.35343 4.30282 0
M  V30 1626 N 145.954 4.35579 5.5065 0
M  V30 1627 H 150.794 2.64934 1.36433 0
M  V30 1628 H 148.331 1.31312 0.662982 0
M  V30 1629 H 150.289 1.88291 3.72293 0
M  V30 1630 H 148.919 0.933086 3.0902 0
M  V30 1631 H 147.971 3.15336 2.12761 0
M  V30 1632 H 149.283 4.00814 2.96901 0
M  V30 1633 H 148.437 3.17241 5.17149 0
M  V30 1634 H 147.176 2.21414 4.34543 0
M  V30 1635 H 146.181 4.3178 3.40362 0
M  V30 1636 H 147.406 5.28668 4.26248 0
M  V30 1637 H 145.352 3.46369 5.57104 0
M  V30 1638 H 145.269 5.19313 5.49409 0
M  V30 1639 H 146.537 4.43507 6.41032 0
M  V30 1640 N 150.766 -0.704594 1.40972 0
M  V30 1641 C 152.012 -1.46675 1.40051 0
M  V30 1642 C 152.345 -1.94199 0.00641102 0
M  V30 1643 O 151.62 -1.68916 -0.964235 0
M  V30 1644 C 151.903 -2.68505 2.39952 0
M  V30 1645 C 151.756 -2.26805 3.88432 0
M  V30 1646 C 153.075 -3.70686 2.37233 0
M  V30 1647 H 150.194 -0.532015 0.510028 0
M  V30 1648 H 152.836 -0.803255 1.72185 0
M  V30 1649 H 150.986 -3.25114 2.1268 0
M  V30 1650 H 152.658 -1.75592 4.26574 0
M  V30 1651 H 150.901 -1.58685 4.03734 0
M  V30 1652 H 151.572 -3.14181 4.53866 0
M  V30 1653 H 154.048 -3.23731 2.61415 0
M  V30 1654 H 152.924 -4.53553 3.09162 0
M  V30 1655 H 153.185 -4.19754 1.38777 0
M  V30 1656 N 152.244 -1.26651 -0.937939 0
M  V30 1657 C 153.207 -1.08546 -2.01867 0
M  V30 1658 C 154.207 -0.0327327 -1.60767 0
M  V30 1659 O 155.397 -0.276427 -1.71993 0
M  V30 1660 C 152.529 -0.651711 -3.34613 0
M  V30 1661 H 153.722 -2.04502 -2.1936 0
M  V30 1662 H 151.275 -1.09294 -1.11734 0
M  V30 1663 H 152.01 0.309696 -3.22818 0
M  V30 1664 H 151.795 -1.41189 -3.65798 0
M  V30 1665 H 153.285 -0.546973 -4.14002 0
M  V30 1666 N 153.722 1.14298 -1.08507 0
M  V30 1667 C 154.968 1.85633 -0.816581 0
M  V30 1668 C 155.301 1.82784 0.656021 0
M  V30 1669 O 154.576 1.25926 1.48233 0
M  V30 1670 C 154.859 3.34223 -1.34041 0
M  V30 1671 C 154.712 3.45639 -2.87843 0
M  V30 1672 C 156.031 4.29356 -0.9665 0
M  V30 1673 H 153.15 0.67402 -0.298104 0
M  V30 1674 H 155.792 1.34214 -1.34487 0
M  V30 1675 H 153.942 3.78144 -0.89104 0
M  V30 1676 H 155.614 3.10498 -3.41158 0
M  V30 1677 H 153.857 2.86817 -3.25451 0
M  V30 1678 H 154.528 4.50089 -3.19569 0
M  V30 1679 H 157.004 3.93457 -1.35391 0
M  V30 1680 H 155.88 5.3178 -1.3602 0
M  V30 1681 H 156.141 4.41919 0.126362 0
M  V30 1682 N 155.201 0.870884 1.31352 0
M  V30 1683 C 156.131 0.343096 2.30966 0
M  V30 1684 C 157.112 -0.566507 1.60389 0
M  V30 1685 O 158.297 -0.483336 1.88089 0
M  V30 1686 C 155.427 -0.455487 3.443 0
M  V30 1687 C 154.381 0.361103 4.26474 0
M  V30 1688 C 153.707 -0.563221 5.31725 0
M  V30 1689 C 155.007 1.59566 4.97329 0
M  V30 1690 H 156.701 1.17548 2.75359 0
M  V30 1691 H 154.247 0.566686 1.32381 0
M  V30 1692 H 156.2 -0.83525 4.13039 0
M  V30 1693 H 154.924 -1.32139 2.98675 0
M  V30 1694 H 153.583 0.722825 3.59403 0
M  V30 1695 H 153.231 -1.42643 4.82351 0
M  V30 1696 H 152.931 -0.0207409 5.87596 0
M  V30 1697 H 154.455 -0.939808 6.03324 0
M  V30 1698 H 155.869 1.28728 5.58661 0
M  V30 1699 H 154.266 2.07728 5.63 0
M  V30 1700 H 155.336 2.34798 4.24262 0
M  V30 1701 N 156.679 -1.44442 0.630414 0
M  V30 1702 C 157.609 -2.33418 -0.0618083 0
M  V30 1703 C 158.59 -1.48165 -0.835541 0
M  V30 1704 O 159.775 -1.76886 -0.801564 0
M  V30 1705 C 156.905 -3.31222 -1.04449 0
M  V30 1706 C 155.859 -4.26288 -0.382436 0
M  V30 1707 C 155.185 -5.13954 -1.47497 0
M  V30 1708 C 156.485 -5.1744 0.710865 0
M  V30 1709 H 158.179 -2.91548 0.681184 0
M  V30 1710 H 155.725 -1.40191 0.329026 0
M  V30 1711 H 157.678 -3.92351 -1.53748 0
M  V30 1712 H 156.402 -2.71299 -1.81836 0
M  V30 1713 H 155.061 -3.6649 0.0899054 0
M  V30 1714 H 154.709 -4.50385 -2.2397 0
M  V30 1715 H 154.409 -5.7837 -1.03737 0
M  V30 1716 H 155.933 -5.77955 -1.96979 0
M  V30 1717 H 157.347 -5.72509 0.300996 0
M  V30 1718 H 155.744 -5.90455 1.07156 0
M  V30 1719 H 156.814 -4.58496 1.57829 0
M  V30 1720 N 158.157 -0.370918 -1.53173 0
M  V30 1721 C 159.087 0.464847 -2.28826 0
M  V30 1722 C 160.068 1.07936 -1.31468 0
M  V30 1723 O 161.253 1.0956 -1.60344 0
M  V30 1724 C 158.383 1.60196 -3.08147 0
M  V30 1725 C 157.337 1.11443 -4.13237 0
M  V30 1726 C 156.663 2.3422 -4.80672 0
M  V30 1727 C 157.963 0.195384 -5.21934 0
M  V30 1728 H 159.657 -0.166329 -2.98938 0
M  V30 1729 H 157.203 -0.0814359 -1.4377 0
M  V30 1730 H 159.156 2.19332 -3.59822 0
M  V30 1731 H 157.88 2.26045 -2.35735 0
M  V30 1732 H 156.539 0.545727 -3.62515 0
M  V30 1733 H 156.187 2.98537 -4.04827 0
M  V30 1734 H 155.887 2.02269 -5.51689 0
M  V30 1735 H 157.411 2.94032 -5.35143 0
M  V30 1736 H 158.825 0.694375 -5.69079 0
M  V30 1737 H 157.222 -0.0335027 -6.00091 0
M  V30 1738 H 158.292 -0.760961 -4.78892 0
M  V30 1739 N 159.635 1.57281 -0.100228 0
M  V30 1740 C 160.598 2.13158 0.842398 0
M  V30 1741 C 161.598 1.06202 1.20738 0
M  V30 1742 O 162.788 1.32066 1.13597 0
M  V30 1743 C 159.92 2.65639 2.13655 0
M  V30 1744 H 161.113 2.97766 0.357114 0
M  V30 1745 H 158.666 1.5559 0.148823 0
M  V30 1746 H 159.401 1.84566 2.66657 0
M  V30 1747 H 159.186 3.43844 1.88451 0
M  V30 1748 H 160.676 3.08846 2.81077 0
M  V30 1749 N 161.113 -0.173488 1.56642 0
M  V30 1750 C 162.361 -0.888706 1.81512 0
M  V30 1751 C 162.682 -1.82875 0.676872 0
M  V30 1752 O 161.952 -1.93536 -0.303414 0
M  V30 1753 H 160.532 -0.331164 0.669582 0
M  V30 1754 H 163.194 -0.173823 1.94123 0
M  V30 1755 H 162.29 -1.46691 2.75478 0
M  V30 1756 N 162.591 -1.51276 -0.441967 0
M  V30 1757 C 163.839 -1.63392 -1.18943 0
M  V30 1758 C 164.16 -0.350159 -1.9183 0
M  V30 1759 O 163.43 0.633784 -1.85364 0
M  V30 1760 H 162.01 -0.602164 -0.442049 0
M  V30 1761 H 164.672 -1.88186 -0.507165 0
M  V30 1762 H 163.768 -2.45934 -1.92154 0
M  V30 1763 N 164.069 0.697108 -1.41344 0
M  V30 1764 C 165.001 1.8224 -1.39001 0
M  V30 1765 C 166.014 1.60152 -0.292428 0
M  V30 1766 O 167.203 1.69684 -0.554048 0
M  V30 1767 C 164.303 3.18976 -1.14489 0
M  V30 1768 C 163.476 3.68105 -2.36258 0
M  V30 1769 C 162.535 4.83506 -2.07625 0
M  V30 1770 O 161.561 4.95201 -2.8065 0
M  V30 1771 N 162.763 5.70637 -1.06555 0
M  V30 1772 H 165.528 1.84742 -2.35988 0
M  V30 1773 H 163.089 0.87937 -1.35936 0
M  V30 1774 H 165.081 3.93801 -0.932885 0
M  V30 1775 H 163.651 3.11508 -0.261043 0
M  V30 1776 H 162.871 2.84204 -2.7317 0
M  V30 1777 H 164.159 3.97667 -3.17393 0
M  V30 1778 H 163.557 5.63817 -0.461125 0
M  V30 1779 H 162.114 6.45368 -0.913444 0
M  V30 1780 N 165.547 1.27147 0.931209 0
M  V30 1781 C 166.795 1.13055 1.6752 0
M  V30 1782 C 167.116 -0.324791 1.92276 0
M  V30 1783 O 166.386 -1.22775 1.52654 0
M  V30 1784 H 164.966 0.415391 0.620854 0
M  V30 1785 H 167.628 1.59623 1.11833 0
M  V30 1786 H 166.724 1.65694 2.64485 0
M  V30 1787 N 167.025 -1.13721 1.09112 0
M  V30 1788 C 168.253 -1.88773 0.846899 0
M  V30 1789 C 168.668 -1.7896 -0.601572 0
M  V30 1790 O 168.025 -1.15394 -1.41388 0
M  V30 1791 C 168.076 -3.3849 1.26913 0
M  V30 1792 O 167.797 -3.48043 2.66079 0
M  V30 1793 C 169.298 -4.30518 1.05682 0
M  V30 1794 H 166.518 -0.59772 0.304914 0
M  V30 1795 H 169.062 -1.43977 1.45227 0
M  V30 1796 H 167.217 -3.80881 0.707723 0
M  V30 1797 H 167.631 -4.4109 2.83795 0
M  V30 1798 H 169.105 -5.3391 1.40156 0
M  V30 1799 H 169.582 -4.392 -0.00563416 0
M  V30 1800 H 170.188 -3.93893 1.60402 0
M  V30 1801 N 168.503 -0.877838 -1.30888 0
M  V30 1802 C 169.919 -0.570844 -1.49042 0
M  V30 1803 C 170.119 0.893159 -1.80624 0
M  V30 1804 O 169.175 1.67485 -1.88958 0
M  V30 1805 C 170.488 -1.47784 -2.61878 0
M  V30 1806 C 172.036 -1.48071 -2.75761 0
M  V30 1807 C 172.511 -2.37347 -3.91702 0
M  V30 1808 N 174.002 -2.35271 -3.99001 0
M  V30 1809 C 174.737 -3.01063 -4.88004 0
M  V30 1810 N 174.233 -3.76055 -5.81854 0
M  V30 1811 N 176.026 -2.90332 -4.81315 0
M  V30 1812 H 168.177 -1.82502 -1.0866 0
M  V30 1813 H 170.44 -0.780797 -0.537644 0
M  V30 1814 H 170.146 -2.51993 -2.45341 0
M  V30 1815 H 170.02 -1.18215 -3.58197 0
M  V30 1816 H 172.407 -0.446166 -2.91708 0
M  V30 1817 H 172.488 -1.81668 -1.80085 0
M  V30 1818 H 172.132 -3.40883 -3.76512 0
M  V30 1819 H 172.062 -2.01071 -4.86701 0
M  V30 1820 H 174.553 -1.80768 -3.3186 0
M  V30 1821 H 174.866 -4.23366 -6.46514 0
M  V30 1822 H 173.211 -3.80163 -5.81808 0
M  V30 1823 H 176.402 -2.31278 -4.06974 0
M  V30 1824 H 176.575 -3.41885 -5.50471 0
M  V30 1825 N 169.982 1.44106 -0.638065 0
M  V30 1826 C 170.912 2.33448 0.0494287 0
M  V30 1827 C 171.893 1.48606 0.827672 0
M  V30 1828 O 173.078 1.77308 0.792173 0
M  V30 1829 C 170.208 3.31771 1.02691 0
M  V30 1830 C 169.162 4.26485 0.359823 0
M  V30 1831 C 168.488 5.14729 1.44769 0
M  V30 1832 C 169.788 5.17056 -0.738296 0
M  V30 1833 H 171.482 2.91183 -0.696636 0
M  V30 1834 H 169.028 1.40014 -0.336456 0
M  V30 1835 H 170.981 3.93161 1.51666 0
M  V30 1836 H 169.705 2.7226 1.80395 0
M  V30 1837 H 168.364 3.66437 -0.10934 0
M  V30 1838 H 168.012 4.51566 2.21578 0
M  V30 1839 H 167.712 5.78913 1.00668 0
M  V30 1840 H 169.236 5.78991 1.93911 0
M  V30 1841 H 170.65 5.72342 -0.331354 0
M  V30 1842 H 169.047 5.89879 -1.10286 0
M  V30 1843 H 170.117 4.57652 -1.60258 0
M  V30 1844 N 171.46 0.379036 1.52974 0
M  V30 1845 C 172.708 -0.206014 2.01047 0
M  V30 1846 C 173.029 -1.48175 1.26765 0
M  V30 1847 O 172.299 -1.92085 0.384743 0
M  V30 1848 H 170.879 -0.0791184 0.742798 0
M  V30 1849 H 173.541 0.508366 1.88153 0
M  V30 1850 H 172.637 -0.423501 3.09213 0
M  V30 1851 N 172.938 -1.57226 0.108567 0
M  V30 1852 C 174.184 -1.95121 -0.552761 0
M  V30 1853 C 174.517 -0.991345 -1.66991 0
M  V30 1854 O 173.792 -0.0267211 -1.94482 0
M  V30 1855 C 174.075 -3.43039 -1.09528 0
M  V30 1856 C 173.928 -4.49797 0.0177332 0
M  V30 1857 C 175.247 -3.92567 -1.98945 0
M  V30 1858 H 172.366 -0.709496 -0.199461 0
M  V30 1859 H 175.008 -1.89126 0.182011 0
M  V30 1860 H 173.158 -3.48279 -1.72146 0
M  V30 1861 H 174.83 -4.56661 0.652584 0
M  V30 1862 H 173.073 -4.284 0.682309 0
M  V30 1863 H 173.744 -5.50528 -0.402919 0
M  V30 1864 H 176.22 -3.89565 -1.46214 0
M  V30 1865 H 175.096 -4.96605 -2.33827 0
M  V30 1866 H 175.357 -3.32648 -2.91201 0
M  V30 1867 N 174.416 0.165178 -1.56732 0
M  V30 1868 C 175.379 1.18822 -1.95995 0
M  V30 1869 C 176.379 1.3685 -0.84431 0
M  V30 1870 O 177.569 1.34152 -1.11126 0
M  V30 1871 C 174.701 2.5521 -2.26011 0
M  V30 1872 H 175.894 0.851825 -2.87548 0
M  V30 1873 H 173.447 0.407857 -1.50885 0
M  V30 1874 H 174.182 2.93852 -1.37191 0
M  V30 1875 H 173.967 2.43489 -3.07336 0
M  V30 1876 H 175.457 3.28927 -2.57288 0
M  V30 1877 N 175.894 1.51508 0.433938 0
M  V30 1878 C 177.124 1.67914 1.20369 0
M  V30 1879 C 177.532 0.377461 1.85397 0
M  V30 1880 O 176.875 -0.654255 1.71654 0
M  V30 1881 C 176.937 2.74045 2.32679 0
M  V30 1882 C 176.601 4.16543 1.87991 0
M  V30 1883 C 177.598 5.01211 1.38145 0
M  V30 1884 C 175.283 4.6266 1.95579 0
M  V30 1885 C 177.277 6.30056 0.964774 0
M  V30 1886 C 174.964 5.91501 1.53523 0
M  V30 1887 C 175.962 6.75027 1.04055 0
M  V30 1888 O 175.65 8.01459 0.625964 0
M  V30 1889 H 175.382 0.566578 0.368735 0
M  V30 1890 H 177.936 1.98709 0.51999 0
M  V30 1891 H 176.166 2.38572 3.04336 0
M  V30 1892 H 177.855 2.79295 2.94532 0
M  V30 1893 H 178.621 4.66783 1.31675 0
M  V30 1894 H 174.5 3.97767 2.33029 0
M  V30 1895 H 178.044 6.95202 0.57796 0
M  V30 1896 H 173.941 6.25442 1.59665 0
M  V30 1897 H 174.709 8.15043 0.751509 0
M  V30 1898 N 177.372 -0.689602 1.41712 0
M  V30 1899 C 178.783 -1.26973 1.36875 0
M  V30 1900 C 179.134 -1.96124 0.054748 0
M  V30 1901 O 178.259 -1.99141 -0.84687 0
M  V30 1902 C 178.854 -2.30912 2.47922 0
M  V30 1903 C 177.413 -2.84486 2.46464 0
M  V30 1904 C 176.56 -1.58603 2.27465 0
M  V30 1905 H 179.511 -0.48396 1.51141 0
M  V30 1906 H 179.532 -3.12331 2.17323 0
M  V30 1907 H 179.044 -1.80554 3.43543 0
M  V30 1908 H 177.145 -3.39005 1.54617 0
M  V30 1909 H 177.258 -3.34511 3.42986 0
M  V30 1910 H 175.622 -1.84632 1.75451 0
M  V30 1911 H 176.405 -1.10233 3.25121 0
M  V30 1912 N 178.85 -1.27639 -0.924453 0
M  V30 1913 C 179.797 -1.10644 -2.0255 0
M  V30 1914 C 180.767 -0.00658438 -1.66099 0
M  V30 1915 O 181.952 -0.16952 -1.90045 0
M  V30 1916 C 179.092 -0.76309 -3.36557 0
M  V30 1917 C 178.205 -1.94091 -3.85944 0
M  V30 1918 C 177.34 -1.53914 -5.08413 0
M  V30 1919 C 176.379 -2.68425 -5.50104 0
M  V30 1920 N 175.516 -2.28815 -6.63768 0
M  V30 1921 H 180.356 -2.04858 -2.16419 0
M  V30 1922 H 177.893 -1.01974 -1.06017 0
M  V30 1923 H 179.851 -0.544822 -4.13627 0
M  V30 1924 H 178.481 0.142102 -3.22487 0
M  V30 1925 H 177.533 -2.27162 -3.05125 0
M  V30 1926 H 178.845 -2.7998 -4.12811 0
M  V30 1927 H 177.999 -1.28231 -5.92994 0
M  V30 1928 H 176.738 -0.651391 -4.8333 0
M  V30 1929 H 175.743 -2.94819 -4.64071 0
M  V30 1930 H 176.968 -3.57826 -5.7718 0
M  V30 1931 H 174.914 -1.42495 -6.40337 0
M  V30 1932 H 174.831 -3.08242 -6.90306 0
M  V30 1933 H 176.099 -2.06387 -7.51681 0
M  V30 1934 N 180.328 1.1314 -1.09713 0
M  V30 1935 C 181.576 1.84119 -0.833338 0
M  V30 1936 C 181.897 1.84097 0.642904 0
M  V30 1937 O 181.167 1.29881 1.46655 0
M  V30 1938 H 179.747 0.681766 -0.305293 0
M  V30 1939 H 182.409 1.37038 -1.38588 0
M  V30 1940 H 181.505 2.88543 -1.18951 0
M  V30 1941 N 181.806 0.884767 1.30421 0
M  V30 1942 C 182.739 0.295999 2.26272 0
M  V30 1943 C 183.717 -0.58332 1.51777 0
M  V30 1944 O 184.901 -0.53346 1.80794 0
M  V30 1945 C 182.028 -0.57944 3.33707 0
M  V30 1946 C 181.074 0.230525 4.25877 0
M  V30 1947 S 181.907 1.61867 5.1045 0
M  V30 1948 C 183.063 0.749756 6.21393 0
M  V30 1949 H 183.296 1.10848 2.75862 0
M  V30 1950 H 180.829 0.684178 1.38414 0
M  V30 1951 H 182.787 -1.07879 3.96071 0
M  V30 1952 H 181.448 -1.36601 2.82841 0
M  V30 1953 H 180.641 -0.437542 5.02097 0
M  V30 1954 H 180.243 0.662493 3.68086 0
M  V30 1955 H 182.535 -0.0333547 6.77492 0
M  V30 1956 H 183.478 1.48356 6.92384 0
M  V30 1957 H 183.886 0.310751 5.63644 0
M  V30 1958 N 183.284 -1.43765 0.645699 0
M  V30 1959 C 184.514 -2.05953 0.163318 0
M  V30 1960 C 184.922 -1.48432 -1.17322 0
M  V30 1961 O 184.265 -0.607295 -1.73371 0
M  V30 1962 C 184.327 -3.59499 -0.0103065 0
M  V30 1963 C 183.991 -4.39563 1.25035 0
M  V30 1964 C 184.988 -4.72108 2.17739 0
M  V30 1965 C 182.673 -4.79697 1.48983 0
M  V30 1966 C 184.667 -5.43688 3.3269 0
M  V30 1967 C 182.354 -5.51023 2.64229 0
M  V30 1968 C 183.352 -5.8294 3.55908 0
M  V30 1969 O 183.04 -6.5281 4.69142 0
M  V30 1970 H 182.772 -0.670798 0.0836986 0
M  V30 1971 H 185.326 -1.85384 0.884407 0
M  V30 1972 H 183.556 -3.78613 -0.78669 0
M  V30 1973 H 185.245 -4.03408 -0.449087 0
M  V30 1974 H 186.011 -4.41627 2.00476 0
M  V30 1975 H 181.89 -4.54266 0.785078 0
M  V30 1976 H 185.434 -5.68517 4.04269 0
M  V30 1977 H 181.331 -5.8092 2.81429 0
M  V30 1978 H 182.099 -6.71288 4.6831 0
M  V30 1979 N 184.763 -0.387143 -1.52771 0
M  V30 1980 C 186.04 0.253197 -1.93954 0
M  V30 1981 C 186.42 1.64545 -1.32243 0
M  V30 1982 O 185.768 2.23191 -0.489699 0
M  V30 1983 C 185.978 0.281722 -3.47861 0
M  V30 1984 C 187.326 0.511715 -4.21505 0
M  V30 1985 O 188.35 0.362023 -3.54356 0
M  V30 1986 O 187.209 0.804847 -5.40541 0
M  V30 1987 H 184.303 0.156845 -0.811991 0
M  V30 1988 H 186.849 -0.441494 -1.63856 0
M  V30 1989 H 185.621 -0.693571 -3.85104 0
M  V30 1990 H 185.244 1.02142 -3.84256 0
M  V30 1991 N 186.241 1.57166 -0.116904 0
M  V30 1992 C 187.487 1.95412 0.542405 0
M  V30 1993 C 187.82 1.00019 1.66463 0
M  V30 1994 O 187.095 0.0370346 1.94465 0
M  V30 1995 C 187.378 3.43615 1.07708 0
M  V30 1996 C 187.231 4.49781 -0.0415868 0
M  V30 1997 C 188.55 3.93616 1.96861 0
M  V30 1998 H 185.669 0.710543 0.195696 0
M  V30 1999 H 188.311 1.89027 -0.192038 0
M  V30 2000 H 186.461 3.49187 1.70296 0
M  V30 2001 H 188.133 4.56308 -0.676793 0
M  V30 2002 H 186.376 4.28033 -0.705019 0
M  V30 2003 H 187.047 5.50733 0.373717 0
M  V30 2004 H 189.523 3.90335 1.44146 0
M  V30 2005 H 188.399 4.97838 2.3119 0
M  V30 2006 H 188.66 3.34188 2.89432 0
M  V30 2007 N 187.719 -0.156864 1.56817 0
M  V30 2008 C 188.967 -0.869404 1.82444 0
M  V30 2009 C 189.288 -1.82147 0.69623 0
M  V30 2010 O 188.558 -1.93847 -0.28287 0
M  V30 2011 H 187.138 -0.324043 0.673056 0
M  V30 2012 H 189.8 -0.153224 1.94297 0
M  V30 2013 H 188.896 -1.43761 2.77019 0
M  V30 2014 N 189.197 -1.51736 -0.425897 0
M  V30 2015 C 190.127 -1.76827 -1.52494 0
M  V30 2016 C 191.108 -0.618524 -1.58456 0
M  V30 2017 O 192.293 -0.862416 -1.74 0
M  V30 2018 C 189.423 -1.90374 -2.90474 0
M  V30 2019 C 188.377 -3.0588 -2.99369 0
M  V30 2020 C 187.703 -3.04625 -4.3944 0
M  V30 2021 C 189.003 -4.45644 -2.72394 0
M  V30 2022 H 190.697 -2.68855 -1.31748 0
M  V30 2023 H 188.243 -1.29372 -0.632362 0
M  V30 2024 H 190.196 -2.0651 -3.6733 0
M  V30 2025 H 188.92 -0.95004 -3.12477 0
M  V30 2026 H 187.579 -2.89467 -2.24954 0
M  V30 2027 H 187.227 -2.0701 -4.58428 0
M  V30 2028 H 186.927 -3.82195 -4.46319 0
M  V30 2029 H 188.451 -3.22869 -5.18255 0
M  V30 2030 H 189.865 -4.62348 -3.38979 0
M  V30 2031 H 188.262 -5.25006 -2.9067 0
M  V30 2032 H 189.332 -4.54893 -1.67929 0
M  V30 2033 N 190.675 0.682077 -1.42076 0
M  V30 2034 C 192.086 1.26246 -1.37546 0
M  V30 2035 C 192.437 1.96092 -0.0651481 0
M  V30 2036 O 191.562 1.99587 0.836297 0
M  V30 2037 C 192.157 2.29594 -2.49143 0
M  V30 2038 C 190.716 2.83175 -2.47969 0
M  V30 2039 C 189.863 1.57395 -2.28303 0
M  V30 2040 H 192.814 0.475937 -1.51395 0
M  V30 2041 H 192.835 3.11175 -2.18976 0
M  V30 2042 H 192.347 1.78729 -3.44496 0
M  V30 2043 H 190.448 3.3818 -1.56413 0
M  V30 2044 H 190.561 3.32687 -3.44755 0
M  V30 2045 H 188.925 1.83699 -1.76428 0
M  V30 2046 H 189.708 1.08507 -3.25701 0
M  V30 2047 N 192.153 1.28127 0.917671 0
M  V30 2048 C 193.378 1.18007 1.70555 0
M  V30 2049 C 193.803 -0.258257 1.86319 0
M  V30 2050 O 193.161 -1.1869 1.37049 0
M  V30 2051 C 193.209 1.87948 3.07746 0
M  V30 2052 O 192.313 1.18427 3.9503 0
M  V30 2053 H 191.654 0.409867 0.522403 0
M  V30 2054 H 194.184 1.69379 1.1477 0
M  V30 2055 H 194.194 1.95701 3.58001 0
M  V30 2056 H 192.869 2.92573 2.95591 0
M  V30 2057 H 191.446 1.18811 3.53466 0
M  V30 2058 N 193.631 -1.12557 1.10312 0
M  V30 2059 C 195.047 -1.36036 0.834649 0
M  V30 2060 C 195.247 -1.93946 -0.546539 0
M  V30 2061 O 194.303 -2.16484 -1.29966 0
M  V30 2062 C 195.616 -2.30312 1.9333 0
M  V30 2063 C 197.164 -2.43906 1.9616 0
M  V30 2064 C 197.639 -3.41496 3.05195 0
M  V30 2065 N 199.13 -3.49053 3.04494 0
M  V30 2066 C 199.865 -4.24471 3.85502 0
M  V30 2067 N 199.361 -5.02966 4.76442 0
M  V30 2068 N 201.154 -4.19864 3.73725 0
M  V30 2069 H 193.305 -0.733246 1.99342 0
M  V30 2070 H 195.568 -0.385234 0.866198 0
M  V30 2071 H 195.274 -1.94933 2.92735 0
M  V30 2072 H 195.148 -3.30421 1.81939 0
M  V30 2073 H 197.535 -2.78567 0.973886 0
M  V30 2074 H 197.616 -1.4369 2.11629 0
M  V30 2075 H 197.26 -3.07565 4.04186 0
M  V30 2076 H 197.19 -4.41539 2.86968 0
M  V30 2077 H 199.681 -2.93053 2.38596 0
M  V30 2078 H 199.994 -5.57846 5.34815 0
M  V30 2079 H 198.339 -5.02167 4.80472 0
M  V30 2080 H 201.53 -3.57623 3.02032 0
M  V30 2081 H 201.703 -4.78386 4.37093 0
M  V30 2082 N 195.109 -0.891671 -1.2995 0
M  V30 2083 C 196.056 -0.361736 -2.27948 0
M  V30 2084 C 197.026 0.551761 -1.56668 0
M  V30 2085 O 198.211 0.478736 -1.84696 0
M  V30 2086 C 195.351 0.411825 -3.42634 0
M  V30 2087 C 194.464 -0.531651 -4.28716 0
M  V30 2088 C 193.599 0.258167 -5.30572 0
M  V30 2089 C 192.638 -0.680349 -6.08307 0
M  V30 2090 N 191.775 0.0745613 -7.0206 0
M  V30 2091 H 196.615 -1.20254 -2.72659 0
M  V30 2092 H 194.152 -0.604352 -1.34112 0
M  V30 2093 H 196.11 0.876304 -4.07893 0
M  V30 2094 H 194.74 1.21715 -2.98974 0
M  V30 2095 H 193.792 -1.11463 -3.63703 0
M  V30 2096 H 195.104 -1.25038 -4.82874 0
M  V30 2097 H 194.258 0.784204 -6.0161 0
M  V30 2098 H 192.997 1.01008 -4.77126 0
M  V30 2099 H 192.002 -1.21796 -5.3614 0
M  V30 2100 H 193.227 -1.43145 -6.63842 0
M  V30 2101 H 191.173 0.808883 -6.50994 0
M  V30 2102 H 191.09 -0.584409 -7.53738 0
M  V30 2103 H 192.358 0.581123 -7.77331 0
M  V30 2104 N 196.587 1.43421 -0.653314 0
M  V30 2105 C 197.815 2.06163 -0.174491 0
M  V30 2106 C 198.23 1.48969 1.1599 0
M  V30 2107 O 197.587 0.621042 1.71608 0
M  V30 2108 C 197.638 3.61417 -0.0774865 0
M  V30 2109 O 197.359 4.16485 -1.35912 0
M  V30 2110 C 198.86 4.41235 0.427402 0
M  V30 2111 H 196.08 0.664946 -0.0899353 0
M  V30 2112 H 198.624 1.83924 -0.893988 0
M  V30 2113 H 196.779 3.82841 0.59257 0
M  V30 2114 H 197.193 5.10153 -1.21839 0
M  V30 2115 H 198.667 5.5021 0.44423 0
M  V30 2116 H 199.144 4.14268 1.45873 0
M  V30 2117 H 199.75 4.2478 -0.210167 0
M  V30 2118 N 198.065 0.39524 1.52563 0
M  V30 2119 C 198.995 -0.428384 2.29537 0
M  V30 2120 C 199.976 -1.05831 1.33169 0
M  V30 2121 O 201.161 -1.06995 1.62067 0
M  V30 2122 C 198.291 -1.55274 3.10656 0
M  V30 2123 C 197.245 -1.04855 4.14957 0
M  V30 2124 C 196.571 -2.26543 4.84337 0
M  V30 2125 C 197.871 -0.112324 5.22179 0
M  V30 2126 H 199.565 0.213867 2.98635 0
M  V30 2127 H 197.111 0.104298 1.43622 0
M  V30 2128 H 199.064 -2.1358 3.63265 0
M  V30 2129 H 197.788 -2.22266 2.39302 0
M  V30 2130 H 196.447 -0.487985 3.63338 0
M  V30 2131 H 196.095 -2.92059 4.09525 0
M  V30 2132 H 195.795 -1.93466 5.54837 0
M  V30 2133 H 197.319 -2.85481 5.39753 0
M  V30 2134 H 198.733 -0.603752 5.70112 0
M  V30 2135 H 197.13 0.128968 5.99961 0
M  V30 2136 H 198.2 0.837052 4.77621 0
M  V30 2137 N 199.544 -1.57102 0.125237 0
M  V30 2138 C 200.791 -1.95407 -0.531248 0
M  V30 2139 C 201.119 -1.0089 -1.66287 0
M  V30 2140 O 200.374 -0.0339431 -1.95671 0
M  V30 2141 C 200.673 -3.40096 -1.09862 0
M  V30 2142 C 200.339 -4.50815 -0.0876989 0
M  V30 2143 C 199.001 -4.80824 0.19026 0
M  V30 2144 C 201.353 -5.17724 0.600902 0
M  V30 2145 C 198.681 -5.75058 1.163 0
M  V30 2146 C 201.033 -6.13005 1.56231 0
M  V30 2147 C 199.697 -6.41403 1.8482 0
M  V30 2148 H 198.967 -0.715046 -0.194397 0
M  V30 2149 H 201.614 -1.90373 0.207463 0
M  V30 2150 H 199.919 -3.41855 -1.91422 0
M  V30 2151 H 201.616 -3.6705 -1.61478 0
M  V30 2152 H 198.206 -4.27444 -0.314528 0
M  V30 2153 H 202.39 -4.94691 0.399333 0
M  V30 2154 H 197.646 -5.95362 1.39117 0
M  V30 2155 H 201.82 -6.63934 2.10153 0
M  V30 2156 H 199.447 -7.14229 2.60349 0
M  V30 2157 N 201.022 0.148545 -1.56898 0
M  V30 2158 C 201.954 1.20852 -1.9475 0
M  V30 2159 C 202.967 1.39265 -0.843152 0
M  V30 2160 O 204.156 1.38864 -1.12156 0
M  V30 2161 C 201.256 2.57362 -2.20495 0
M  V30 2162 C 200.429 2.59947 -3.51776 0
M  V30 2163 C 199.488 3.77984 -3.6608 0
M  V30 2164 O 198.514 3.62929 -4.38487 0
M  V30 2165 N 199.716 4.95375 -3.02629 0
M  V30 2166 H 202.481 0.886804 -2.86279 0
M  V30 2167 H 200.042 0.338121 -1.5833 0
M  V30 2168 H 202.034 3.34833 -2.27307 0
M  V30 2169 H 200.604 2.81832 -1.35238 0
M  V30 2170 H 199.824 1.68403 -3.56419 0
M  V30 2171 H 201.112 2.58704 -4.38121 0
M  V30 2172 H 200.51 5.10509 -2.43715 0
M  V30 2173 H 199.067 5.70627 -3.15004 0
M  V30 2174 N 202.5 1.5196 0.417844 0
M  V30 2175 C 203.749 1.6482 1.16264 0
M  V30 2176 C 204.062 0.379886 1.91876 0
M  V30 2177 O 205.268 0.388154 2.68711 0
M  V30 2178 C 203.724 2.91161 2.1155 0
M  V30 2179 C 203.332 4.25068 1.41495 0
M  V30 2180 C 205.076 3.13383 2.86341 0
M  V30 2181 C 202.983 5.42541 2.35379 0
M  V30 2182 H 201.913 0.613954 0.437694 0
M  V30 2183 H 204.564 1.78442 0.427871 0
M  V30 2184 H 202.946 2.71218 2.88543 0
M  V30 2185 H 204.12 4.55463 0.699263 0
M  V30 2186 H 202.435 4.0888 0.787792 0
M  V30 2187 H 205.032 3.98324 3.5671 0
M  V30 2188 H 205.375 2.27256 3.48798 0
M  V30 2189 H 205.908 3.33757 2.1645 0
M  V30 2190 H 202.647 6.30987 1.77582 0
M  V30 2191 H 202.167 5.16497 3.04945 0
M  V30 2192 H 203.846 5.75272 2.96093 0
M  V30 2193 N 203.978 -0.674533 1.42435 0
M  V30 2194 C 204.91 -1.80005 1.41883 0
M  V30 2195 C 205.923 -1.59667 0.31787 0
M  V30 2196 O 207.112 -1.68781 0.580973 0
M  V30 2197 C 204.212 -3.17114 1.19549 0
M  V30 2198 C 203.385 -3.64299 2.42084 0
M  V30 2199 C 202.444 -4.80142 2.15291 0
M  V30 2200 O 201.47 -4.90673 2.88493 0
M  V30 2201 N 202.672 -5.68869 1.1562 0
M  V30 2202 H 205.437 -1.80964 2.38898 0
M  V30 2203 H 202.998 -0.857633 1.37318 0
M  V30 2204 H 204.99 -3.92267 0.995417 0
M  V30 2205 H 203.56 -3.11053 0.310569 0
M  V30 2206 H 202.78 -2.79822 2.77657 0
M  V30 2207 H 204.068 -3.92567 3.23679 0
M  V30 2208 H 203.466 -5.63012 0.550765 0
M  V30 2209 H 202.023 -6.43833 1.016 0
M  V30 2210 N 205.456 -1.28612 -0.910864 0
M  V30 2211 C 206.419 -1.12803 -1.9952 0
M  V30 2212 C 207.419 -0.0668264 -1.60661 0
M  V30 2213 O 208.609 -0.312847 -1.71368 0
M  V30 2214 C 205.741 -0.72254 -3.33155 0
M  V30 2215 H 206.934 -2.09109 -2.14973 0
M  V30 2216 H 204.487 -1.11639 -1.09391 0
M  V30 2217 H 205.222 0.241152 -3.23402 0
M  V30 2218 H 205.007 -1.48916 -3.62721 0
M  V30 2219 H 206.497 -0.634666 -4.12749 0
M  V30 2220 N 206.934 1.1197 -1.10907 0
M  V30 2221 C 207.844 2.21433 -0.774896 0
M  V30 2222 C 208.86 1.72478 0.229657 0
M  V30 2223 O 210.036 2.01288 0.0672008 0
M  V30 2224 C 207.101 3.4602 -0.216986 0
M  V30 2225 C 206.162 4.09791 -1.27944 0
M  V30 2226 C 205.395 5.28431 -0.748055 0
M  V30 2227 O 205.618 5.68823 0.423833 0
M  V30 2228 O 204.552 5.82644 -1.51027 0
M  V30 2229 H 208.378 2.5242 -1.68873 0
M  V30 2230 H 205.963 1.20399 -0.884555 0
M  V30 2231 H 207.845 4.21304 0.090059 0
M  V30 2232 H 206.52 3.16698 0.669633 0
M  V30 2233 H 205.427 3.36265 -1.63941 0
M  V30 2234 H 206.76 4.4328 -2.13925 0
M  V30 2235 N 208.412 0.89855 1.29475 0
M  V30 2236 C 209.828 0.594483 1.48115 0
M  V30 2237 C 210.028 -0.86431 1.82022 0
M  V30 2238 O 209.084 -1.64457 1.91599 0
M  V30 2239 C 210.397 1.51932 2.59494 0
M  V30 2240 C 211.945 1.5244 2.7337 0
M  V30 2241 C 212.42 2.43548 3.87877 0
M  V30 2242 N 213.911 2.41589 3.95208 0
M  V30 2243 C 214.646 3.08789 4.83153 0
M  V30 2244 N 214.142 3.85265 5.75798 0
M  V30 2245 N 215.935 2.97952 4.76635 0
M  V30 2246 H 208.086 1.84207 1.05742 0
M  V30 2247 H 210.349 0.789251 0.525154 0
M  V30 2248 H 210.055 2.55865 2.41301 0
M  V30 2249 H 209.929 1.23899 3.56271 0
M  V30 2250 H 212.316 0.492518 2.90961 0
M  V30 2251 H 212.397 1.8451 1.77172 0
M  V30 2252 H 212.041 3.46829 3.71041 0
M  V30 2253 H 211.971 2.08788 4.83441 0
M  V30 2254 H 214.462 1.86025 3.28943 0
M  V30 2255 H 214.775 4.33598 6.39697 0
M  V30 2256 H 213.12 3.89371 5.75687 0
M  V30 2257 H 216.311 2.37723 4.03244 0
M  V30 2258 H 216.484 3.50599 5.44962 0
M  V30 2259 N 209.89 -1.43072 0.660911 0
M  V30 2260 C 211.139 -2.00942 0.174735 0
M  V30 2261 C 211.452 -1.52797 -1.22117 0
M  V30 2262 O 212.658 -2.02991 -1.80297 0
M  V30 2263 C 211.114 -3.58948 0.261559 0
M  V30 2264 C 210.722 -4.16085 1.66064 0
M  V30 2265 C 212.466 -4.24173 -0.166617 0
M  V30 2266 C 210.373 -5.6641 1.70098 0
M  V30 2267 H 209.303 -0.751483 0.0615631 0
M  V30 2268 H 211.954 -1.63955 0.824069 0
M  V30 2269 H 210.336 -3.93372 -0.455421 0
M  V30 2270 H 211.51 -3.93147 2.40359 0
M  V30 2271 H 209.825 -3.6326 2.03546 0
M  V30 2272 H 212.422 -5.34471 -0.156433 0
M  V30 2273 H 212.765 -3.98647 -1.19943 0
M  V30 2274 H 213.298 -3.94659 0.498875 0
M  V30 2275 H 210.037 -5.96715 2.71315 0
M  V30 2276 H 209.557 -5.91382 1.00139 0
M  V30 2277 H 211.236 -6.30585 1.44816 0
M  V30 2278 N 211.368 -0.403325 -1.52352 0
M  V30 2279 C 212.298 0.416205 -2.29761 0
M  V30 2280 C 213.279 1.05123 -1.33728 0
M  V30 2281 O 214.464 1.06134 -1.62632 0
M  V30 2282 C 211.594 1.53624 -3.11475 0
M  V30 2283 C 210.548 1.02653 -4.15507 0
M  V30 2284 C 209.874 2.23971 -4.85532 0
M  V30 2285 C 211.174 0.08463 -5.22231 0
M  V30 2286 H 212.868 -0.229701 -2.98518 0
M  V30 2287 H 210.414 -0.111913 -1.43564 0
M  V30 2288 H 212.367 2.1165 -3.64393 0
M  V30 2289 H 211.091 2.20994 -2.40477 0
M  V30 2290 H 209.75 0.46871 -3.63591 0
M  V30 2291 H 209.398 2.89883 -4.11068 0
M  V30 2292 H 209.098 1.90521 -5.55856 0
M  V30 2293 H 210.622 2.82614 -5.41259 0
M  V30 2294 H 212.036 0.573509 -5.70424 0
M  V30 2295 H 210.433 -0.160783 -5.99885 0
M  V30 2296 H 211.503 -0.86237 -4.7717 0
M  V30 2297 N 212.846 1.57033 -0.133567 0
M  V30 2298 C 213.793 2.16074 0.811208 0
M  V30 2299 C 214.763 1.08979 1.2535 0
M  V30 2300 O 215.948 1.36958 1.32843 0
M  V30 2301 C 213.088 2.77595 2.05024 0
M  V30 2302 C 212.201 3.99042 1.65498 0
M  V30 2303 C 211.336 4.48603 2.84479 0
M  V30 2304 C 210.375 5.62547 2.41262 0
M  V30 2305 N 209.512 6.06787 3.53206 0
M  V30 2306 H 214.352 2.96477 0.300906 0
M  V30 2307 H 211.889 1.46462 0.136822 0
M  V30 2308 H 213.847 3.11402 2.77642 0
M  V30 2309 H 212.477 1.99859 2.53488 0
M  V30 2310 H 211.529 3.71302 0.826981 0
M  V30 2311 H 212.841 4.81629 1.29748 0
M  V30 2312 H 211.995 4.84395 3.65303 0
M  V30 2313 H 210.734 3.64995 3.23465 0
M  V30 2314 H 209.739 5.26345 1.58874 0
M  V30 2315 H 210.964 6.47931 2.03377 0
M  V30 2316 H 208.91 5.26117 3.91838 0
M  V30 2317 H 208.827 6.84266 3.21427 0
M  V30 2318 H 210.095 6.4722 4.34427 0
M  V30 2319 N 214.325 -0.140222 1.56975 0
M  V30 2320 C 215.255 -1.17456 2.01808 0
M  V30 2321 C 216.236 -1.44415 0.898794 0
M  V30 2322 O 217.421 -1.5522 1.16707 0
M  V30 2323 C 214.551 -2.50607 2.40444 0
M  V30 2324 C 213.505 -2.38155 3.55621 0
M  V30 2325 C 212.831 -3.76078 3.80091 0
M  V30 2326 C 214.131 -1.85991 4.88062 0
M  V30 2327 H 215.825 -0.801743 2.88466 0
M  V30 2328 H 213.371 -0.38422 1.38779 0
M  V30 2329 H 215.324 -3.23197 2.7041 0
M  V30 2330 H 214.048 -2.89737 1.50732 0
M  V30 2331 H 212.707 -1.68016 3.25832 0
M  V30 2332 H 212.355 -4.12656 2.87618 0
M  V30 2333 H 212.055 -3.68606 4.57606 0
M  V30 2334 H 213.579 -4.50206 4.12488 0
M  V30 2335 H 214.993 -2.4838 5.16701 0
M  V30 2336 H 213.39 -1.89393 5.6943 0
M  V30 2337 H 214.46 -0.816023 4.77984 0
M  V30 2338 N 215.803 -1.52179 -0.40978 0
M  V30 2339 C 216.735 -1.71703 -1.51825 0
M  V30 2340 C 217.748 -0.597445 -1.51441 0
M  V30 2341 O 218.937 -0.872582 -1.55719 0
M  V30 2342 C 216.037 -1.74171 -2.90719 0
M  V30 2343 C 215.21 -3.03156 -3.15302 0
M  V30 2344 C 214.269 -2.97445 -4.34065 0
M  V30 2345 O 213.295 -3.71352 -4.31377 0
M  V30 2346 N 214.497 -2.15191 -5.39141 0
M  V30 2347 H 217.262 -2.67334 -1.35472 0
M  V30 2348 H 214.823 -1.50409 -0.599069 0
M  V30 2349 H 216.815 -1.67884 -3.68235 0
M  V30 2350 H 215.385 -0.860166 -3.00533 0
M  V30 2351 H 214.605 -3.23097 -2.25836 0
M  V30 2352 H 215.893 -3.88484 -3.28569 0
M  V30 2353 H 215.291 -1.54573 -5.44173 0
M  V30 2354 H 213.848 -2.1476 -6.15403 0
M  V30 2355 N 217.281 0.66697 -1.42791 0
M  V30 2356 C 218.213 1.7925 -1.42836 0
M  V30 2357 C 219.226 1.59496 -0.326333 0
M  V30 2358 O 220.415 1.6847 -0.589916 0
M  V30 2359 C 217.515 3.16476 -1.21229 0
M  V30 2360 C 216.688 3.63011 -2.44013 0
M  V30 2361 C 215.747 4.78993 -2.17834 0
M  V30 2362 O 214.773 4.89137 -2.91091 0
M  V30 2363 N 215.975 5.68248 -1.18635 0
M  V30 2364 H 218.74 1.79695 -2.39854 0
M  V30 2365 H 216.301 0.850338 -1.37771 0
M  V30 2366 H 218.293 3.91734 -1.01621 0
M  V30 2367 H 216.863 3.10884 -0.32706 0
M  V30 2368 H 216.083 2.78346 -2.79137 0
M  V30 2369 H 217.371 3.90845 -3.25757 0
M  V30 2370 H 216.769 5.62712 -0.580615 0
M  V30 2371 H 215.326 6.43285 -1.05013 0
M  V30 2372 N 218.759 1.29093 0.90403 0
M  V30 2373 C 220.005 1.16986 1.65656 0
M  V30 2374 C 220.338 -0.278925 1.92186 0
M  V30 2375 O 219.613 -1.2019 1.5292 0
M  V30 2376 C 219.896 1.97908 3.0084 0
M  V30 2377 C 219.749 3.50903 2.81403 0
M  V30 2378 C 221.068 1.80208 4.01513 0
M  V30 2379 H 218.187 0.426346 0.601164 0
M  V30 2380 H 220.829 1.58518 1.04747 0
M  V30 2381 H 218.979 1.62616 3.52829 0
M  V30 2382 H 220.651 3.96153 2.36348 0
M  V30 2383 H 218.894 3.76045 2.1627 0
M  V30 2384 H 219.565 4.02791 3.77443 0
M  V30 2385 H 222.041 2.11025 3.58619 0
M  V30 2386 H 220.917 2.39184 4.94047 0
M  V30 2387 H 221.178 0.756119 4.35586 0
M  V30 2388 N 220.237 -1.11381 1.11499 0
M  V30 2389 C 221.2 -2.15622 0.777153 0
M  V30 2390 C 222.2 -1.59504 -0.203779 0
M  V30 2391 O 223.39 -1.74188 0.020782 0
M  V30 2392 C 220.522 -3.40556 0.153116 0
M  V30 2393 H 221.715 -2.47021 1.70061 0
M  V30 2394 H 219.268 -1.26577 0.916952 0
M  V30 2395 H 220.003 -3.14767 -0.780536 0
M  V30 2396 H 219.788 -3.8257 0.859238 0
M  V30 2397 H 221.278 -4.17546 -0.0671044 0
M  V30 2398 N 221.715 -0.905404 -1.28997 0
M  V30 2399 C 222.625 -0.392246 -2.31298 0
M  V30 2400 C 223.641 0.515889 -1.66176 0
M  V30 2401 O 224.817 0.404093 -1.97304 0
M  V30 2402 C 221.882 0.36686 -3.44754 0
M  V30 2403 C 220.943 -0.573485 -4.25452 0
M  V30 2404 C 220.176 0.149488 -5.33491 0
M  V30 2405 O 220.399 1.37255 -5.5364 0
M  V30 2406 O 219.333 -0.510919 -5.99728 0
M  V30 2407 H 223.159 -1.2411 -2.77183 0
M  V30 2408 H 220.744 -0.669926 -1.33538 0
M  V30 2409 H 222.626 0.795907 -4.13816 0
M  V30 2410 H 221.301 1.19169 -3.00966 0
M  V30 2411 H 220.208 -1.05176 -3.59011 0
M  V30 2412 H 221.541 -1.36489 -4.72897 0
M  V30 2413 N 223.193 1.4272 -0.668489 0
M  V30 2414 C 224.14 2.30796 0.0137489 0
M  V30 2415 C 225.11 1.4561 0.799177 0
M  V30 2416 O 226.295 1.74453 0.772702 0
M  V30 2417 C 223.435 3.31377 0.963507 0
M  V30 2418 C 222.548 4.31655 0.172569 0
M  V30 2419 C 221.683 5.19312 1.1175 0
M  V30 2420 C 220.722 6.11274 0.317886 0
M  V30 2421 N 219.859 6.91504 1.2152 0
M  V30 2422 H 224.699 2.88585 -0.743161 0
M  V30 2423 H 222.236 1.42154 -0.378226 0
M  V30 2424 H 224.194 3.88214 1.52792 0
M  V30 2425 H 222.824 2.75202 1.68712 0
M  V30 2426 H 221.876 3.76988 -0.508374 0
M  V30 2427 H 223.188 4.96779 -0.448527 0
M  V30 2428 H 222.342 5.80851 1.75206 0
M  V30 2429 H 221.081 4.5435 1.77249 0
M  V30 2430 H 220.086 5.48809 -0.329918 0
M  V30 2431 H 221.311 6.78283 -0.332917 0
M  V30 2432 H 219.257 6.29176 1.85671 0
M  V30 2433 H 219.174 7.53209 0.649036 0
M  V30 2434 H 220.442 7.57535 1.83742 0
M  V30 2435 N 224.671 0.411399 1.52136 0
M  V30 2436 C 225.901 -0.16284 2.05957 0
M  V30 2437 C 226.309 -1.3922 1.28119 0
M  V30 2438 O 225.652 -1.80768 0.326881 0
M  V30 2439 C 225.714 -0.575946 3.54856 0
M  V30 2440 C 225.378 0.542998 4.53763 0
M  V30 2441 C 226.375 1.40726 5.00492 0
M  V30 2442 C 224.06 0.716337 4.97166 0
M  V30 2443 C 226.054 2.4298 5.8927 0
M  V30 2444 C 223.741 1.74218 5.8574 0
M  V30 2445 C 224.739 2.59731 6.31687 0
M  V30 2446 O 224.427 3.60558 7.18507 0
M  V30 2447 H 224.159 -0.0229125 0.675612 0
M  V30 2448 H 226.713 0.581634 1.96993 0
M  V30 2449 H 224.943 -1.37274 3.61515 0
M  V30 2450 H 226.632 -1.07836 3.91313 0
M  V30 2451 H 227.398 1.28476 4.67674 0
M  V30 2452 H 223.277 0.0603857 4.6096 0
M  V30 2453 H 226.821 3.0976 6.25055 0
M  V30 2454 H 222.718 1.86498 6.17971 0
M  V30 2455 H 223.486 3.56829 7.36624 0
M  V30 2456 N 226.149 -1.5696 0.141893 0
M  V30 2457 C 227.379 -2.00031 -0.516828 0
M  V30 2458 C 227.787 -1.02091 -1.59293 0
M  V30 2459 O 227.13 -0.00909657 -1.83698 0
M  V30 2460 C 227.192 -3.39534 -1.1814 0
M  V30 2461 C 226.856 -4.56313 -0.250513 0
M  V30 2462 C 227.853 -5.17295 0.519839 0
M  V30 2463 C 225.538 -5.02061 -0.154907 0
M  V30 2464 C 227.532 -6.2243 1.3733 0
M  V30 2465 C 225.219 -6.07053 0.702161 0
M  V30 2466 C 226.217 -6.67106 1.46487 0
M  V30 2467 O 225.905 -7.70066 2.30767 0
M  V30 2468 H 225.637 -0.661451 -0.139493 0
M  V30 2469 H 228.191 -2.04086 0.231926 0
M  V30 2470 H 226.421 -3.32302 -1.97769 0
M  V30 2471 H 228.11 -3.66745 -1.73933 0
M  V30 2472 H 228.876 -4.82852 0.45598 0
M  V30 2473 H 224.755 -4.5505 -0.7383 0
M  V30 2474 H 228.299 -6.69233 1.96909 0
M  V30 2475 H 224.196 -6.40923 0.76733 0
M  V30 2476 H 224.964 -7.87264 2.23959 0
M  V30 2477 N 227.627 0.131896 -1.57047 0
M  V30 2478 C 228.875 0.840269 -1.83804 0
M  V30 2479 C 229.196 1.81017 -0.72512 0
M  V30 2480 O 228.466 1.94272 0.251995 0
M  V30 2481 H 227.046 0.313294 -0.678127 0
M  V30 2482 H 229.708 0.122294 -1.94516 0
M  V30 2483 H 228.804 1.39335 -2.79271 0
M  V30 2484 N 229.106 1.52395 0.401703 0
M  V30 2485 C 230.054 1.7689 1.51039 0
M  V30 2486 C 231.048 0.636298 1.56996 0
M  V30 2487 O 232.254 0.818507 1.60314 0
M  V30 2488 H 228.629 0.559502 0.502456 0
M  V30 2489 H 230.6 2.69757 1.27568 0
M  V30 2490 C 229.349 1.94331 2.88324 0
M  V30 2491 H 228.672 2.80905 2.84486 0
M  V30 2492 H 230.112 2.15466 3.65172 0
M  V30 2493 C 228.571 0.712396 3.29282 0
M  V30 2494 O 229.101 -0.116218 4.01532 0
M  V30 2495 N 227.307 0.546154 2.85422 0
M  V30 2496 H 226.854 1.22156 2.26794 0
M  V30 2497 H 226.812 -0.276113 3.13185 0
M  V30 2498 N 230.584 -0.659388 1.43143 0
M  V30 2499 C 231.531 -1.77249 1.47822 0
M  V30 2500 C 232.501 -1.62818 0.328558 0
M  V30 2501 O 233.686 -1.83151 0.534838 0
M  V30 2502 C 230.826 -3.15371 1.40126 0
M  V30 2503 C 229.939 -3.4098 2.65249 0
M  V30 2504 C 229.074 -4.68915 2.49584 0
M  V30 2505 C 228.113 -4.87608 3.70006 0
M  V30 2506 N 227.25 -6.06796 3.53189 0
M  V30 2507 H 232.09 -1.72584 2.42938 0
M  V30 2508 H 229.627 -0.842297 1.20598 0
M  V30 2509 H 231.585 -3.9521 1.33659 0
M  V30 2510 H 230.215 -3.19121 0.485964 0
M  V30 2511 H 229.267 -2.55282 2.8202 0
M  V30 2512 H 230.579 -3.50681 3.54717 0
M  V30 2513 H 229.733 -5.56871 2.4079 0
M  V30 2514 H 228.472 -4.61524 1.5763 0
M  V30 2515 H 227.477 -3.9809 3.79215 0
M  V30 2516 H 228.702 -4.96834 4.62961 0
M  V30 2517 H 226.648 -6.00549 2.63965 0
M  V30 2518 H 226.565 -6.17428 4.36255 0
M  V30 2519 H 227.833 -6.9739 3.48236 0
M  V30 2520 N 232.062 -1.29571 -0.897171 0
M  V30 2521 C 233.302 -1.18959 -1.66217 0
M  V30 2522 C 233.666 0.254271 -1.90309 0
M  V30 2523 O 234.867 0.483407 -2.64417 0
M  V30 2524 C 233.138 -1.98302 -2.9734 0
M  V30 2525 S 234.697 -2.04253 -3.88364 0
M  V30 2526 H 231.515 -0.424137 -0.570639 0
M  V30 2527 H 234.117 -1.6389 -1.06585 0
M  V30 2528 H 232.821 -3.02342 -2.77521 0
M  V30 2529 H 232.352 -1.53986 -3.62011 0
M  V30 2530 H 234.367 -1.16105 -4.82425 0
M  V30 2531 N 233.54 1.10788 -1.12088 0
M  V30 2532 C 234.789 1.82036 -0.868659 0
M  V30 2533 C 235.102 1.85929 0.607426 0
M  V30 2534 O 236.308 2.53346 0.97613 0
M  V30 2535 C 234.764 3.26951 -1.50435 0
M  V30 2536 C 234.372 3.31367 -3.01496 0
M  V30 2537 C 236.116 4.03053 -1.33225 0
M  V30 2538 C 234.023 4.7072 -3.58017 0
M  V30 2539 H 232.953 0.682108 -0.321318 0
M  V30 2540 H 235.604 1.24618 -1.34694 0
M  V30 2541 H 233.986 3.84343 -0.953735 0
M  V30 2542 H 235.16 2.83819 -3.6302 0
M  V30 2543 H 233.475 2.6875 -3.18061 0
M  V30 2544 H 236.072 5.05981 -1.72878 0
M  V30 2545 H 236.415 4.15387 -0.275529 0
M  V30 2546 H 236.948 3.52066 -1.85188 0
M  V30 2547 H 233.687 4.63585 -4.63432 0
M  V30 2548 H 233.207 5.1865 -3.01268 0
M  V30 2549 H 234.886 5.39685 -3.56859 0
M  V30 2550 N 235.018 0.912232 1.28515 0
M  V30 2551 C 236.267 0.540504 1.94323 0
M  V30 2552 C 236.58 -0.920044 1.72611 0
M  V30 2553 O 237.786 -1.39986 2.32629 0
M  V30 2554 C 236.242 0.915803 3.48053 0
M  V30 2555 C 235.85 2.39598 3.78546 0
M  V30 2556 C 237.594 0.614588 4.20027 0
M  V30 2557 C 235.501 2.71148 5.25578 0
M  V30 2558 H 234.431 0.198418 0.727424 0
M  V30 2559 H 237.082 1.11094 1.46049 0
M  V30 2560 H 235.464 0.274168 3.9505 0
M  V30 2561 H 236.638 3.08422 3.42364 0
M  V30 2562 H 234.953 2.66749 3.1974 0
M  V30 2563 H 237.55 0.827002 5.28266 0
M  V30 2564 H 237.893 -0.447531 4.13887 0
M  V30 2565 H 238.426 1.21462 3.78803 0
M  V30 2566 H 235.165 3.76207 5.36794 0
M  V30 2567 H 234.685 2.0696 5.62963 0
M  V30 2568 H 236.364 2.58072 5.93302 0
M  V30 2569 N 236.496 -1.42363 0.676048 0
M  V30 2570 C 237.907 -1.84649 0.275948 0
M  V30 2571 C 238.258 -1.56588 -1.18214 0
M  V30 2572 O 237.383 -1.02634 -1.90513 0
M  V30 2573 C 237.978 -3.35178 0.494053 0
M  V30 2574 C 236.537 -3.76109 0.148061 0
M  V30 2575 C 235.684 -2.65931 0.785891 0
M  V30 2576 H 238.635 -1.32192 0.878121 0
M  V30 2577 H 238.656 -3.79655 -0.25343 0
M  V30 2578 H 238.168 -3.55571 1.55535 0
M  V30 2579 H 236.269 -3.61323 -0.909742 0
M  V30 2580 H 236.382 -4.7546 0.589454 0
M  V30 2581 H 234.746 -2.53773 0.217113 0
M  V30 2582 H 235.529 -2.89146 1.85067 0
M  V30 2583 N 237.974 -0.419461 -1.51915 0
M  V30 2584 C 239.22 0.145505 -2.02879 0
M  V30 2585 C 239.575 1.41926 -1.29903 0
M  V30 2586 O 238.868 1.87383 -0.399782 0
M  V30 2587 C 239.062 0.437067 -3.54717 0
M  V30 2588 C 238.891 -0.806877 -4.42402 0
M  V30 2589 C 237.661 -1.33514 -4.87342 0
M  V30 2590 C 239.859 -1.68796 -4.85811 0
M  V30 2591 N 237.841 -2.53349 -5.59185 0
M  V30 2592 C 239.212 -2.73247 -5.56539 0
M  V30 2593 C 241.267 -1.70449 -4.67816 0
M  V30 2594 C 239.97 -3.79276 -6.11181 0
M  V30 2595 C 241.996 -2.75403 -5.23361 0
M  V30 2596 C 241.358 -3.78575 -5.9402 0
M  V30 2597 H 237.457 0.0145424 -0.781865 0
M  V30 2598 H 240.041 -0.576126 -1.85981 0
M  V30 2599 H 238.212 1.12774 -3.71667 0
M  V30 2600 H 239.944 0.99182 -3.92358 0
M  V30 2601 H 236.699 -0.891657 -4.65131 0
M  V30 2602 H 237.123 -3.14066 -5.99743 0
M  V30 2603 H 241.765 -0.920209 -4.12664 0
M  V30 2604 H 239.483 -4.58554 -6.65397 0
M  V30 2605 H 243.069 -2.77603 -5.113 0
M  V30 2606 H 241.949 -4.58453 -6.36231 0
M  V30 2607 N 239.452 1.56882 -0.150215 0
M  V30 2608 C 240.682 2.00302 0.506213 0
M  V30 2609 C 241.09 1.02934 1.58749 0
M  V30 2610 O 240.433 0.0188384 1.8369 0
M  V30 2611 C 240.495 3.40156 1.16337 0
M  V30 2612 C 240.159 4.56439 0.226311 0
M  V30 2613 C 241.156 5.17012 -0.547265 0
M  V30 2614 C 238.841 5.02136 0.128279 0
M  V30 2615 C 240.835 6.21693 -1.40629 0
M  V30 2616 C 238.522 6.06672 -0.734345 0
M  V30 2617 C 239.52 6.6632 -1.50023 0
M  V30 2618 O 239.208 7.68831 -2.34848 0
M  V30 2619 H 238.94 0.662182 0.135984 0
M  V30 2620 H 241.494 2.03961 -0.242746 0
M  V30 2621 H 239.724 3.33346 1.96004 0
M  V30 2622 H 241.413 3.67663 1.71985 0
M  V30 2623 H 242.179 4.82603 -0.48158 0
M  V30 2624 H 238.058 4.55435 0.714157 0
M  V30 2625 H 241.602 6.68179 -2.00455 0
M  V30 2626 H 237.499 6.40507 -0.801309 0
M  V30 2627 H 238.267 7.86065 -2.28131 0
M  V30 2628 N 240.93 -0.123565 1.57115 0
M  V30 2629 C 242.179 -0.830704 1.83799 0
M  V30 2630 C 242.492 -1.81259 0.735158 0
M  V30 2631 O 243.698 -2.56558 0.888278 0
M  V30 2632 C 242.154 -1.52802 3.25852 0
M  V30 2633 C 241.762 -0.587356 4.44133 0
M  V30 2634 C 243.506 -2.22056 3.61789 0
M  V30 2635 C 241.413 -1.28764 5.77212 0
M  V30 2636 H 240.343 -0.313967 0.685522 0
M  V30 2637 H 242.994 -0.0834359 1.8331 0
M  V30 2638 H 241.376 -2.32175 3.20797 0
M  V30 2639 H 242.55 0.172829 4.60476 0
M  V30 2640 H 240.865 -0.00201892 4.164 0
M  V30 2641 H 243.462 -2.75131 4.58483 0
M  V30 2642 H 243.805 -2.99644 2.88997 0
M  V30 2643 H 244.338 -1.49576 3.68608 0
M  V30 2644 H 241.077 -0.55314 6.53162 0
M  V30 2645 H 240.597 -2.01995 5.64764 0
M  V30 2646 H 242.276 -1.8221 6.20813 0
M  V30 2647 N 242.408 -1.52605 -0.393616 0
M  V30 2648 C 243.341 -1.71798 -1.50202 0
M  V30 2649 C 244.319 -0.565743 -1.52441 0
M  V30 2650 O 245.503 -0.794987 -1.70916 0
M  V30 2651 C 242.63 -1.7714 -2.88685 0
M  V30 2652 C 241.676 -2.98845 -3.04292 0
M  V30 2653 S 242.509 -4.58909 -2.75976 0
M  V30 2654 C 243.665 -4.6706 -4.1666 0
M  V30 2655 H 243.898 -2.65542 -1.33696 0
M  V30 2656 H 241.431 -1.42839 -0.586195 0
M  V30 2657 H 243.389 -1.80903 -3.68489 0
M  V30 2658 H 242.05 -0.844969 -3.02521 0
M  V30 2659 H 241.243 -2.99111 -4.05646 0
M  V30 2660 H 240.845 -2.9305 -2.32374 0
M  V30 2661 H 243.137 -4.45391 -5.10523 0
M  V30 2662 H 244.08 -5.6905 -4.21412 0
M  V30 2663 H 244.488 -3.95944 -4.02354 0
M  V30 2664 N 243.887 0.651787 -1.4349 0
M  V30 2665 C 245.115 1.43937 -1.48626 0
M  V30 2666 C 245.53 1.8851 -0.104587 0
M  V30 2667 O 244.887 1.5958 0.885464 0
M  V30 2668 C 244.938 2.6734 -2.43334 0
M  V30 2669 O 244.659 2.24631 -3.76128 0
M  V30 2670 C 246.16 3.60683 -2.57726 0
M  V30 2671 H 243.38 0.44213 -0.504739 0
M  V30 2672 H 245.924 0.798944 -1.88248 0
M  V30 2673 H 244.079 3.2752 -2.06904 0
M  V30 2674 H 244.493 3.04485 -4.2707 0
M  V30 2675 H 245.967 4.43933 -3.28067 0
M  V30 2676 H 246.444 4.08126 -1.62265 0
M  V30 2677 H 247.05 3.06384 -2.94973 0
M  V30 2678 N 245.365 1.30045 0.890287 0
M  V30 2679 C 246.59 1.21598 1.68014 0
M  V30 2680 C 247.015 -0.218678 1.86825 0
M  V30 2681 O 246.373 -1.15756 1.39536 0
M  V30 2682 C 246.421 1.94434 3.03691 0
M  V30 2683 O 245.525 1.2678 3.92429 0
M  V30 2684 H 244.866 0.420856 0.513592 0
M  V30 2685 H 247.396 1.71775 1.11151 0
M  V30 2686 H 247.406 2.03251 3.5377 0
M  V30 2687 H 246.081 2.98777 2.89318 0
M  V30 2688 H 244.658 1.26282 3.50866 0
M  V30 2689 N 246.843 -1.10192 1.12674 0
M  V30 2690 C 248.091 -1.81845 0.881861 0
M  V30 2691 C 248.412 -1.85737 -0.593867 0
M  V30 2692 O 247.682 -1.33724 -1.4316 0
M  V30 2693 H 246.262 -0.673432 0.323261 0
M  V30 2694 H 248.924 -1.33316 1.42172 0
M  V30 2695 H 248.02 -2.85288 1.2656 0
M  V30 2696 N 248.321 -0.919034 -1.28029 0
M  V30 2697 C 249.737 -0.617972 -1.4715 0
M  V30 2698 C 249.937 0.835242 -1.83374 0
M  V30 2699 O 248.993 1.61388 -1.94191 0
M  V30 2700 C 250.306 -1.56041 -2.57044 0
M  V30 2701 C 251.854 -1.56769 -2.7091 0
M  V30 2702 C 252.329 -2.49688 -3.83953 0
M  V30 2703 N 253.82 -2.47845 -3.91314 0
M  V30 2704 C 254.555 -3.16437 -4.78179 0
M  V30 2705 N 254.051 -3.94376 -5.69596 0
M  V30 2706 N 255.844 -3.05498 -4.71834 0
M  V30 2707 H 247.995 -1.85866 -1.02798 0
M  V30 2708 H 250.258 -0.797506 -0.512531 0
M  V30 2709 H 249.964 -2.59671 -2.372 0
M  V30 2710 H 249.838 -1.29551 -3.54255 0
M  V30 2711 H 252.225 -0.538745 -2.90141 0
M  V30 2712 H 252.306 -1.87305 -1.74214 0
M  V30 2713 H 251.95 -3.52688 -3.65477 0
M  V30 2714 H 251.88 -2.16453 -4.80058 0
M  V30 2715 H 254.371 -1.91234 -3.25941 0
M  V30 2716 H 254.684 -4.43721 -6.32718 0
M  V30 2717 H 253.029 -3.98481 -5.69419 0
M  V30 2718 H 256.22 -2.44108 -3.99411 0
M  V30 2719 H 256.393 -3.59225 -5.39316 0
M  V30 2720 N 249.799 1.42003 -0.683588 0
M  V30 2721 C 251.027 2.05746 -0.218182 0
M  V30 2722 C 251.442 1.51396 1.12804 0
M  V30 2723 O 250.799 0.657303 1.70252 0
M  V30 2724 C 250.85 3.61171 -0.154131 0
M  V30 2725 O 250.571 4.13508 -1.44716 0
M  V30 2726 C 252.072 4.42042 0.333713 0
M  V30 2727 H 249.292 0.662888 -0.10402 0
M  V30 2728 H 251.836 1.81987 -0.9328 0
M  V30 2729 H 249.991 3.84012 0.511231 0
M  V30 2730 H 250.405 5.07453 -1.32632 0
M  V30 2731 H 251.879 5.51028 0.327423 0
M  V30 2732 H 252.356 4.17269 1.37053 0
M  V30 2733 H 252.962 4.24239 -0.300222 0
M  V30 2734 N 251.277 0.427512 1.51691 0
M  V30 2735 C 252.21 -0.433876 2.24037 0
M  V30 2736 C 253.188 -1.03287 1.25581 0
M  V30 2737 O 254.372 -1.07722 1.54688 0
M  V30 2738 C 251.499 -1.60385 2.98319 0
M  V30 2739 C 250.545 -1.12648 4.11355 0
M  V30 2740 S 251.378 -0.076543 5.35445 0
M  V30 2741 C 252.534 -1.25141 6.13262 0
M  V30 2742 H 252.767 0.180367 2.96752 0
M  V30 2743 H 250.3 0.211946 1.52938 0
M  V30 2744 H 252.258 -2.27462 3.41718 0
M  V30 2745 H 250.919 -2.18948 2.25213 0
M  V30 2746 H 250.112 -2.0011 4.62571 0
M  V30 2747 H 249.714 -0.534088 3.70167 0
M  V30 2748 H 252.006 -2.17162 6.41753 0
M  V30 2749 H 252.949 -0.779411 7.03797 0
M  V30 2750 H 253.357 -1.48553 5.44603 0
M  V30 2751 N 252.755 -1.56801 0.158532 0
M  V30 2752 C 253.665 -2.20916 -0.789518 0
M  V30 2753 C 254.681 -1.1969 -1.26294 0
M  V30 2754 O 255.857 -1.52308 -1.31773 0
M  V30 2755 C 252.922 -2.82727 -2.00665 0
M  V30 2756 C 251.983 -3.99114 -1.58134 0
M  V30 2757 C 251.216 -4.57968 -2.74045 0
M  V30 2758 O 251.439 -4.15704 -3.90572 0
M  V30 2759 O 250.373 -5.48047 -2.48855 0
M  V30 2760 H 254.199 -3.02464 -0.273681 0
M  V30 2761 H 251.784 -1.4924 -0.0690548 0
M  V30 2762 H 253.666 -3.21968 -2.71872 0
M  V30 2763 H 252.341 -2.04184 -2.51179 0
M  V30 2764 H 251.248 -3.64567 -0.839155 0
M  V30 2765 H 252.581 -4.79212 -1.12325 0
M  V30 2766 N 254.233 0.115231 -1.57178 0
M  V30 2767 C 255.458 0.840354 -1.89612 0
M  V30 2768 C 255.883 1.72464 -0.750845 0
M  V30 2769 O 255.241 1.78826 0.298478 0
M  V30 2770 C 255.289 1.64654 -3.20814 0
M  V30 2771 O 254.393 2.7538 -3.06985 0
M  V30 2772 H 253.734 0.232158 -0.622092 0
M  V30 2773 H 256.264 0.0964977 -2.04372 0
M  V30 2774 H 256.274 2.03499 -3.53627 0
M  V30 2775 H 254.949 0.997416 -4.03763 0
M  V30 2776 H 253.526 2.3971 -2.85646 0
M  V30 2777 N 255.711 1.52812 0.385517 0
M  V30 2778 C 256.939 1.71907 1.15133 0
M  V30 2779 C 257.354 0.439004 1.83625 0
M  V30 2780 O 256.711 -0.586765 1.7281 0
M  V30 2781 C 256.762 2.87099 2.19673 0
M  V30 2782 O 256.483 4.10151 1.53973 0
M  V30 2783 C 257.984 3.17902 3.08955 0
M  V30 2784 H 255.204 0.575479 0.345057 0
M  V30 2785 H 257.748 1.99476 0.45052 0
M  V30 2786 H 255.903 2.61982 2.85384 0
M  V30 2787 H 256.317 4.74514 2.23465 0
M  V30 2788 H 257.791 4.01959 3.7833 0
M  V30 2789 H 258.268 2.3243 3.72657 0
M  V30 2790 H 258.874 3.44871 2.48885 0
M  V30 2791 N 257.189 -0.644168 1.43834 0
M  V30 2792 C 258.136 -1.75671 1.49694 0
M  V30 2793 C 259.106 -1.6246 0.345809 0
M  V30 2794 O 260.291 -1.82573 0.554234 0
M  V30 2795 C 257.431 -3.13867 1.43463 0
M  V30 2796 C 256.544 -3.38147 2.6885 0
M  V30 2797 C 255.679 -4.66241 2.54544 0
M  V30 2798 C 254.718 -4.83657 3.75157 0
M  V30 2799 N 253.855 -6.03016 3.59605 0
M  V30 2800 H 258.695 -1.69998 2.44754 0
M  V30 2801 H 256.232 -0.829458 1.21484 0
M  V30 2802 H 258.19 -3.9377 1.37843 0
M  V30 2803 H 256.82 -3.18588 0.519783 0
M  V30 2804 H 255.872 -2.52276 2.84712 0
M  V30 2805 H 257.184 -3.46899 3.58417 0
M  V30 2806 H 256.338 -5.54285 2.46683 0
M  V30 2807 H 255.077 -4.59826 1.62516 0
M  V30 2808 H 254.082 -3.94046 3.83416 0
M  V30 2809 H 255.307 -4.91896 4.68204 0
M  V30 2810 H 253.253 -5.97715 2.7032 0
M  V30 2811 H 253.17 -6.12766 4.42779 0
M  V30 2812 H 254.438 -6.93657 3.55613 0
M  V30 2813 N 258.668 -1.30515 -0.883378 0
M  V30 2814 C 259.578 -1.18959 -2.02203 0
M  V30 2815 C 260.594 -0.109172 -1.73657 0
M  V30 2816 O 261.77 -0.324413 -1.9877 0
M  V30 2817 C 258.835 -0.883871 -3.35244 0
M  V30 2818 C 257.896 -2.04982 -3.77201 0
M  V30 2819 C 257.129 -1.75859 -5.03894 0
M  V30 2820 O 257.352 -0.687276 -5.66244 0
M  V30 2821 O 256.286 -2.61146 -5.42297 0
M  V30 2822 H 260.112 -2.14616 -2.1488 0
M  V30 2823 H 257.697 -1.10124 -1.0096 0
M  V30 2824 H 259.579 -0.728644 -4.15053 0
M  V30 2825 H 258.254 0.0427798 -3.23672 0
M  V30 2826 H 257.161 -2.26038 -2.9809 0
M  V30 2827 H 258.494 -2.95825 -3.93381 0
M  V30 2828 N 260.146 1.09593 -1.13257 0
M  V30 2829 C 261.393 1.81734 -0.893257 0
M  V30 2830 C 261.721 1.8563 0.580656 0
M  V30 2831 O 260.976 1.31906 1.44566 0
M  V30 2832 C 261.275 3.27802 -1.42411 0
M  V30 2833 C 260.941 3.44041 -2.91456 0
M  V30 2834 C 259.603 3.48181 -3.3215 0
M  V30 2835 C 261.955 3.48719 -3.87356 0
M  V30 2836 C 259.283 3.54575 -4.67433 0
M  V30 2837 C 261.635 3.56648 -5.2248 0
M  V30 2838 C 260.299 3.59055 -5.62704 0
M  V30 2839 H 259.569 0.665011 -0.326866 0
M  V30 2840 H 262.216 1.2912 -1.41422 0
M  V30 2841 H 260.521 3.83042 -0.823795 0
M  V30 2842 H 262.218 3.82149 -1.21503 0
M  V30 2843 H 258.808 3.41502 -2.58987 0
M  V30 2844 H 262.992 3.44763 -3.57004 0
M  V30 2845 H 258.248 3.54725 -4.97976 0
M  V30 2846 H 262.422 3.59212 -5.96607 0
M  V30 2847 H 260.049 3.63763 -6.67518 0
M  V30 2848 N 261.624 0.925811 1.2754 0
M  V30 2849 C 262.871 0.565255 1.94451 0
M  V30 2850 C 263.199 -0.89316 1.7278 0
M  V30 2851 O 262.454 -1.65213 1.04895 0
M  V30 2852 C 262.753 0.835296 3.47502 0
M  V30 2853 C 262.419 2.27515 3.89291 0
M  V30 2854 C 261.081 2.66879 4.00411 0
M  V30 2855 C 263.433 3.21158 4.10496 0
M  V30 2856 C 260.761 3.99014 4.30122 0
M  V30 2857 C 263.113 4.52871 4.4169 0
M  V30 2858 C 261.777 4.92072 4.51023 0
M  V30 2859 H 261.047 0.206841 0.711546 0
M  V30 2860 H 263.694 1.16942 1.51647 0
M  V30 2861 H 261.999 0.148442 3.91519 0
M  V30 2862 H 263.696 0.535322 3.97411 0
M  V30 2863 H 260.286 1.95976 3.81171 0
M  V30 2864 H 264.47 2.9195 4.01346 0
M  V30 2865 H 259.726 4.2907 4.35556 0
M  V30 2866 H 263.9 5.25436 4.57045 0
M  V30 2867 H 261.527 5.9449 4.738 0
M  V30 2868 N 263.102 -1.41638 0.69111 0
M  V30 2869 C 264.33 -2.05628 0.22909 0
M  V30 2870 C 264.745 -1.51992 -1.11999 0
M  V30 2871 O 264.102 -0.666322 -1.69901 0
M  V30 2872 C 264.153 -3.61084 0.173283 0
M  V30 2873 O 263.874 -4.12735 1.46907 0
M  V30 2874 C 265.375 -4.42213 -0.310266 0
M  V30 2875 H 262.595 -0.662327 0.107534 0
M  V30 2876 H 265.139 -1.81489 0.942438 0
M  V30 2877 H 263.294 -3.84278 -0.490858 0
M  V30 2878 H 263.708 -5.06743 1.35322 0
M  V30 2879 H 265.182 -5.51194 -0.298196 0
M  V30 2880 H 265.659 -4.1799 -1.34838 0
M  V30 2881 H 266.265 -4.24074 0.322716 0
M  V30 2882 N 264.58 -0.43555 -1.51462 0
M  V30 2883 C 265.527 0.376797 -2.27703 0
M  V30 2884 C 266.497 1.01838 -1.31219 0
M  V30 2885 O 267.682 1.03762 -1.60119 0
M  V30 2886 C 264.822 1.47301 -3.12084 0
M  V30 2887 C 263.935 0.849744 -4.2356 0
M  V30 2888 C 263.07 1.92086 -4.95254 0
M  V30 2889 C 262.109 1.27593 -5.98654 0
M  V30 2890 N 261.246 2.28833 -6.63762 0
M  V30 2891 H 266.086 -0.279734 -2.96684 0
M  V30 2892 H 263.623 -0.149795 -1.46335 0
M  V30 2893 H 265.581 2.11984 -3.59331 0
M  V30 2894 H 264.211 2.0992 -2.45221 0
M  V30 2895 H 263.263 0.0912529 -3.80291 0
M  V30 2896 H 264.575 0.338878 -4.97648 0
M  V30 2897 H 263.729 2.64435 -5.46039 0
M  V30 2898 H 262.468 2.46545 -4.20793 0
M  V30 2899 H 261.473 0.537893 -5.47162 0
M  V30 2900 H 262.698 0.738693 -6.7507 0
M  V30 2901 H 260.644 2.82375 -5.92115 0
M  V30 2902 H 260.561 1.82632 -7.33608 0
M  V30 2903 H 261.829 3.00671 -7.19178 0
M  V30 2904 N 266.058 1.56714 -0.166846 0
M  V30 2905 C 267.008 2.14338 0.777382 0
M  V30 2906 C 267.992 1.07642 1.19591 0
M  V30 2907 O 269.184 1.33775 1.15902 0
M  V30 2908 C 266.313 2.78417 2.00846 0
M  V30 2909 C 265.399 3.92264 1.61212 0
M  V30 2910 N 265.79 4.97268 0.925104 0
M  V30 2911 C 264.088 4.03342 1.90346 0
M  V30 2912 C 264.789 5.77093 0.730627 0
M  V30 2913 N 263.765 5.2854 1.27067 0
M  V30 2914 H 267.567 2.9289 0.243466 0
M  V30 2915 H 265.081 1.62364 0.0339954 0
M  V30 2916 H 267.078 3.18073 2.69509 0
M  V30 2917 H 265.738 2.01344 2.54736 0
M  V30 2918 H 266.749 5.14601 0.583646 0
M  V30 2919 H 263.426 3.37368 2.45946 0
M  V30 2920 H 264.816 6.71638 0.187668 0
M  V30 2921 N 267.536 -0.106894 1.57237 0
M  V30 2922 C 268.483 -1.13049 2.01217 0
M  V30 2923 C 269.453 -1.40471 0.886403 0
M  V30 2924 O 270.638 -1.52133 1.15153 0
M  V30 2925 C 267.778 -2.4487 2.43172 0
M  V30 2926 C 266.891 -2.24281 3.69218 0
M  V30 2927 C 266.026 -3.49417 4.00101 0
M  V30 2928 C 265.065 -3.24038 5.19294 0
M  V30 2929 N 264.202 -4.41409 5.45988 0
M  V30 2930 H 269.042 -0.748456 2.88448 0
M  V30 2931 H 266.579 -0.358054 1.42676 0
M  V30 2932 H 268.537 -3.21786 2.65537 0
M  V30 2933 H 267.167 -2.80944 1.58967 0
M  V30 2934 H 266.219 -1.38224 3.54398 0
M  V30 2935 H 267.531 -2.01512 4.56283 0
M  V30 2936 H 266.685 -4.34746 4.2318 0
M  V30 2937 H 265.424 -3.75229 3.11535 0
M  V30 2938 H 264.429 -2.37102 4.96047 0
M  V30 2939 H 265.654 -2.99584 6.09447 0
M  V30 2940 H 263.6 -4.67319 4.60379 0
M  V30 2941 H 263.517 -4.21788 6.274 0
M  V30 2942 H 264.785 -5.27836 5.73593 0
M  V30 2943 N 269.014 -1.53014 -0.377408 0
M  V30 2944 C 270.244 -1.72265 -1.14054 0
M  V30 2945 C 270.652 -0.44601 -1.83868 0
M  V30 2946 O 269.995 0.590095 -1.73964 0
M  V30 2947 C 270.057 -2.82492 -2.22348 0
M  V30 2948 C 269.721 -4.23233 -1.72402 0
M  V30 2949 C 270.718 -5.05992 -1.19448 0
M  V30 2950 C 268.403 -4.696 -1.78273 0
M  V30 2951 C 270.397 -6.33203 -0.730268 0
M  V30 2952 C 268.084 -5.96792 -1.31464 0
M  V30 2953 C 269.082 -6.78424 -0.789297 0
M  V30 2954 O 268.77 -8.0323 -0.328077 0
M  V30 2955 H 268.502 -0.579873 -0.347453 0
M  V30 2956 H 271.056 -2.00502 -0.445882 0
M  V30 2957 H 269.286 -2.49702 -2.95272 0
M  V30 2958 H 270.975 -2.90034 -2.83963 0
M  V30 2959 H 271.741 -4.71349 -1.14259 0
M  V30 2960 H 267.62 -4.06142 -2.18106 0
M  V30 2961 H 271.164 -6.96868 -0.319542 0
M  V30 2962 H 267.061 -6.30937 -1.36342 0
M  V30 2963 H 267.829 -8.1727 -0.448493 0
M  V30 2964 N 270.492 0.636531 -1.44174 0
M  V30 2965 C 271.739 1.39619 -1.46672 0
M  V30 2966 C 272.067 1.94257 -0.0972691 0
M  V30 2967 O 271.322 1.73768 0.900175 0
M  V30 2968 C 271.621 2.58309 -2.47005 0
M  V30 2969 C 271.287 2.21992 -3.92467 0
M  V30 2970 C 269.949 2.118 -4.32081 0
M  V30 2971 C 272.301 1.9321 -4.84065 0
M  V30 2972 C 269.629 1.71007 -5.61225 0
M  V30 2973 C 271.981 1.53911 -6.13591 0
M  V30 2974 C 270.645 1.42257 -6.52165 0
M  V30 2975 H 269.915 0.510902 -0.536712 0
M  V30 2976 H 272.562 0.722328 -1.77355 0
M  V30 2977 H 270.867 3.30903 -2.09786 0
M  V30 2978 H 272.564 3.16533 -2.46186 0
M  V30 2979 H 269.154 2.30841 -3.61124 0
M  V30 2980 H 273.338 1.99997 -4.54219 0
M  V30 2981 H 268.594 1.60583 -5.89935 0
M  V30 2982 H 272.768 1.30677 -6.8403 0
M  V30 2983 H 270.395 1.10419 -7.52138 0
M  V30 2984 N 271.97 1.30982 0.876444 0
M  V30 2985 C 273.218 1.20058 1.62575 0
M  V30 2986 C 273.539 -0.242947 1.93481 0
M  V30 2987 O 272.809 -1.1619 1.57724 0
M  V30 2988 H 271.389 0.44135 0.602677 0
M  V30 2989 H 274.051 1.64222 1.04962 0
M  V30 2990 H 273.147 1.76762 2.57219 0
M  V30 2991 N 273.449 -1.08991 1.13837 0
M  V30 2992 C 274.379 -2.17771 0.842507 0
M  V30 2993 C 275.36 -1.6892 -0.20001 0
M  V30 2994 O 276.545 -1.94113 -0.0579731 0
M  V30 2995 C 273.675 -3.4589 0.312644 0
M  V30 2996 C 272.629 -4.08099 1.28992 0
M  V30 2997 C 271.955 -5.31098 0.619623 0
M  V30 2998 C 273.255 -4.50077 2.65005 0
M  V30 2999 H 274.949 -2.42777 1.75213 0
M  V30 3000 H 272.495 -1.16682 0.843875 0
M  V30 3001 H 274.448 -4.21297 0.0933043 0
M  V30 3002 H 273.172 -3.20419 -0.632382 0
M  V30 3003 H 271.831 -3.34717 1.49533 0
M  V30 3004 H 271.479 -5.0191 -0.33102 0
M  V30 3005 H 271.179 -5.73674 1.27167 0
M  V30 3006 H 272.703 -6.09224 0.409669 0
M  V30 3007 H 274.117 -5.16688 2.48407 0
M  V30 3008 H 272.514 -5.03553 3.26427 0
M  V30 3009 H 273.584 -3.62257 3.22332 0
M  V30 3010 N 274.927 -0.932562 -1.27047 0
M  V30 3011 C 275.874 -0.434072 -2.26681 0
M  V30 3012 C 276.844 0.501639 -1.58344 0
M  V30 3013 O 278.029 0.419734 -1.86126 0
M  V30 3014 C 275.169 0.30261 -3.43771 0
M  V30 3015 C 274.282 -0.667774 -4.26808 0
M  V30 3016 C 273.417 0.0892393 -5.31125 0
M  V30 3017 C 272.456 -0.873532 -6.05835 0
M  V30 3018 N 271.593 -0.148832 -7.01942 0
M  V30 3019 H 276.433 -1.28868 -2.68695 0
M  V30 3020 H 273.97 -0.646713 -1.32121 0
M  V30 3021 H 275.928 0.746092 -4.10474 0
M  V30 3022 H 274.558 1.12142 -3.02695 0
M  V30 3023 H 273.61 -1.22978 -3.59973 0
M  V30 3024 H 274.922 -1.40337 -4.78651 0
M  V30 3025 H 274.076 0.592409 -6.03801 0
M  V30 3026 H 272.815 0.85777 -4.80097 0
M  V30 3027 H 271.82 -1.38791 -5.31994 0
M  V30 3028 H 273.045 -1.64193 -6.58952 0
M  V30 3029 H 270.991 0.601365 -6.53238 0
M  V30 3030 H 270.908 -0.82391 -7.51497 0
M  V30 3031 H 272.176 0.333527 -7.78786 0
M  V30 3032 N 276.405 1.4127 -0.698611 0
M  V30 3033 C 277.352 2.30773 -0.0352094 0
M  V30 3034 C 278.322 1.47273 0.768111 0
M  V30 3035 O 279.507 1.76053 0.735524 0
M  V30 3036 C 276.647 3.33346 0.893 0
M  V30 3037 C 275.76 4.31924 0.0809695 0
M  V30 3038 C 274.895 5.21566 1.0071 0
M  V30 3039 C 273.934 6.11811 0.188155 0
M  V30 3040 N 273.071 6.93926 1.06825 0
M  V30 3041 H 277.911 2.86943 -0.804207 0
M  V30 3042 H 275.448 1.4132 -0.408294 0
M  V30 3043 H 277.406 3.91368 1.44523 0
M  V30 3044 H 276.036 2.78719 1.62836 0
M  V30 3045 H 275.088 3.75825 -0.588224 0
M  V30 3046 H 276.4 4.95716 -0.553801 0
M  V30 3047 H 275.554 5.84437 1.62845 0
M  V30 3048 H 274.293 4.58008 1.67572 0
M  V30 3049 H 273.298 5.47986 -0.446254 0
M  V30 3050 H 274.523 6.77425 -0.476716 0
M  V30 3051 H 272.469 6.32973 1.72283 0
M  V30 3052 H 272.386 7.54416 0.489123 0
M  V30 3053 H 273.654 7.61262 1.67632 0
M  V30 3054 N 277.883 0.443576 1.51229 0
M  V30 3055 C 278.793 -0.370721 2.31652 0
M  V30 3056 C 279.809 -1.02186 1.40833 0
M  V30 3057 O 280.985 -1.01586 1.73903 0
M  V30 3058 C 278.05 -1.45376 3.14749 0
M  V30 3059 C 277.111 -0.822099 4.21355 0
M  V30 3060 C 276.344 -1.85353 5.0048 0
M  V30 3061 O 276.567 -3.07656 4.80316 0
M  V30 3062 O 275.501 -1.4406 5.84406 0
M  V30 3063 H 279.327 0.286002 3.0235 0
M  V30 3064 H 276.912 0.20598 1.47973 0
M  V30 3065 H 278.794 -2.08173 3.66391 0
M  V30 3066 H 277.469 -2.09445 2.46809 0
M  V30 3067 H 276.376 -0.155909 3.73775 0
M  V30 3068 H 277.709 -0.224797 4.91686 0
M  V30 3069 N 279.361 -1.56624 0.175154 0
M  V30 3070 C 280.309 -2.19468 -0.770495 0
M  V30 3071 C 281.303 -1.15985 -1.23466 0
M  V30 3072 O 282.509 -1.34176 -1.19987 0
M  V30 3073 H 278.884 -0.703095 -0.266761 0
M  V30 3074 H 280.855 -2.97613 -0.216542 0
M  V30 3075 C 279.604 -2.85264 -1.98796 0
M  V30 3076 H 278.927 -3.64623 -1.63983 0
M  V30 3077 H 280.367 -3.327 -2.62843 0
M  V30 3078 C 278.826 -1.85239 -2.81404 0
M  V30 3079 O 279.356 -1.34024 -3.78682 0
M  V30 3080 N 277.562 -1.53911 -2.46495 0
M  V30 3081 H 277.109 -1.95751 -1.67449 0
M  V30 3082 H 277.067 -0.872382 -3.02054 0
M  V30 3083 N 280.839 0.0985539 -1.57292 0
M  V30 3084 C 282.085 0.803867 -1.86188 0
M  V30 3085 C 282.418 1.78549 -0.763794 0
M  V30 3086 O 281.693 1.93153 0.22855 0
M  V30 3087 C 281.976 1.53568 -3.25713 0
M  V30 3088 C 281.829 0.572277 -4.46145 0
M  V30 3089 C 283.148 2.48708 -3.63087 0
M  V30 3090 H 280.267 0.290781 -0.677211 0
M  V30 3091 H 282.909 0.0675783 -1.8988 0
M  V30 3092 H 281.059 2.16332 -3.22696 0
M  V30 3093 H 282.731 -0.0480894 -4.61275 0
M  V30 3094 H 280.974 -0.114618 -4.33649 0
M  V30 3095 H 281.645 1.12139 -5.40489 0
M  V30 3096 H 284.121 1.96039 -3.67026 0
M  V30 3097 H 282.997 2.96932 -4.61652 0
M  V30 3098 H 283.258 3.32309 -2.91588 0
M  V30 3099 N 282.317 1.53212 0.369288 0
M  V30 3100 C 283.566 1.68436 1.10961 0
M  V30 3101 C 283.879 0.440738 1.9057 0
M  V30 3102 O 285.085 0.473446 2.6734 0
M  V30 3103 C 283.541 2.97744 2.0218 0
M  V30 3104 C 283.149 4.29355 1.279 0
M  V30 3105 C 284.893 3.22334 2.76226 0
M  V30 3106 C 282.8 5.49755 2.17999 0
M  V30 3107 H 281.73 0.627568 0.41794 0
M  V30 3108 H 284.381 1.79713 0.370884 0
M  V30 3109 H 282.763 2.8026 2.79768 0
M  V30 3110 H 283.937 4.57458 0.554007 0
M  V30 3111 H 282.252 4.11179 0.657311 0
M  V30 3112 H 284.849 4.09471 3.43857 0
M  V30 3113 H 285.192 2.38238 3.41392 0
M  V30 3114 H 285.725 3.40475 2.05723 0
M  V30 3115 H 282.464 6.36318 1.57417 0
M  V30 3116 H 281.984 5.25937 2.88359 0
M  V30 3117 H 283.663 5.84401 2.77641 0
M  V30 3118 N 283.795 -0.628877 1.44509 0
M  V30 3119 C 285.042 -1.38839 1.47411 0
M  V30 3120 C 285.37 -1.94202 0.10757 0
M  V30 3121 O 284.625 -1.74243 -0.890947 0
M  V30 3122 C 284.924 -2.56995 2.48371 0
M  V30 3123 C 284.59 -2.19908 3.93639 0
M  V30 3124 C 283.252 -2.09506 4.33198 0
M  V30 3125 C 285.604 -1.9064 4.85083 0
M  V30 3126 C 282.932 -1.68028 5.62124 0
M  V30 3127 C 285.284 -1.50655 6.14399 0
M  V30 3128 C 283.948 -1.38796 6.5291 0
M  V30 3129 H 283.218 -0.508048 0.539414 0
M  V30 3130 H 285.865 -0.712913 1.77735 0
M  V30 3131 H 284.17 -3.29786 2.11538 0
M  V30 3132 H 285.867 -3.15223 2.47861 0
M  V30 3133 H 282.457 -2.28922 3.62343 0
M  V30 3134 H 286.641 -1.97585 4.55273 0
M  V30 3135 H 281.897 -1.57452 5.90778 0
M  V30 3136 H 286.071 -1.27048 6.84713 0
M  V30 3137 H 283.698 -1.06429 7.52713 0
M  V30 3138 N 285.273 -1.31445 -0.869486 0
M  V30 3139 C 286.52 -1.21158 -1.62256 0
M  V30 3140 C 286.848 0.230155 -1.93133 0
M  V30 3141 O 286.103 1.17906 -1.56194 0
M  V30 3142 C 286.402 -2.00145 -2.96102 0
M  V30 3143 C 286.068 -3.4964 -2.84715 0
M  V30 3144 C 284.73 -3.90403 -2.81317 0
M  V30 3145 C 287.082 -4.44769 -2.71716 0
M  V30 3146 C 284.41 -5.24561 -2.62778 0
M  V30 3147 C 286.762 -5.79054 -2.54714 0
M  V30 3148 C 285.426 -6.19037 -2.49699 0
M  V30 3149 H 284.696 -0.443348 -0.593737 0
M  V30 3150 H 287.343 -1.62715 -1.00976 0
M  V30 3151 H 285.648 -1.5127 -3.6142 0
M  V30 3152 H 287.345 -1.89566 -3.53363 0
M  V30 3153 H 283.935 -3.17256 -2.88178 0
M  V30 3154 H 288.119 -4.14208 -2.73397 0
M  V30 3155 H 283.375 -5.54613 -2.57321 0
M  V30 3156 H 287.549 -6.52393 -2.43632 0
M  V30 3157 H 285.176 -7.22935 -2.35093 0
M  V30 3158 N 286.751 1.08385 -1.14413 0
M  V30 3159 C 287.683 2.1519 -0.789036 0
M  V30 3160 C 288.696 1.61638 0.19417 0
M  V30 3161 O 289.885 1.78479 -0.0275711 0
M  V30 3162 C 286.985 3.38565 -0.15058 0
M  V30 3163 C 286.158 4.21501 -1.16857 0
M  V30 3164 C 285.217 5.23277 -0.553832 0
M  V30 3165 O 284.243 5.56041 -1.21686 0
M  V30 3166 N 285.445 5.76629 0.669296 0
M  V30 3167 H 288.21 2.46257 -1.70814 0
M  V30 3168 H 285.771 1.24198 -1.03858 0
M  V30 3169 H 287.763 4.03777 0.273181 0
M  V30 3170 H 286.333 3.05299 0.671667 0
M  V30 3171 H 285.553 3.52265 -1.76926 0
M  V30 3172 H 286.841 4.73731 -1.85624 0
M  V30 3173 H 286.239 5.52243 1.22654 0
M  V30 3174 H 284.796 6.43521 1.03556 0
M  V30 3175 N 288.23 0.939286 1.26551 0
M  V30 3176 C 289.162 0.404704 2.25599 0
M  V30 3177 C 290.175 -0.470983 1.55838 0
M  V30 3178 O 291.364 -0.281734 1.76263 0
M  V30 3179 C 288.464 -0.43764 3.36062 0
M  V30 3180 C 287.637 0.421449 4.35365 0
M  V30 3181 C 286.696 -0.36015 5.24966 0
M  V30 3182 O 285.722 0.236167 5.6871 0
M  V30 3183 N 286.924 -1.65715 5.56344 0
M  V30 3184 H 289.689 1.25618 2.72103 0
M  V30 3185 H 287.25 0.807963 1.40298 0
M  V30 3186 H 289.242 -0.967866 3.92956 0
M  V30 3187 H 287.812 -1.18991 2.89067 0
M  V30 3188 H 287.032 1.1329 3.7757 0
M  V30 3189 H 288.32 1.00835 4.98708 0
M  V30 3190 H 287.718 -2.16378 5.22682 0
M  V30 3191 H 286.275 -2.13366 6.15888 0
M  V30 3192 N 289.708 -1.40897 0.706093 0
M  V30 3193 C 290.956 -2.00657 0.241054 0
M  V30 3194 C 291.277 -1.56241 -1.16678 0
M  V30 3195 O 290.547 -0.79765 -1.78926 0
M  V30 3196 H 289.127 -0.742018 0.0861308 0
M  V30 3197 H 291.789 -1.72372 0.909604 0
M  V30 3198 H 290.885 -3.10958 0.266705 0
M  V30 3199 N 291.186 -0.45159 -1.50991 0
M  V30 3200 C 292.119 0.398179 -2.24699 0
M  V30 3201 C 293.097 1.01276 -1.27208 0
M  V30 3202 O 294.281 1.05247 -1.56382 0
M  V30 3203 C 291.408 1.55618 -3.00833 0
M  V30 3204 C 290.454 1.0609 -4.13095 0
M  V30 3205 S 291.287 -0.00865136 -5.35499 0
M  V30 3206 C 292.443 1.15369 -6.15175 0
M  V30 3207 H 292.676 -0.227555 -2.96428 0
M  V30 3208 H 290.209 -0.236251 -1.52582 0
M  V30 3209 H 292.167 2.21997 -3.45293 0
M  V30 3210 H 290.828 2.15337 -2.28667 0
M  V30 3211 H 290.021 1.92726 -4.65696 0
M  V30 3212 H 289.623 0.47513 -3.7097 0
M  V30 3213 H 291.915 2.06925 -6.45126 0
M  V30 3214 H 292.858 0.667344 -7.04948 0
M  V30 3215 H 293.266 1.3987 -5.46897 0
M  V30 3216 N 292.664 1.56529 -0.183458 0
M  V30 3217 C 293.594 2.21549 0.737456 0
M  V30 3218 C 294.575 1.17489 1.23005 0
M  V30 3219 O 295.76 1.45959 1.281 0
M  V30 3220 C 292.89 2.86575 1.96194 0
M  V30 3221 C 291.844 3.96778 1.60473 0
M  V30 3222 C 291.17 4.48911 2.90487 0
M  V30 3223 C 292.47 5.15767 0.823497 0
M  V30 3224 H 294.164 2.98761 0.195453 0
M  V30 3225 H 291.71 1.43702 0.0925686 0
M  V30 3226 H 293.663 3.30739 2.61131 0
M  V30 3227 H 292.387 2.06749 2.52828 0
M  V30 3228 H 291.046 3.53286 0.978997 0
M  V30 3229 H 290.694 3.65862 3.45186 0
M  V30 3230 H 290.394 5.23265 2.67335 0
M  V30 3231 H 291.918 4.95771 3.56432 0
M  V30 3232 H 293.332 5.56549 1.37571 0
M  V30 3233 H 291.729 5.96114 0.690551 0
M  V30 3234 H 292.799 4.84574 -0.177782 0
M  V30 3235 N 294.142 -0.090211 1.57342 0
M  V30 3236 C 295.553 -0.644173 1.75235 0
M  V30 3237 C 295.904 -1.78865 0.806335 0
M  V30 3238 O 295.029 -2.16395 -0.0140128 0
M  V30 3239 C 295.624 -1.17532 3.1776 0
M  V30 3240 C 294.183 -1.67531 3.37061 0
M  V30 3241 C 293.33 -0.58693 2.71017 0
M  V30 3242 H 296.281 0.135884 1.58117 0
M  V30 3243 H 296.302 -2.04455 3.20902 0
M  V30 3244 H 295.814 -0.342138 3.86589 0
M  V30 3245 H 293.915 -2.53234 2.73319 0
M  V30 3246 H 294.028 -1.76493 4.45406 0
M  V30 3247 H 292.392 -1.02756 2.33052 0
M  V30 3248 H 293.175 0.235758 3.4249 0
M  V30 3249 N 295.62 -1.53406 -0.361157 0
M  V30 3250 C 296.583 -1.79479 -1.42548 0
M  V30 3251 C 297.583 -0.665327 -1.4639 0
M  V30 3252 O 298.773 -0.933549 -1.47073 0
M  V30 3253 C 295.905 -1.92087 -2.8163 0
M  V30 3254 H 297.098 -2.74538 -1.20701 0
M  V30 3255 H 294.651 -1.4455 -0.594546 0
M  V30 3256 H 295.386 -0.991099 -3.08784 0
M  V30 3257 H 295.171 -2.74241 -2.80239 0
M  V30 3258 H 296.661 -2.13836 -3.58697 0
M  V30 3259 N 297.098 0.621204 -1.44841 0
M  V30 3260 C 298.031 1.7459 -1.46947 0
M  V30 3261 C 299.009 1.59273 -0.327238 0
M  V30 3262 O 300.193 1.81021 -0.525706 0
M  V30 3263 C 297.32 3.12274 -1.31159 0
M  V30 3264 C 296.366 3.46216 -2.49072 0
M  V30 3265 S 297.199 3.4258 -4.11581 0
M  V30 3266 C 298.355 4.82867 -3.98233 0
M  V30 3267 H 298.588 1.72538 -2.42111 0
M  V30 3268 H 296.121 0.796683 -1.32259 0
M  V30 3269 H 298.079 3.91722 -1.22737 0
M  V30 3270 H 296.74 3.11855 -0.374885 0
M  V30 3271 H 295.933 4.4643 -2.33915 0
M  V30 3272 H 295.535 2.74253 -2.54286 0
M  V30 3273 H 297.827 5.7234 -3.62537 0
M  V30 3274 H 298.77 5.0308 -4.98313 0
M  V30 3275 H 299.178 4.57908 -3.30121 0
M  V30 3276 N 298.576 1.31904 0.862503 0
M  V30 3277 C 299.801 1.25135 1.65397 0
M  V30 3278 C 300.226 -0.179 1.87246 0
M  V30 3279 O 299.584 -1.1277 1.4196 0
M  V30 3280 C 299.632 2.00832 2.99498 0
M  V30 3281 O 298.736 1.35075 3.89652 0
M  V30 3282 H 298.077 0.431655 0.504549 0
M  V30 3283 H 300.607 1.74094 1.07483 0
M  V30 3284 H 300.617 2.10709 3.49379 0
M  V30 3285 H 299.292 3.04847 2.82916 0
M  V30 3286 H 297.869 1.33696 3.48109 0
M  V30 3287 N 300.054 -1.07777 1.14986 0
M  V30 3288 C 301.301 -1.8029 0.922056 0
M  V30 3289 C 301.629 -1.86531 -0.55105 0
M  V30 3290 O 300.884 -1.34189 -1.42449 0
M  V30 3291 C 301.183 -3.25495 1.47608 0
M  V30 3292 C 300.849 -3.39361 2.96893 0
M  V30 3293 C 299.511 -3.42852 3.37647 0
M  V30 3294 C 301.863 -3.42512 3.92854 0
M  V30 3295 C 299.191 -3.47094 4.73015 0
M  V30 3296 C 301.543 -3.4829 5.28088 0
M  V30 3297 C 300.207 -3.50058 5.68345 0
M  V30 3298 H 299.477 -0.659727 0.337404 0
M  V30 3299 H 302.124 -1.26854 1.43459 0
M  V30 3300 H 300.429 -3.81683 0.88463 0
M  V30 3301 H 302.126 -3.80168 1.27568 0
M  V30 3302 H 298.716 -3.37339 2.64387 0
M  V30 3303 H 302.9 -3.3904 3.62444 0
M  V30 3304 H 298.156 -3.46758 5.03556 0
M  V30 3305 H 302.33 -3.49675 6.02246 0
M  V30 3306 H 299.957 -3.53097 6.73221 0
M  V30 3307 N 301.532 -0.945985 -1.26051 0
M  V30 3308 C 302.809 -0.513816 -1.88731 0
M  V30 3309 C 303.189 1.00872 -1.8544 0
M  V30 3310 O 302.537 1.8708 -1.312 0
M  V30 3311 C 302.747 -1.08062 -3.31849 0
M  V30 3312 C 304.095 -1.1522 -4.08668 0
M  V30 3313 O 305.119 -1.03155 -3.40936 0
M  V30 3314 O 303.978 -1.34044 -5.29806 0
M  V30 3315 H 301.072 -0.168193 -0.809716 0
M  V30 3316 H 303.618 -1.03886 -1.34186 0
M  V30 3317 H 302.39 -2.1241 -3.2863 0
M  V30 3318 H 302.013 -0.538307 -3.93939 0
M  V30 3319 N 303.011 1.40521 -0.713556 0
M  V30 3320 C 304.259 2.00527 -0.251692 0
M  V30 3321 C 304.58 1.56857 1.15848 0
M  V30 3322 O 303.85 0.807127 1.785 0
M  V30 3323 H 302.43 0.741551 -0.0900646 0
M  V30 3324 H 305.092 1.71887 -0.918733 0
M  V30 3325 H 304.188 3.10813 -0.283192 0
M  V30 3326 N 304.489 0.459591 1.5075 0
M  V30 3327 C 305.436 -0.340524 2.28274 0
M  V30 3328 C 306.406 -0.997371 1.32822 0
M  V30 3329 O 307.591 -1.01202 1.61749 0
M  V30 3330 C 304.731 -1.42317 3.14388 0
M  V30 3331 C 303.844 -0.782251 4.24859 0
M  V30 3332 C 302.979 -1.84182 4.98247 0
M  V30 3333 C 302.018 -1.18053 6.00608 0
M  V30 3334 N 301.155 -2.18244 6.67319 0
M  V30 3335 H 305.995 0.326899 2.96202 0
M  V30 3336 H 303.532 0.173057 1.46078 0
M  V30 3337 H 305.49 -2.06241 3.62658 0
M  V30 3338 H 304.12 -2.05992 2.4853 0
M  V30 3339 H 303.172 -0.0307404 3.80388 0
M  V30 3340 H 304.484 -0.259663 4.98124 0
M  V30 3341 H 303.638 -2.55714 5.50177 0
M  V30 3342 H 302.377 -2.39819 4.24662 0
M  V30 3343 H 301.382 -0.450776 5.47949 0
M  V30 3344 H 302.607 -0.631202 6.7616 0
M  V30 3345 H 300.553 -2.72919 5.96533 0
M  V30 3346 H 300.47 -1.70938 7.36421 0
M  V30 3347 H 301.738 -2.89191 7.23871 0
M  V30 3348 N 305.967 -1.56429 0.191757 0
M  V30 3349 C 307.216 -1.9666 -0.448088 0
M  V30 3350 C 307.529 -1.08136 -1.62991 0
M  V30 3351 O 308.735 -1.38135 -2.33733 0
M  V30 3352 C 307.191 -3.49753 -0.848585 0
M  V30 3353 C 306.799 -4.46935 0.308764 0
M  V30 3354 C 308.543 -3.9876 -1.4557 0
M  V30 3355 C 306.45 -5.91293 -0.112506 0
M  V30 3356 H 305.38 -0.734312 -0.171179 0
M  V30 3357 H 308.031 -1.81301 0.283242 0
M  V30 3358 H 306.413 -3.60604 -1.63649 0
M  V30 3359 H 307.587 -4.47813 1.08627 0
M  V30 3360 H 305.902 -4.08102 0.827158 0
M  V30 3361 H 308.499 -5.04086 -1.78328 0
M  V30 3362 H 308.842 -3.42875 -2.36099 0
M  V30 3363 H 309.375 -3.9101 -0.731836 0
M  V30 3364 H 306.114 -6.51097 0.758514 0
M  V30 3365 H 305.634 -5.93676 -0.854941 0
M  V30 3366 H 307.313 -6.44663 -0.549448 0
M  V30 3367 N 307.445 0.0818655 -1.57387 0
M  V30 3368 C 308.694 0.781681 -1.85937 0
M  V30 3369 C 309.007 1.79246 -0.782957 0
M  V30 3370 O 310.213 2.54112 -0.955987 0
M  V30 3371 C 308.669 1.44109 -3.29789 0
M  V30 3372 C 308.277 0.469396 -4.45534 0
M  V30 3373 C 310.021 2.12386 -3.67549 0
M  V30 3374 C 307.928 1.13415 -5.80423 0
M  V30 3375 H 306.858 0.295682 -0.693605 0
M  V30 3376 H 309.509 0.0348051 -1.83467 0
M  V30 3377 H 307.891 2.23588 -3.2684 0
M  V30 3378 H 309.065 -0.294856 -4.59856 0
M  V30 3379 H 307.38 -0.108383 -4.16259 0
M  V30 3380 H 309.977 2.62878 -4.65617 0
M  V30 3381 H 310.32 2.91877 -2.96839 0
M  V30 3382 H 310.853 1.39751 -3.72444 0
M  V30 3383 H 307.592 0.379771 -6.54399 0
M  V30 3384 H 307.112 1.8695 -5.69921 0
M  V30 3385 H 308.791 1.65686 -6.25426 0
M  V30 3386 N 308.923 1.53595 0.353017 0
M  V30 3387 C 309.853 1.83902 1.43883 0
M  V30 3388 C 310.834 0.693421 1.55324 0
M  V30 3389 O 312.019 0.944452 1.69687 0
M  V30 3390 C 309.149 2.04016 2.8106 0
M  V30 3391 C 308.103 3.19814 2.84434 0
M  V30 3392 C 307.429 3.25244 4.24406 0
M  V30 3393 C 308.729 4.58133 2.50822 0
M  V30 3394 H 310.423 2.74835 1.1877 0
M  V30 3395 H 307.969 1.32242 0.569917 0
M  V30 3396 H 309.922 2.238 3.57059 0
M  V30 3397 H 308.646 1.09804 3.07588 0
M  V30 3398 H 307.305 2.9987 2.10887 0
M  V30 3399 H 306.953 2.28646 4.48029 0
M  V30 3400 H 306.653 4.03054 4.27576 0
M  V30 3401 H 308.177 3.47228 5.0226 0
M  V30 3402 H 309.591 4.77995 3.16534 0
M  V30 3403 H 307.988 5.38276 2.6529 0
M  V30 3404 H 309.058 4.62387 1.46034 0
M  V30 3405 N 310.401 -0.613514 1.45168 0
M  V30 3406 C 311.311 -1.75296 1.55912 0
M  V30 3407 C 312.327 -1.68244 0.443856 0
M  V30 3408 O 313.503 -1.88706 0.70371 0
M  V30 3409 C 310.568 -3.1174 1.5172 0
M  V30 3410 C 309.629 -3.30291 2.74238 0
M  V30 3411 C 308.862 -4.60226 2.70236 0
M  V30 3412 O 309.085 -5.42168 1.77229 0
M  V30 3413 O 308.019 -4.81361 3.61352 0
M  V30 3414 H 311.845 -1.69183 2.52212 0
M  V30 3415 H 309.43 -0.776886 1.27612 0
M  V30 3416 H 311.312 -3.93044 1.51968 0
M  V30 3417 H 309.987 -3.18357 0.585697 0
M  V30 3418 H 308.894 -2.48598 2.79553 0
M  V30 3419 H 310.227 -3.28547 3.66494 0
M  V30 3420 N 311.879 -1.3236 -0.855495 0
M  V30 3421 C 312.789 -1.23221 -1.99634 0
M  V30 3422 C 313.805 -0.145983 -1.73387 0
M  V30 3423 O 314.981 -0.366502 -1.98037 0
M  V30 3424 C 312.046 -0.954782 -3.33294 0
M  V30 3425 C 311.107 -2.12937 -3.72769 0
M  V30 3426 C 310.34 -1.86508 -5.00051 0
M  V30 3427 O 310.563 -0.807231 -5.64659 0
M  V30 3428 O 309.497 -2.72591 -5.36636 0
M  V30 3429 H 313.323 -2.19126 -2.1028 0
M  V30 3430 H 310.908 -1.12241 -0.986018 0
M  V30 3431 H 312.79 -0.816519 -4.13414 0
M  V30 3432 H 311.465 -0.0258854 -3.2369 0
M  V30 3433 H 310.372 -2.3231 -2.93228 0
M  V30 3434 H 311.705 -3.04102 -3.87018 0
M  V30 3435 N 313.357 1.07166 -1.15556 0
M  V30 3436 C 314.304 2.14417 -0.854055 0
M  V30 3437 C 315.274 1.64965 0.193806 0
M  V30 3438 O 316.459 1.90703 0.0609443 0
M  V30 3439 C 313.599 3.43304 -0.351574 0
M  V30 3440 C 312.712 4.06537 -1.46123 0
M  V30 3441 C 311.847 5.23266 -0.914677 0
M  V30 3442 C 310.886 5.78464 -2.00114 0
M  V30 3443 N 310.023 6.86521 -1.47083 0
M  V30 3444 H 314.863 2.39548 -1.77259 0
M  V30 3445 H 312.4 1.17543 -0.884425 0
M  V30 3446 H 314.358 4.17179 -0.0419409 0
M  V30 3447 H 312.988 3.18419 0.530037 0
M  V30 3448 H 312.04 3.30297 -1.88701 0
M  V30 3449 H 313.352 4.43567 -2.28144 0
M  V30 3450 H 312.506 6.04131 -0.557698 0
M  V30 3451 H 311.245 4.87658 -0.0636583 0
M  V30 3452 H 310.25 4.96243 -2.36692 0
M  V30 3453 H 311.475 6.16126 -2.85597 0
M  V30 3454 H 309.421 6.52849 -0.642198 0
M  V30 3455 H 309.338 7.22446 -2.22729 0
M  V30 3456 H 310.606 7.71087 -1.14215 0
M  V30 3457 N 314.835 0.952656 1.25548 0
M  V30 3458 C 315.783 0.462354 2.27958 0
M  V30 3459 C 316.777 -0.46634 1.62855 0
M  V30 3460 O 317.983 -0.343287 1.76696 0
M  V30 3461 H 314.358 0.13101 0.7405 0
M  V30 3462 H 316.329 1.33839 2.66702 0
M  V30 3463 C 315.078 -0.24628 3.46827 0
M  V30 3464 H 314.401 0.459192 3.97154 0
M  V30 3465 H 315.841 -0.553393 4.20373 0
M  V30 3466 C 314.3 -1.4681 3.0323 0
M  V30 3467 O 314.83 -2.56591 3.09069 0
M  V30 3468 N 313.036 -1.32874 2.58443 0
M  V30 3469 H 312.583 -0.435536 2.53891 0
M  V30 3470 H 312.541 -2.14742 2.29637 0
M  V30 3471 N 316.313 -1.40141 0.720998 0
M  V30 3472 C 317.26 -2.30688 0.071919 0
M  V30 3473 C 318.23 -1.48476 -0.744584 0
M  V30 3474 O 319.415 -1.77201 -0.707423 0
M  V30 3475 C 316.555 -3.34724 -0.839855 0
M  V30 3476 C 315.668 -4.31998 -0.0122438 0
M  V30 3477 C 314.803 -5.23102 -0.923995 0
M  V30 3478 C 313.842 -6.12033 -0.0907969 0
M  V30 3479 N 312.979 -6.95537 -0.957718 0
M  V30 3480 H 317.819 -2.85628 0.849755 0
M  V30 3481 H 315.356 -1.40653 0.430726 0
M  V30 3482 H 317.314 -3.93618 -1.38279 0
M  V30 3483 H 315.944 -2.81274 -1.58381 0
M  V30 3484 H 314.996 -3.74841 0.64794 0
M  V30 3485 H 316.308 -4.94772 0.632595 0
M  V30 3486 H 315.462 -5.86953 -1.53527 0
M  V30 3487 H 314.201 -4.60615 -1.60264 0
M  V30 3488 H 313.206 -5.47207 0.533377 0
M  V30 3489 H 314.431 -6.76581 0.584428 0
M  V30 3490 H 312.377 -6.35633 -1.62192 0
M  V30 3491 H 312.294 -7.55099 -0.36904 0
M  V30 3492 H 313.562 -7.63832 -1.555 0
M  V30 3493 N 317.792 -0.46758 -1.50504 0
M  V30 3494 C 319.038 0.0887532 -2.02606 0
M  V30 3495 C 319.371 1.39686 -1.34913 0
M  V30 3496 O 318.646 1.88644 -0.473694 0
M  V30 3497 C 318.929 0.276206 -3.59039 0
M  V30 3498 C 318.782 -1.05267 -4.37309 0
M  V30 3499 C 320.101 1.03235 -4.27821 0
M  V30 3500 H 317.22 0.0307814 -0.736357 0
M  V30 3501 H 319.862 -0.612485 -1.79857 0
M  V30 3502 H 318.012 0.8735 -3.78553 0
M  V30 3503 H 319.684 -1.68628 -4.29374 0
M  V30 3504 H 317.927 -1.65015 -4.01189 0
M  V30 3505 H 318.598 -0.875197 -5.45018 0
M  V30 3506 H 321.074 0.526111 -4.12761 0
M  V30 3507 H 319.95 1.1323 -5.37094 0
M  V30 3508 H 320.211 2.06806 -3.90748 0
M  V30 3509 N 319.27 1.56325 -0.20005 0
M  V30 3510 C 320.495 2.02548 0.44597 0
M  V30 3511 C 320.92 1.07922 1.5406 0
M  V30 3512 O 320.278 0.0635775 1.81188 0
M  V30 3513 C 320.326 3.47175 0.974761 0
M  V30 3514 O 319.43 3.55671 2.08739 0
M  V30 3515 H 318.771 0.655862 0.103638 0
M  V30 3516 H 321.301 2.02201 -0.312381 0
M  V30 3517 H 321.311 3.87067 1.2901 0
M  V30 3518 H 319.986 4.15538 0.17347 0
M  V30 3519 H 318.563 3.27657 1.78032 0
M  V30 3520 N 320.748 -0.0735177 1.57428 0
M  V30 3521 C 321.681 -1.11932 1.98863 0
M  V30 3522 C 322.659 -1.37666 0.865266 0
M  V30 3523 O 323.843 -1.51068 1.12742 0
M  V30 3524 C 320.97 -2.46403 2.32386 0
M  V30 3525 C 320.016 -2.36815 3.54713 0
M  V30 3526 S 320.849 -1.76392 5.05614 0
M  V30 3527 C 322.005 -3.12444 5.42337 0
M  V30 3528 H 322.238 -0.766212 2.87257 0
M  V30 3529 H 319.771 -0.281987 1.51803 0
M  V30 3530 H 321.729 -3.23755 2.52375 0
M  V30 3531 H 320.39 -2.78876 1.44524 0
M  V30 3532 H 319.583 -3.35977 3.7568 0
M  V30 3533 H 319.185 -1.67598 3.34345 0
M  V30 3534 H 321.477 -4.08753 5.40303 0
M  V30 3535 H 322.42 -2.96258 6.43146 0
M  V30 3536 H 322.828 -3.1297 4.69798 0
M  V30 3537 N 322.226 -1.5378 -0.344866 0
M  V30 3538 C 323.189 -1.80981 -1.40637 0
M  V30 3539 C 324.189 -0.680816 -1.45676 0
M  V30 3540 O 325.379 -0.949095 -1.46075 0
M  V30 3541 C 322.511 -1.95063 -2.79577 0
M  V30 3542 H 323.704 -2.75803 -1.17783 0
M  V30 3543 H 321.257 -1.45173 -0.579181 0
M  V30 3544 H 321.992 -1.02379 -3.07716 0
M  V30 3545 H 321.777 -2.77198 -2.77315 0
M  V30 3546 H 323.267 -2.17629 -3.56409 0
M  V30 3547 N 323.704 0.605807 -1.45491 0
M  V30 3548 C 325.115 1.18777 -1.44045 0
M  V30 3549 C 325.466 1.95471 -0.169001 0
M  V30 3550 O 324.591 2.0374 0.729324 0
M  V30 3551 C 325.186 2.16064 -2.60963 0
M  V30 3552 C 323.745 2.69633 -2.62631 0
M  V30 3553 C 322.892 1.45072 -2.36325 0
M  V30 3554 H 325.843 0.395017 -1.53705 0
M  V30 3555 H 325.864 2.9913 -2.35163 0
M  V30 3556 H 325.376 1.60217 -3.53486 0
M  V30 3557 H 323.477 3.29414 -1.74119 0
M  V30 3558 H 323.59 3.13944 -3.61906 0
M  V30 3559 H 321.954 1.74089 -1.85917 0
M  V30 3560 H 322.737 0.910899 -3.30995 0
M  V30 3561 N 325.182 1.32811 0.848464 0
M  V30 3562 C 326.459 1.14334 1.58704 0
M  V30 3563 C 326.839 -0.293948 2.09043 0
M  V30 3564 O 326.187 -1.29153 1.88499 0
M  V30 3565 C 326.397 2.17626 2.72837 0
M  V30 3566 C 327.745 2.51282 3.42261 0
M  V30 3567 O 328.769 2.16219 2.83068 0
M  V30 3568 O 327.628 3.11413 4.49093 0
M  V30 3569 H 324.722 0.441601 0.699226 0
M  V30 3570 H 327.268 1.44362 0.892053 0
M  V30 3571 H 326.04 3.14211 2.3321 0
M  V30 3572 H 325.663 1.88628 3.50008 0
M  V30 3573 N 326.66 -1.06551 1.16123 0
M  V30 3574 C 327.908 -1.78947 0.939267 0
M  V30 3575 C 328.229 -1.87532 -0.534476 0
M  V30 3576 O 327.499 -1.38211 -1.38833 0
M  V30 3577 H 326.079 -0.662807 0.344523 0
M  V30 3578 H 328.741 -1.28725 1.46342 0
M  V30 3579 H 327.837 -2.81117 1.35572 0
M  V30 3580 N 328.138 -0.959301 -1.25041 0
M  V30 3581 C 329.086 -0.474437 -2.2771 0
M  V30 3582 C 330.08 0.457697 -1.631 0
M  V30 3583 O 331.286 0.333912 -1.76876 0
M  V30 3584 H 327.661 -0.134936 -0.739795 0
M  V30 3585 H 329.632 -1.35251 -2.65988 0
M  V30 3586 C 328.381 0.227884 -3.46952 0
M  V30 3587 H 327.704 -0.480248 -3.96905 0
M  V30 3588 H 329.144 0.531091 -4.20661 0
M  V30 3589 C 327.603 1.452 -3.04004 0
M  V30 3590 O 328.133 2.54949 -3.10426 0
M  V30 3591 N 326.339 1.31502 -2.59144 0
M  V30 3592 H 325.886 0.422065 -2.54119 0
M  V30 3593 H 325.844 2.13521 -2.30773 0
M  V30 3594 N 329.616 1.39756 -0.72842 0
M  V30 3595 C 330.864 2.00248 -0.272946 0
M  V30 3596 C 331.185 1.58077 1.14178 0
M  V30 3597 O 330.455 0.826014 1.77634 0
M  V30 3598 H 329.035 0.740554 -0.0979247 0
M  V30 3599 H 331.697 1.70903 -0.936912 0
M  V30 3600 H 330.793 3.10495 -0.316142 0
M  V30 3601 N 331.094 0.475555 1.50254 0
M  V30 3602 C 332.342 -0.077738 2.0195 0
M  V30 3603 C 332.663 -1.39813 1.35931 0
M  V30 3604 O 331.933 -1.89249 0.506123 0
M  V30 3605 H 330.513 -0.031719 0.746326 0
M  V30 3606 H 333.175 0.626995 1.84539 0
M  V30 3607 H 332.271 -0.225995 3.11281 0
M  V30 3608 N 332.573 -1.56217 0.208337 0
M  V30 3609 C 333.503 -2.22694 -0.702116 0
M  V30 3610 C 334.484 -1.19432 -1.2112 0
M  V30 3611 O 335.669 -1.47978 -1.25762 0
M  V30 3612 C 332.799 -2.8966 -1.9161 0
M  V30 3613 C 331.753 -3.9928 -1.5414 0
M  V30 3614 C 331.079 -4.53476 -2.83308 0
M  V30 3615 C 332.379 -5.17012 -0.741339 0
M  V30 3616 H 334.073 -2.99034 -0.147898 0
M  V30 3617 H 331.619 -1.43831 -0.0696951 0
M  V30 3618 H 333.572 -3.34852 -2.55836 0
M  V30 3619 H 332.296 -2.10746 -2.49507 0
M  V30 3620 H 330.955 -3.54799 -0.922668 0
M  V30 3621 H 330.603 -3.71308 -3.39322 0
M  V30 3622 H 330.303 -5.27451 -2.58976 0
M  V30 3623 H 331.827 -5.01378 -3.485 0
M  V30 3624 H 333.241 -5.58667 -1.28699 0
M  V30 3625 H 331.638 -5.97137 -0.595627 0
M  V30 3626 H 332.708 -4.8423 0.254851 0
M  V30 3627 N 334.051 0.0651679 -1.57465 0
M  V30 3628 C 335.281 0.774683 -1.91526 0
M  V30 3629 C 335.689 1.71305 -0.803196 0
M  V30 3630 O 335.032 1.82231 0.231881 0
M  V30 3631 C 335.094 1.61645 -3.21109 0
M  V30 3632 C 334.758 0.846753 -4.49087 0
M  V30 3633 C 335.755 0.163024 -5.19644 0
M  V30 3634 C 333.44 0.811966 -4.95694 0
M  V30 3635 C 335.434 -0.54519 -6.35064 0
M  V30 3636 C 333.121 0.0999836 -6.11018 0
M  V30 3637 C 334.119 -0.577388 -6.80555 0
M  V30 3638 O 333.807 -1.27789 -7.93678 0
M  V30 3639 H 333.539 0.225031 -0.637446 0
M  V30 3640 H 336.093 0.0377134 -2.05365 0
M  V30 3641 H 334.323 2.39638 -3.03497 0
M  V30 3642 H 336.012 2.20525 -3.40769 0
M  V30 3643 H 336.778 0.181163 -4.84662 0
M  V30 3644 H 332.657 1.32867 -4.41438 0
M  V30 3645 H 336.201 -1.07446 -6.89276 0
M  V30 3646 H 332.098 0.0797945 -6.45451 0
M  V30 3647 H 332.866 -1.18784 -8.09835 0
M  V30 3648 N 335.529 1.53961 0.336706 0
M  V30 3649 C 336.945 1.44378 0.680241 0
M  V30 3650 C 337.145 0.606034 1.9217 0
M  V30 3651 O 336.201 0.099688 2.52303 0
M  V30 3652 C 337.514 2.87945 0.8665 0
M  V30 3653 C 339.062 2.97763 0.964682 0
M  V30 3654 C 339.537 4.42453 1.18321 0
M  V30 3655 N 341.028 4.46008 1.25025 0
M  V30 3656 C 341.763 5.55102 1.43697 0
M  V30 3657 N 341.259 6.7419 1.59498 0
M  V30 3658 N 343.052 5.42727 1.463 0
M  V30 3659 H 335.203 2.06918 -0.479455 0
M  V30 3660 H 337.466 0.935634 -0.152619 0
M  V30 3661 H 337.172 3.51691 0.0256937 0
M  V30 3662 H 337.046 3.33293 1.76623 0
M  V30 3663 H 339.433 2.34153 1.796 0
M  V30 3664 H 339.514 2.55766 0.041708 0
M  V30 3665 H 339.158 5.06645 0.356788 0
M  V30 3666 H 339.088 4.82048 2.11985 0
M  V30 3667 H 341.579 3.60196 1.14312 0
M  V30 3668 H 341.892 7.53095 1.734 0
M  V30 3669 H 340.237 6.77123 1.56621 0
M  V30 3670 H 343.428 4.48647 1.33543 0
M  V30 3671 H 343.601 6.27806 1.6051 0
M  V30 3672 N 337.007 -0.598083 1.45811 0
M  V30 3673 C 337.97 -1.69018 1.54808 0
M  V30 3674 C 338.97 -1.55037 0.426652 0
M  V30 3675 O 340.16 -1.59932 0.690456 0
M  V30 3676 C 337.292 -3.0835 1.45371 0
M  V30 3677 H 338.485 -1.62403 2.52121 0
M  V30 3678 H 336.038 -0.814626 1.33392 0
M  V30 3679 H 336.773 -3.20534 0.492793 0
M  V30 3680 H 336.558 -3.19907 2.26721 0
M  V30 3681 H 338.048 -3.8788 1.54721 0
M  V30 3682 N 338.485 -1.33259 -0.841409 0
M  V30 3683 C 339.415 -1.25926 -1.96634 0
M  V30 3684 C 340.396 -0.140349 -1.6952 0
M  V30 3685 O 341.581 -0.329707 -1.91381 0
M  V30 3686 C 338.711 -0.99512 -3.32738 0
M  V30 3687 C 337.665 -2.0767 -3.74242 0
M  V30 3688 C 336.991 -1.66474 -5.08125 0
M  V30 3689 C 338.291 -3.49318 -3.88297 0
M  V30 3690 H 339.985 -2.20046 -2.03027 0
M  V30 3691 H 337.531 -1.05931 -0.975425 0
M  V30 3692 H 339.484 -0.930323 -4.11002 0
M  V30 3693 H 338.208 -0.0183004 -3.26595 0
M  V30 3694 H 336.867 -2.13187 -2.98239 0
M  V30 3695 H 336.515 -0.675012 -4.9845 0
M  V30 3696 H 336.215 -2.3885 -5.36865 0
M  V30 3697 H 337.739 -1.61455 -5.88867 0
M  V30 3698 H 339.153 -3.46316 -4.56879 0
M  V30 3699 H 337.55 -4.20158 -4.28471 0
M  V30 3700 H 338.62 -3.8801 -2.9082 0
M  V30 3701 N 339.963 1.05934 -1.16686 0
M  V30 3702 C 340.926 2.11669 -0.879144 0
M  V30 3703 C 341.926 1.60294 0.127445 0
M  V30 3704 O 343.116 1.7389 -0.103865 0
M  V30 3705 C 340.248 3.39438 -0.315425 0
M  V30 3706 H 341.441 2.38626 -1.81653 0
M  V30 3707 H 338.994 1.22058 -0.976299 0
M  V30 3708 H 339.729 3.18132 0.629468 0
M  V30 3709 H 339.514 3.78034 -1.04079 0
M  V30 3710 H 341.004 4.17391 -0.132189 0
M  V30 3711 N 341.441 0.965919 1.2453 0
M  V30 3712 C 342.404 0.499547 2.2369 0
M  V30 3713 C 343.404 -0.40294 1.5567 0
M  V30 3714 O 344.594 -0.19865 1.73064 0
M  V30 3715 C 341.726 -0.276792 3.39774 0
M  V30 3716 H 342.919 1.37613 2.66463 0
M  V30 3717 H 340.472 0.750324 1.37112 0
M  V30 3718 H 341.207 -1.17055 3.02438 0
M  V30 3719 H 340.992 0.370826 3.90343 0
M  V30 3720 H 342.482 -0.592175 4.1338 0
M  V30 3721 N 342.919 -1.39368 0.735821 0
M  V30 3722 C 343.851 -2.2913 0.0567723 0
M  V30 3723 C 344.864 -1.46859 -0.702589 0
M  V30 3724 O 346.053 -1.69925 -0.546616 0
M  V30 3725 C 343.153 -3.25492 -0.943823 0
M  V30 3726 C 342.326 -4.36709 -0.24581 0
M  V30 3727 C 341.385 -5.13376 -1.15463 0
M  V30 3728 O 340.411 -5.65683 -0.631803 0
M  V30 3729 N 341.613 -5.24656 -2.48427 0
M  V30 3730 H 344.378 -2.88047 0.827582 0
M  V30 3731 H 341.939 -1.50957 0.585112 0
M  V30 3732 H 343.931 -3.73657 -1.55443 0
M  V30 3733 H 342.501 -2.676 -1.61583 0
M  V30 3734 H 341.721 -3.9041 0.545286 0
M  V30 3735 H 343.009 -5.08244 0.237891 0
M  V30 3736 H 342.407 -4.83679 -2.93379 0
M  V30 3737 H 340.964 -5.76258 -3.04582 0
M  V30 3738 N 344.397 -0.483516 -1.5 0
M  V30 3739 C 345.345 0.318061 -2.30415 0
M  V30 3740 C 346.339 0.978988 -1.38247 0
M  V30 3741 O 347.545 0.908673 -1.55381 0
M  V30 3742 H 343.92 0.121419 -0.742133 0
M  V30 3743 H 345.891 -0.380403 -2.95965 0
M  V30 3744 C 344.64 1.38013 -3.19136 0
M  V30 3745 H 343.963 0.880952 -3.89973 0
M  V30 3746 H 345.403 1.91332 -3.78375 0
M  V30 3747 C 343.862 2.38884 -2.37563 0
M  V30 3748 O 344.392 3.44412 -2.06744 0
M  V30 3749 N 342.598 2.10912 -1.99911 0
M  V30 3750 H 342.145 1.25118 -2.25174 0
M  V30 3751 H 342.103 2.78635 -1.45636 0
M  V30 3752 N 345.875 1.56104 -0.216619 0
M  V30 3753 C 347.124 1.97348 0.416744 0
M  V30 3754 C 347.437 1.10715 1.6125 0
M  V30 3755 O 348.643 1.41836 2.31506 0
M  V30 3756 C 347.099 3.51059 0.792835 0
M  V30 3757 C 346.707 4.46387 -0.379828 0
M  V30 3758 C 348.451 4.01026 1.39208 0
M  V30 3759 C 346.358 5.91397 0.0184223 0
M  V30 3760 H 345.288 0.736942 0.159475 0
M  V30 3761 H 347.939 1.80827 -0.31205 0
M  V30 3762 H 346.321 3.63162 1.57891 0
M  V30 3763 H 347.495 4.46029 -1.15737 0
M  V30 3764 H 345.81 4.06734 -0.891979 0
M  V30 3765 H 348.407 5.0686 1.70286 0
M  V30 3766 H 348.75 3.46587 2.30614 0
M  V30 3767 H 349.283 3.92125 0.669537 0
M  V30 3768 H 346.022 6.49807 -0.862002 0
M  V30 3769 H 345.542 5.94961 0.760384 0
M  V30 3770 H 347.221 6.45455 0.446818 0
M  V30 3771 N 347.353 -0.0568162 1.57498 0
M  V30 3772 C 348.599 -0.75422 1.88253 0
M  V30 3773 C 348.932 -1.76461 0.810865 0
M  V30 3774 O 348.207 -1.93691 -0.177259 0
M  V30 3775 C 348.49 -1.44878 3.2967 0
M  V30 3776 C 348.343 -0.453789 4.47505 0
M  V30 3777 C 349.662 -2.38994 3.69554 0
M  V30 3778 H 346.781 -0.272724 0.684683 0
M  V30 3779 H 349.423 -0.0172113 1.89992 0
M  V30 3780 H 347.573 -2.077 3.28318 0
M  V30 3781 H 349.245 0.170371 4.60985 0
M  V30 3782 H 347.488 0.229552 4.33192 0
M  V30 3783 H 348.159 -0.977699 5.43273 0
M  V30 3784 H 350.635 -1.86239 3.72095 0
M  V30 3785 H 349.511 -2.84587 4.69363 0
M  V30 3786 H 349.772 -3.24461 3.00296 0
M  V30 3787 N 348.832 -1.54138 -0.328536 0
M  V30 3788 C 349.742 -1.86192 -1.42723 0
M  V30 3789 C 350.758 -0.753382 -1.56844 0
M  V30 3790 O 351.934 -1.04718 -1.72035 0
M  V30 3791 C 348.999 -2.07824 -2.77507 0
M  V30 3792 C 348.06 -3.31641 -2.72603 0
M  V30 3793 C 347.293 -3.52232 -4.00959 0
M  V30 3794 O 347.516 -2.7636 -4.9898 0
M  V30 3795 O 346.45 -4.45699 -4.0452 0
M  V30 3796 H 350.276 -2.79608 -1.18547 0
M  V30 3797 H 347.861 -1.3998 -0.522104 0
M  V30 3798 H 349.743 -2.23411 -3.57303 0
M  V30 3799 H 348.418 -1.17596 -3.01584 0
M  V30 3800 H 347.325 -3.21444 -1.91376 0
M  V30 3801 H 348.658 -4.2191 -2.53481 0
M  V30 3802 N 350.31 0.590341 -1.46126 0
M  V30 3803 C 351.587 1.35029 -1.41515 0
M  V30 3804 C 351.967 2.10888 -0.0946472 0
M  V30 3805 O 351.315 2.08998 0.923693 0
M  V30 3806 C 351.525 2.28269 -2.63997 0
M  V30 3807 C 352.873 2.90338 -3.09821 0
M  V30 3808 O 353.897 2.38585 -2.64492 0
M  V30 3809 O 352.756 3.84321 -3.88535 0
M  V30 3810 H 349.85 0.606317 -0.562413 0
M  V30 3811 H 352.396 0.611994 -1.58281 0
M  V30 3812 H 351.168 1.71591 -3.51671 0
M  V30 3813 H 350.791 3.0945 -2.49652 0
M  V30 3814 N 351.788 1.33704 0.83433 0
M  V30 3815 C 352.721 1.18675 1.94914 0
M  V30 3816 C 353.699 0.0811145 1.62398 0
M  V30 3817 O 354.883 0.244186 1.86912 0
M  V30 3818 C 352.01 0.821231 3.28593 0
M  V30 3819 C 351.056 1.93501 3.80079 0
M  V30 3820 S 351.889 3.54671 4.01209 0
M  V30 3821 C 353.045 3.20136 5.37833 0
M  V30 3822 H 353.278 2.13043 2.07364 0
M  V30 3823 H 350.811 1.18598 0.988624 0
M  V30 3824 H 352.769 0.617123 4.05835 0
M  V30 3825 H 351.43 -0.103927 3.13928 0
M  V30 3826 H 350.623 1.63273 4.76821 0
M  V30 3827 H 350.225 2.09601 3.09747 0
M  V30 3828 H 352.517 2.71242 6.20833 0
M  V30 3829 H 353.46 4.15975 5.73036 0
M  V30 3830 H 353.868 2.56613 5.02802 0
M  V30 3831 N 353.266 -1.05314 1.17247 0
M  V30 3832 C 354.176 -2.16538 0.90268 0
M  V30 3833 C 355.192 -1.73523 -0.128707 0
M  V30 3834 O 356.368 -2.01337 0.0502701 0
M  V30 3835 C 353.433 -3.44167 0.418356 0
M  V30 3836 C 352.494 -4.01635 1.51618 0
M  V30 3837 C 351.727 -5.23171 1.05487 0
M  V30 3838 O 351.95 -5.70327 -0.0914715 0
M  V30 3839 O 350.884 -5.72848 1.8474 0
M  V30 3840 H 354.71 -2.42145 1.83302 0
M  V30 3841 H 352.295 -1.15037 0.953246 0
M  V30 3842 H 354.177 -4.21112 0.155726 0
M  V30 3843 H 352.852 -3.20063 -0.48385 0
M  V30 3844 H 351.759 -3.26135 1.83268 0
M  V30 3845 H 353.092 -4.30053 2.39405 0
M  V30 3846 N 354.744 -0.972509 -1.24016 0
M  V30 3847 C 355.676 -0.464375 -2.24446 0
M  V30 3848 C 356.689 0.4295 -1.57032 0
M  V30 3849 O 357.878 0.234902 -1.76948 0
M  V30 3850 C 354.978 0.348385 -3.37105 0
M  V30 3851 C 354.151 -0.53673 -4.34094 0
M  V30 3852 C 353.21 0.220838 -5.25736 0
M  V30 3853 O 352.236 -0.386867 -5.67884 0
M  V30 3854 N 353.438 1.50907 -5.60542 0
M  V30 3855 H 356.203 -1.32788 -2.68677 0
M  V30 3856 H 353.764 -0.844877 -1.38107 0
M  V30 3857 H 355.756 0.863341 -3.95384 0
M  V30 3858 H 354.326 1.11285 -2.92121 0
M  V30 3859 H 353.546 -1.23261 -3.74433 0
M  V30 3860 H 354.834 -1.14022 -4.95859 0
M  V30 3861 H 354.232 2.02444 -5.28236 0
M  V30 3862 H 352.789 1.96962 -6.21329 0
M  V30 3863 N 356.222 1.38976 -0.743202 0
M  V30 3864 C 357.638 1.53984 -0.419664 0
M  V30 3865 C 357.838 1.70837 1.0685 0
M  V30 3866 O 356.894 1.7135 1.8546 0
M  V30 3867 C 358.207 2.75287 -1.20985 0
M  V30 3868 C 359.755 2.89129 -1.19889 0
M  V30 3869 C 360.23 4.13381 -1.97181 0
M  V30 3870 N 361.721 4.20437 -1.94389 0
M  V30 3871 C 362.456 5.15547 -2.50996 0
M  V30 3872 N 361.952 6.16395 -3.16274 0
M  V30 3873 N 363.745 5.07822 -2.40984 0
M  V30 3874 H 355.896 1.26285 -1.7078 0
M  V30 3875 H 358.159 0.612689 -0.723406 0
M  V30 3876 H 357.865 2.69204 -2.26323 0
M  V30 3877 H 357.739 3.68184 -0.819759 0
M  V30 3878 H 360.126 2.947 -0.153606 0
M  V30 3879 H 360.207 1.97272 -1.62841 0
M  V30 3880 H 359.851 4.08572 -3.01714 0
M  V30 3881 H 359.781 5.04298 -1.51629 0
M  V30 3882 H 362.272 3.48205 -1.46839 0
M  V30 3883 H 362.585 6.85443 -3.56915 0
M  V30 3884 H 360.93 6.16758 -3.20367 0
M  V30 3885 H 364.121 4.27973 -1.89622 0
M  V30 3886 H 364.294 5.81767 -2.85397 0
M  V30 3887 N 357.7 0.491464 1.49741 0
M  V30 3888 C 358.948 -0.0563141 2.02022 0
M  V30 3889 C 359.269 -1.38363 1.37407 0
M  V30 3890 O 358.539 -1.88702 0.526166 0
M  V30 3891 H 357.119 -0.0238014 0.746621 0
M  V30 3892 H 359.781 0.646533 1.83864 0
M  V30 3893 H 358.877 -0.192967 3.11503 0
M  V30 3894 N 359.178 -1.55987 0.224894 0
M  V30 3895 C 360.427 -1.97566 -0.406273 0
M  V30 3896 C 360.74 -1.11569 -1.6066 0
M  V30 3897 O 361.946 -1.43062 -2.3075 0
M  V30 3898 C 360.402 -3.51474 -0.774207 0
M  V30 3899 C 360.01 -4.46179 0.403496 0
M  V30 3900 C 361.754 -4.01758 -1.37079 0
M  V30 3901 C 359.661 -5.91399 0.0129412 0
M  V30 3902 H 358.591 -0.737777 -0.155565 0
M  V30 3903 H 361.242 -1.80659 0.321635 0
M  V30 3904 H 359.624 -3.63994 -1.55963 0
M  V30 3905 H 360.798 -4.45409 1.18101 0
M  V30 3906 H 359.113 -4.06255 0.913536 0
M  V30 3907 H 361.71 -5.07756 -1.67596 0
M  V30 3908 H 362.053 -3.47805 -2.28773 0
M  V30 3909 H 362.586 -3.92475 -0.648733 0
M  V30 3910 H 359.325 -6.49341 0.896451 0
M  V30 3911 H 358.845 -5.95356 -0.728821 0
M  V30 3912 H 360.524 -6.45683 -0.412582 0
M  V30 3913 N 360.656 0.0484629 -1.57525 0
M  V30 3914 C 361.902 0.738854 -1.89506 0
M  V30 3915 C 362.257 1.73989 -0.821319 0
M  V30 3916 O 361.55 1.90825 0.172129 0
M  V30 3917 C 361.744 1.46632 -3.25935 0
M  V30 3918 C 361.573 0.537254 -4.46479 0
M  V30 3919 C 360.343 0.165484 -5.05029 0
M  V30 3920 C 362.541 -0.176085 -5.13998 0
M  V30 3921 N 360.523 -0.766868 -6.09091 0
M  V30 3922 C 361.894 -0.96478 -6.12448 0
M  V30 3923 C 363.949 -0.24509 -4.97296 0
M  V30 3924 C 362.652 -1.8161 -6.95996 0
M  V30 3925 C 364.678 -1.08347 -5.81391 0
M  V30 3926 C 364.04 -1.86014 -6.79395 0
M  V30 3927 H 360.139 0.245067 -0.742608 0
M  V30 3928 H 362.723 -0.000476161 -1.947 0
M  V30 3929 H 360.894 2.17623 -3.21706 0
M  V30 3930 H 362.626 2.10757 -3.45491 0
M  V30 3931 H 359.381 0.523466 -4.70698 0
M  V30 3932 H 359.805 -1.22698 -6.65788 0
M  V30 3933 H 364.447 0.341063 -4.21422 0
M  V30 3934 H 362.165 -2.41313 -7.71229 0
M  V30 3935 H 365.751 -1.14014 -5.70519 0
M  V30 3936 H 364.631 -2.4984 -7.43337 0
M  V30 3937 N 362.134 1.5431 0.320358 0
M  V30 3938 C 363.359 1.76954 1.08175 0
M  V30 3939 C 363.784 0.518193 1.80821 0
M  V30 3940 O 363.142 -0.530411 1.73368 0
M  V30 3941 C 363.19 2.96451 2.05303 0
M  V30 3942 O 362.294 2.68221 3.13259 0
M  V30 3943 H 361.635 0.586275 0.311733 0
M  V30 3944 H 364.165 2.01342 0.363676 0
M  V30 3945 H 364.175 3.23887 2.48116 0
M  V30 3946 H 362.85 3.87196 1.51829 0
M  V30 3947 H 361.427 2.51744 2.75099 0
M  V30 3948 N 363.613 -0.582584 1.46437 0
M  V30 3949 C 364.862 -1.337 1.5102 0
M  V30 3950 C 365.175 -1.94891 0.166359 0
M  V30 3951 O 366.381 -2.71351 0.0899954 0
M  V30 3952 C 364.837 -2.42315 2.66104 0
M  V30 3953 C 364.445 -1.87427 4.06909 0
M  V30 3954 C 366.189 -3.19099 2.79958 0
M  V30 3955 C 364.096 -2.93672 5.13333 0
M  V30 3956 H 363.026 -0.502619 0.562041 0
M  V30 3957 H 365.677 -0.621701 1.72647 0
M  V30 3958 H 364.059 -3.16645 2.37807 0
M  V30 3959 H 365.233 -1.19639 4.44998 0
M  V30 3960 H 363.548 -1.2331 3.97723 0
M  V30 3961 H 366.145 -3.9839 3.56636 0
M  V30 3962 H 366.488 -3.71695 1.87479 0
M  V30 3963 H 367.021 -2.51875 3.07902 0
M  V30 3964 H 363.76 -2.45962 6.07604 0
M  V30 3965 H 363.28 -3.59948 4.79789 0
M  V30 3966 H 364.959 -3.5762 5.39182 0
M  V30 3967 N 365.091 -1.34144 -0.827227 0
M  V30 3968 C 366.041 -1.21923 -1.92663 0
M  V30 3969 C 367.025 -0.119294 -1.60457 0
M  V30 3970 O 368.217 -0.348539 -1.73534 0
M  V30 3971 C 365.346 -0.972492 -3.29238 0
M  V30 3972 C 364.432 -2.1154 -3.67576 0
M  V30 3973 N 364.823 -3.36627 -3.77512 0
M  V30 3974 C 363.121 -2.02468 -3.97395 0
M  V30 3975 C 363.822 -4.11658 -4.1099 0
M  V30 3976 N 362.798 -3.40207 -4.23981 0
M  V30 3977 H 366.6 -2.16721 -1.98517 0
M  V30 3978 H 364.114 -1.2632 -1.02064 0
M  V30 3979 H 366.111 -0.865847 -4.0781 0
M  V30 3980 H 364.771 -0.0331509 -3.24683 0
M  V30 3981 H 365.782 -3.71234 -3.61118 0
M  V30 3982 H 362.459 -1.16265 -4.00985 0
M  V30 3983 H 363.849 -5.19657 -4.25918 0
M  V30 3984 N 366.569 1.04691 -1.17803 0
M  V30 3985 C 367.815 1.78045 -0.970969 0
M  V30 3986 C 368.148 1.87686 0.498751 0
M  V30 3987 O 367.423 1.38035 1.37027 0
M  V30 3988 C 367.706 3.2166 -1.61884 0
M  V30 3989 C 367.559 3.20001 -3.161 0
M  V30 3990 C 368.878 4.1962 -1.3269 0
M  V30 3991 H 365.997 0.64633 -0.354155 0
M  V30 3992 H 368.639 1.22333 -1.45378 0
M  V30 3993 H 366.789 3.69232 -1.20831 0
M  V30 3994 H 368.461 2.80467 -3.66246 0
M  V30 3995 H 366.704 2.58203 -3.48588 0
M  V30 3996 H 367.375 4.21386 -3.56564 0
M  V30 3997 H 369.851 3.80567 -1.68249 0
M  V30 3998 H 368.727 5.18339 -1.80599 0
M  V30 3999 H 368.988 4.414 -0.248622 0
M  V30 4000 N 368.047 0.979072 1.23499 0
M  V30 4001 C 369.277 0.664237 1.95631 0
M  V30 4002 C 369.685 -0.772653 1.72704 0
M  V30 4003 O 369.028 -1.53141 1.01457 0
M  V30 4004 C 369.09 0.873115 3.48736 0
M  V30 4005 C 368.754 2.29182 3.95379 0
M  V30 4006 C 369.751 3.2704 4.04155 0
M  V30 4007 C 367.436 2.62256 4.28401 0
M  V30 4008 C 369.43 4.56052 4.45304 0
M  V30 4009 C 367.117 3.91491 4.69231 0
M  V30 4010 C 368.115 4.88201 4.77649 0
M  V30 4011 O 367.803 6.15129 5.17563 0
M  V30 4012 H 367.535 0.245915 0.629684 0
M  V30 4013 H 370.089 1.3127 1.57979 0
M  V30 4014 H 368.319 0.167476 3.86337 0
M  V30 4015 H 370.008 0.555642 4.02079 0
M  V30 4016 H 370.774 3.02819 3.78848 0
M  V30 4017 H 366.653 1.87692 4.21061 0
M  V30 4018 H 370.197 5.31538 4.51789 0
M  V30 4019 H 366.094 4.15508 4.93987 0
M  V30 4020 H 366.862 6.18862 5.35679 0
M  V30 4021 N 369.525 -1.3858 0.750561 0
M  V30 4022 C 370.765 -2.02032 0.310258 0
M  V30 4023 C 371.129 -1.58288 -1.08668 0
M  V30 4024 O 372.33 -2.14049 -1.62593 0
M  V30 4025 C 370.601 -3.54856 0.425647 0
M  V30 4026 S 372.16 -4.38748 0.0674797 0
M  V30 4027 H 368.978 -0.700705 0.120554 0
M  V30 4028 H 371.58 -1.69134 0.980512 0
M  V30 4029 H 370.284 -3.84182 1.44335 0
M  V30 4030 H 369.815 -3.92527 -0.261894 0
M  V30 4031 H 371.83 -4.82835 -1.14388 0
M  V30 4032 N 371.003 -0.499398 -1.49478 0
M  V30 4033 C 372.249 0.0457576 -2.02748 0
M  V30 4034 C 372.582 1.36793 -1.37846 0
M  V30 4035 O 371.857 1.87596 -0.513601 0
M  V30 4036 C 372.14 0.199986 -3.59544 0
M  V30 4037 C 371.993 -1.1452 -4.34977 0
M  V30 4038 C 373.312 0.94137 -4.29914 0
M  V30 4039 H 370.431 0.0151552 -0.736844 0
M  V30 4040 H 373.073 -0.650498 -1.78518 0
M  V30 4041 H 371.223 0.793007 -3.8032 0
M  V30 4042 H 372.895 -1.77697 -4.25701 0
M  V30 4043 H 371.138 -1.73488 -3.97598 0
M  V30 4044 H 371.809 -0.990607 -5.43039 0
M  V30 4045 H 374.285 0.43844 -4.13784 0
M  V30 4046 H 373.161 1.01812 -5.39375 0
M  V30 4047 H 373.422 1.98471 -3.95046 0
M  V30 4048 N 372.481 1.55866 -0.233164 0
M  V30 4049 C 373.758 1.90471 0.444988 0
M  V30 4050 C 374.138 1.15209 1.7689 0
M  V30 4051 O 373.486 0.265119 2.26957 0
M  V30 4052 C 373.696 3.4333 0.626559 0
M  V30 4053 C 375.044 4.14319 0.92871 0
M  V30 4054 O 376.068 3.48993 0.712926 0
M  V30 4055 O 374.927 5.29846 1.33887 0
M  V30 4056 H 372.021 0.792347 0.236885 0
M  V30 4057 H 374.567 1.67437 -0.276211 0
M  V30 4058 H 373.339 3.90095 -0.306822 0
M  V30 4059 H 372.962 3.72181 1.39881 0
M  V30 4060 N 373.959 -0.0401083 1.57549 0
M  V30 4061 C 374.907 -1.06264 2.06908 0
M  V30 4062 C 375.901 -1.38132 0.980608 0
M  V30 4063 O 377.107 -1.37167 1.16556 0
M  V30 4064 H 373.482 -0.360166 0.660139 0
M  V30 4065 H 375.453 -0.620445 2.91878 0
M  V30 4066 C 374.202 -2.35846 2.55483 0
M  V30 4067 H 373.525 -2.12183 3.38849 0
M  V30 4068 H 374.965 -3.05765 2.93741 0
M  V30 4069 C 373.424 -3.0404 1.45126 0
M  V30 4070 O 373.954 -3.93424 0.811216 0
M  V30 4071 N 372.16 -2.65184 1.18852 0
M  V30 4072 H 371.707 -1.92584 1.71083 0
M  V30 4073 H 371.665 -3.1113 0.452244 0
M  V30 4074 N 375.437 -1.54477 -0.31217 0
M  V30 4075 C 376.686 -1.72438 -1.04633 0
M  V30 4076 C 376.999 -0.511163 -1.88803 0
M  V30 4077 O 378.205 -0.572341 -2.65399 0
M  V30 4078 C 376.661 -3.05043 -1.9099 0
M  V30 4079 C 376.269 -4.33806 -1.11877 0
M  V30 4080 C 378.013 -3.32364 -2.64073 0
M  V30 4081 C 375.92 -5.57467 -1.97445 0
M  V30 4082 H 374.85 -0.642647 -0.394361 0
M  V30 4083 H 377.501 -1.80966 -0.303929 0
M  V30 4084 H 375.883 -2.90451 -2.69173 0
M  V30 4085 H 377.057 -4.59199 -0.383843 0
M  V30 4086 H 375.372 -4.13336 -0.504252 0
M  V30 4087 H 377.969 -4.21951 -3.28423 0
M  V30 4088 H 378.312 -2.50745 -3.32314 0
M  V30 4089 H 378.845 -3.47875 -1.92944 0
M  V30 4090 H 375.584 -6.41722 -1.33692 0
M  V30 4091 H 375.104 -5.36277 -2.6864 0
M  V30 4092 H 376.783 -5.94303 -2.5576 0
M  V30 4093 N 376.915 0.57481 -1.46744 0
M  V30 4094 C 377.845 1.69337 -1.60771 0
M  V30 4095 C 378.826 1.63825 -0.457736 0
M  V30 4096 O 380.011 1.8172 -0.684947 0
M  V30 4097 C 377.141 3.0798 -1.60517 0
M  V30 4098 C 376.095 3.28327 -2.74564 0
M  V30 4099 C 375.421 4.67578 -2.59373 0
M  V30 4100 C 376.721 3.15398 -4.16319 0
M  V30 4101 H 378.415 1.57853 -2.54407 0
M  V30 4102 H 375.961 0.75799 -1.22436 0
M  V30 4103 H 377.914 3.86061 -1.68923 0
M  V30 4104 H 376.638 3.20381 -0.634305 0
M  V30 4105 H 375.297 2.52649 -2.65639 0
M  V30 4106 H 374.945 4.76755 -1.60353 0
M  V30 4107 H 374.645 4.82144 -3.35873 0
M  V30 4108 H 376.169 5.47817 -2.69682 0
M  V30 4109 H 377.583 3.83315 -4.26313 0
M  V30 4110 H 375.98 3.41482 -4.93468 0
M  V30 4111 H 377.05 2.12372 -4.3592 0
M  V30 4112 N 378.394 1.34581 0.820102 0
M  V30 4113 C 379.64 1.27285 1.57881 0
M  V30 4114 C 379.973 -0.156137 1.93571 0
M  V30 4115 O 379.248 -1.10222 1.60254 0
M  V30 4116 C 379.531 2.16639 2.87645 0
M  V30 4117 C 379.384 3.68088 2.58517 0
M  V30 4118 C 380.703 2.05378 3.8924 0
M  V30 4119 H 377.822 0.463714 0.572833 0
M  V30 4120 H 380.464 1.64859 0.944539 0
M  V30 4121 H 378.614 1.84725 3.41773 0
M  V30 4122 H 380.286 4.10382 2.10676 0
M  V30 4123 H 378.529 3.89038 1.91917 0
M  V30 4124 H 379.2 4.2598 3.51063 0
M  V30 4125 H 381.676 2.33404 3.44473 0
M  V30 4126 H 380.552 2.7012 4.77835 0
M  V30 4127 H 380.813 1.0316 4.29896 0
M  V30 4128 N 379.872 -1.04064 1.18357 0
M  V30 4129 C 380.819 -2.12077 0.910603 0
M  V30 4130 C 381.789 -1.65421 -0.15 0
M  V30 4131 O 382.974 -1.90797 -0.0103614 0
M  V30 4132 C 380.114 -3.42252 0.442472 0
M  V30 4133 C 379.227 -4.0252 1.5685 0
M  V30 4134 C 378.362 -5.20657 1.05309 0
M  V30 4135 C 377.401 -5.72955 2.1538 0
M  V30 4136 N 376.538 -6.8238 1.65233 0
M  V30 4137 H 381.378 -2.34764 1.83548 0
M  V30 4138 H 378.915 -1.15157 0.915279 0
M  V30 4139 H 380.873 -4.16921 0.152534 0
M  V30 4140 H 379.503 -3.19712 -0.445428 0
M  V30 4141 H 378.555 -3.25178 1.97391 0
M  V30 4142 H 379.867 -4.37362 2.39824 0
M  V30 4143 H 379.021 -6.0244 0.717677 0
M  V30 4144 H 377.76 -4.87318 0.19293 0
M  V30 4145 H 376.765 -4.89793 2.49766 0
M  V30 4146 H 377.99 -6.08337 3.01832 0
M  V30 4147 H 375.936 -6.50917 0.815064 0
M  V30 4148 H 375.853 -7.16286 2.41805 0
M  V30 4149 H 377.121 -7.67788 1.34619 0
M  V30 4150 N 381.35 -0.985608 -1.22978 0
M  V30 4151 C 382.596 -0.65836 -1.91816 0
M  V30 4152 C 382.929 0.806692 -1.76653 0
M  V30 4153 O 382.204 1.58252 -1.13078 0
M  V30 4154 C 382.487 -1.056 -3.44268 0
M  V30 4155 C 382.34 -2.57906 -3.68516 0
M  V30 4156 C 383.659 -0.603781 -4.35939 0
M  V30 4157 H 380.778 -0.24065 -0.696604 0
M  V30 4158 H 383.42 -1.22783 -1.44998 0
M  V30 4159 H 381.57 -0.571445 -3.84274 0
M  V30 4160 H 383.242 -3.13976 -3.3796 0
M  V30 4161 H 381.485 -3.00305 -3.13048 0
M  V30 4162 H 382.156 -2.80779 -4.75255 0
M  V30 4163 H 384.632 -1.01987 -4.03408 0
M  V30 4164 H 383.508 -0.910383 -5.41298 0
M  V30 4165 H 383.769 0.495761 -4.39312 0
M  V30 4166 N 382.828 1.3818 -0.7579 0
M  V30 4167 C 383.791 2.28764 -0.141286 0
M  V30 4168 C 384.791 1.47388 0.642907 0
M  V30 4169 O 385.981 1.67781 0.468536 0
M  V30 4170 C 383.113 3.31184 0.808069 0
M  V30 4171 H 384.306 2.848 -0.939633 0
M  V30 4172 H 381.859 1.47212 -0.525191 0
M  V30 4173 H 382.594 2.80247 1.63193 0
M  V30 4174 H 382.379 3.91314 0.248104 0
M  V30 4175 H 383.869 3.98909 1.23536 0
M  V30 4176 N 384.306 0.507319 1.49211 0
M  V30 4177 C 385.583 -0.0982702 1.95353 0
M  V30 4178 C 385.963 -1.53516 1.449 0
M  V30 4179 O 385.311 -2.18594 0.66551 0
M  V30 4180 C 385.521 -0.00440283 3.49 0
M  V30 4181 C 386.869 -0.175147 4.24239 0
M  V30 4182 O 387.893 -0.0792891 3.56112 0
M  V30 4183 O 386.752 -0.37276 5.45227 0
M  V30 4184 H 383.846 -0.0918236 0.821887 0
M  V30 4185 H 386.392 0.570307 1.5983 0
M  V30 4186 H 385.164 0.997402 3.78375 0
M  V30 4187 H 384.787 -0.712845 3.91158 0
M  V30 4188 N 385.784 -1.5574 0.241426 0
M  V30 4189 C 387.195 -1.84842 -0.262755 0
M  V30 4190 C 387.546 -1.16317 -1.58003 0
M  V30 4191 O 386.671 -0.439653 -2.11887 0
M  V30 4192 C 387.266 -3.35332 -0.483523 0
M  V30 4193 C 385.825 -3.6468 -0.931977 0
M  V30 4194 C 384.972 -2.77299 -0.0061151 0
M  V30 4195 H 387.923 -1.51761 0.464129 0
M  V30 4196 H 387.944 -3.56615 -1.32688 0
M  V30 4197 H 387.456 -3.85178 0.47537 0
M  V30 4198 H 385.557 -3.20307 -1.90353 0
M  V30 4199 H 385.67 -4.72498 -0.792628 0
M  V30 4200 H 384.034 -2.49408 -0.516503 0
M  V30 4201 H 384.817 -3.2995 0.948052 0
M  V30 4202 N 387.262 0.0317525 -1.57568 0
M  V30 4203 C 388.678 0.38735 -1.54828 0
M  V30 4204 C 388.878 1.7677 -0.967187 0
M  V30 4205 O 387.934 2.45581 -0.587063 0
M  V30 4206 C 389.247 0.291667 -2.99282 0
M  V30 4207 C 390.795 0.368946 -3.10818 0
M  V30 4208 C 391.27 0.302741 -4.56998 0
M  V30 4209 N 392.761 0.361617 -4.61786 0
M  V30 4210 C 393.496 0.333238 -5.72431 0
M  V30 4211 N 392.992 0.257308 -6.92322 0
M  V30 4212 N 394.785 0.382769 -5.60795 0
M  V30 4213 H 386.936 -0.871609 -1.93692 0
M  V30 4214 H 389.199 -0.331161 -0.888277 0
M  V30 4215 H 388.905 -0.656794 -3.45513 0
M  V30 4216 H 388.779 1.08638 -3.61217 0
M  V30 4217 H 391.166 1.30784 -2.64536 0
M  V30 4218 H 391.247 -0.455066 -2.5172 0
M  V30 4219 H 390.891 -0.632473 -5.03947 0
M  V30 4220 H 390.821 1.14482 -5.14005 0
M  V30 4221 H 393.312 0.422923 -3.75526 0
M  V30 4222 H 393.625 0.24068 -7.72425 0
M  V30 4223 H 391.97 0.223396 -6.94641 0
M  V30 4224 H 395.161 0.44006 -4.66027 0
M  V30 4225 H 395.334 0.357184 -6.47015 0
M  V30 4226 N 388.74 1.54641 0.303973 0
M  V30 4227 C 389.987 1.7378 1.03955 0
M  V30 4228 C 390.315 0.521986 1.87365 0
M  V30 4229 O 389.57 -0.496099 1.89308 0
M  V30 4230 C 389.869 2.97753 1.97681 0
M  V30 4231 C 389.535 4.31671 1.30271 0
M  V30 4232 C 388.197 4.68075 1.11619 0
M  V30 4233 C 390.549 5.147 0.82055 0
M  V30 4234 C 387.877 5.8509 0.434304 0
M  V30 4235 C 390.229 6.32416 0.152395 0
M  V30 4236 C 388.893 6.67484 -0.0461067 0
M  V30 4237 H 388.163 0.635908 0.380398 0
M  V30 4238 H 390.81 1.88896 0.314718 0
M  V30 4239 H 389.115 2.77406 2.76682 0
M  V30 4240 H 390.812 3.09756 2.54661 0
M  V30 4241 H 387.402 4.03041 1.45795 0
M  V30 4242 H 391.586 4.87077 0.952374 0
M  V30 4243 H 386.842 6.10806 0.269495 0
M  V30 4244 H 391.016 6.96023 -0.229126 0
M  V30 4245 H 388.643 7.58011 -0.576494 0
M  V30 4246 N 390.218 -0.567019 1.47046 0
M  V30 4247 C 391.467 -1.32091 1.5243 0
M  V30 4248 C 391.78 -1.94704 0.187021 0
M  V30 4249 O 392.986 -2.7124 0.118771 0
M  V30 4250 C 391.442 -2.39479 2.68659 0
M  V30 4251 C 391.05 -1.831 4.08874 0
M  V30 4252 C 392.794 -3.16111 2.83327 0
M  V30 4253 C 390.701 -2.8821 5.16419 0
M  V30 4254 H 389.631 -0.496629 0.56734 0
M  V30 4255 H 392.282 -0.603354 1.73297 0
M  V30 4256 H 390.664 -3.14105 2.41152 0
M  V30 4257 H 391.838 -1.14913 4.46242 0
M  V30 4258 H 390.153 -1.19085 3.99008 0
M  V30 4259 H 392.75 -3.94585 3.60842 0
M  V30 4260 H 393.093 -3.69686 1.91411 0
M  V30 4261 H 393.626 -2.48595 3.10556 0
M  V30 4262 H 390.365 -2.39504 6.10179 0
M  V30 4263 H 389.885 -3.54839 4.8358 0
M  V30 4264 H 391.564 -3.51881 5.42945 0
M  V30 4265 N 391.696 -1.35014 -0.812953 0
M  V30 4266 C 392.944 -1.27678 -1.56661 0
M  V30 4267 C 393.265 0.150359 -1.94419 0
M  V30 4268 O 392.535 1.08532 -1.63088 0
M  V30 4269 H 391.115 -0.469602 -0.580933 0
M  V30 4270 H 393.777 -1.69043 -0.970076 0
M  V30 4271 H 392.873 -1.88833 -2.48492 0
M  V30 4272 N 393.175 1.03435 -1.18907 0
M  V30 4273 C 394.422 1.76743 -0.988334 0
M  V30 4274 C 394.75 1.88447 0.481441 0
M  V30 4275 O 394.005 1.39383 1.37371 0
M  V30 4276 C 394.304 3.19792 -1.59586 0
M  V30 4277 C 393.97 3.28108 -3.09283 0
M  V30 4278 C 392.632 3.30084 -3.5014 0
M  V30 4279 C 394.984 3.27696 -4.05296 0
M  V30 4280 C 392.312 3.29299 -4.85571 0
M  V30 4281 C 394.664 3.28451 -5.4065 0
M  V30 4282 C 393.328 3.28723 -5.80946 0
M  V30 4283 H 392.598 0.64675 -0.361657 0
M  V30 4284 H 395.245 1.21442 -1.48068 0
M  V30 4285 H 393.55 3.78136 -1.02568 0
M  V30 4286 H 395.247 3.75171 -1.41589 0
M  V30 4287 H 391.837 3.27294 -2.76725 0
M  V30 4288 H 396.021 3.25354 -3.74778 0
M  V30 4289 H 391.277 3.2783 -5.16079 0
M  V30 4290 H 395.451 3.27082 -6.14809 0
M  V30 4291 H 393.078 3.27868 -6.85862 0
M  V30 4292 N 394.653 0.992116 1.22453 0
M  V30 4293 C 395.893 0.675727 1.92907 0
M  V30 4294 C 396.257 -0.777762 1.75542 0
M  V30 4295 O 397.458 -1.20553 2.40251 0
M  V30 4296 C 395.729 1.0696 3.4102 0
M  V30 4297 S 397.288 0.871456 4.30059 0
M  V30 4298 H 394.106 0.247089 0.666684 0
M  V30 4299 H 396.708 1.27423 1.48269 0
M  V30 4300 H 395.412 2.12383 3.51172 0
M  V30 4301 H 394.943 0.462858 3.90668 0
M  V30 4302 H 396.958 -0.238436 4.95627 0
M  V30 4303 N 396.131 -1.37776 0.765217 0
M  V30 4304 C 397.38 -1.99092 0.323307 0
M  V30 4305 C 397.693 -1.61434 -1.10446 0
M  V30 4306 O 398.899 -2.15805 -1.64743 0
M  V30 4307 C 397.355 -3.56019 0.527098 0
M  V30 4308 C 396.963 -4.0262 1.96471 0
M  V30 4309 C 398.707 -4.2424 0.148483 0
M  V30 4310 C 396.614 -5.52233 2.11644 0
M  V30 4311 H 395.544 -0.744846 0.117137 0
M  V30 4312 H 398.195 -1.57391 0.943417 0
M  V30 4313 H 396.577 -3.95667 -0.162372 0
M  V30 4314 H 397.751 -3.74234 2.68859 0
M  V30 4315 H 396.066 -3.47161 2.29931 0
M  V30 4316 H 398.663 -5.34159 0.240456 0
M  V30 4317 H 399.006 -4.06446 -0.900422 0
M  V30 4318 H 399.539 -3.89872 0.79025 0
M  V30 4319 H 396.278 -5.74945 3.1483 0
M  V30 4320 H 395.798 -5.82324 1.4373 0
M  V30 4321 H 397.477 -6.18106 1.91193 0
M  V30 4322 N 397.609 -0.515225 -1.4894 0
M  V30 4323 C 398.541 0.292481 -2.27326 0
M  V30 4324 C 399.554 0.917838 -1.3446 0
M  V30 4325 O 400.743 0.798772 -1.5963 0
M  V30 4326 C 397.843 1.42803 -3.07344 0
M  V30 4327 C 397.016 0.907347 -4.27885 0
M  V30 4328 C 396.075 1.92222 -4.89834 0
M  V30 4329 O 395.101 1.48506 -5.49486 0
M  V30 4330 N 396.303 3.25355 -4.80754 0
M  V30 4331 H 399.068 -0.379721 -2.97285 0
M  V30 4332 H 396.629 -0.348638 -1.58102 0
M  V30 4333 H 398.621 2.10481 -3.45658 0
M  V30 4334 H 397.191 2.00414 -2.39902 0
M  V30 4335 H 396.411 0.0550218 -3.94162 0
M  V30 4336 H 397.699 0.538108 -5.05946 0
M  V30 4337 H 397.097 3.6355 -4.33414 0
M  V30 4338 H 395.654 3.88707 -5.23211 0
M  V30 4339 N 399.087 1.5561 -0.249682 0
M  V30 4340 C 400.034 2.21496 0.648694 0
M  V30 4341 C 401.004 1.17977 1.16921 0
M  V30 4342 O 402.189 1.46434 1.22318 0
M  V30 4343 C 399.329 2.92039 1.83868 0
M  V30 4344 C 398.442 4.10219 1.35442 0
M  V30 4345 C 397.577 4.6847 2.50419 0
M  V30 4346 C 396.616 5.78893 1.98869 0
M  V30 4347 N 395.753 6.31315 3.07223 0
M  V30 4348 H 400.593 2.97892 0.0801582 0
M  V30 4349 H 398.13 1.47074 0.0278031 0
M  V30 4350 H 400.088 3.31138 2.53778 0
M  V30 4351 H 398.718 2.18111 2.37965 0
M  V30 4352 H 397.77 3.76413 0.54928 0
M  V30 4353 H 399.082 4.89927 0.936649 0
M  V30 4354 H 398.236 5.10158 3.28366 0
M  V30 4355 H 396.975 3.87984 2.95499 0
M  V30 4356 H 395.98 5.3668 1.19393 0
M  V30 4357 H 397.205 6.61232 1.54755 0
M  V30 4358 H 395.151 5.53733 3.51732 0
M  V30 4359 H 395.068 7.06224 2.69784 0
M  V30 4360 H 396.336 6.77662 3.8522 0
M  V30 4361 N 400.565 -0.0233959 1.57583 0
M  V30 4362 C 401.813 -0.711654 1.89156 0
M  V30 4363 C 402.134 -1.75591 0.848096 0
M  V30 4364 O 401.404 -1.95547 -0.117566 0
M  V30 4365 H 399.984 -0.265835 0.698098 0
M  V30 4366 H 402.646 0.0119948 1.94896 0
M  V30 4367 H 401.742 -1.19766 2.88206 0
M  V30 4368 N 402.043 -1.548 -0.295768 0
M  V30 4369 C 403.006 -1.85363 -1.34808 0
M  V30 4370 C 404.006 -0.726817 -1.43436 0
M  V30 4371 O 405.196 -0.995088 -1.42981 0
M  V30 4372 C 402.328 -2.03859 -2.73229 0
M  V30 4373 H 403.521 -2.7941 -1.08949 0
M  V30 4374 H 401.074 -1.46942 -0.532702 0
M  V30 4375 H 401.809 -1.12117 -3.04303 0
M  V30 4376 H 401.594 -2.8588 -2.68356 0
M  V30 4377 H 403.084 -2.28857 -3.49305 0
M  V30 4378 N 403.521 0.559213 -1.47345 0
M  V30 4379 C 404.798 1.31997 -1.44348 0
M  V30 4380 C 405.178 2.1064 -0.139358 0
M  V30 4381 O 404.526 2.1091 0.879153 0
M  V30 4382 C 404.736 2.22618 -2.68779 0
M  V30 4383 C 406.084 2.83701 -3.1591 0
M  V30 4384 O 407.108 2.32921 -2.69493 0
M  V30 4385 O 405.967 3.75993 -3.966 0
M  V30 4386 H 403.061 0.594251 -0.575147 0
M  V30 4387 H 405.607 0.578282 -1.59543 0
M  V30 4388 H 404.379 1.64093 -3.55231 0
M  V30 4389 H 404.002 3.04085 -2.5616 0
M  V30 4390 N 404.999 1.35443 0.805782 0
M  V30 4391 C 406.239 1.30127 1.57627 0
M  V30 4392 C 406.603 -0.122567 1.91608 0
M  V30 4393 O 407.804 -0.300107 2.67119 0
M  V30 4394 C 406.075 2.18314 2.82973 0
M  V30 4395 S 407.634 2.30521 3.7337 0
M  V30 4396 H 404.452 0.462439 0.540066 0
M  V30 4397 H 407.054 1.70843 0.95042 0
M  V30 4398 H 405.758 3.20741 2.56034 0
M  V30 4399 H 405.289 1.78558 3.50543 0
M  V30 4400 H 407.304 1.49062 4.73281 0
M  V30 4401 N 406.477 -1.02803 1.19454 0
M  V30 4402 C 407.725 -1.75869 0.995722 0
M  V30 4403 C 408.046 -1.89138 -0.474543 0
M  V30 4404 O 407.316 -1.42558 -1.34366 0
M  V30 4405 H 405.896 -0.651511 0.365435 0
M  V30 4406 H 408.558 -1.24004 1.50363 0
M  V30 4407 H 407.654 -2.76661 1.44447 0
M  V30 4408 N 407.956 -0.998596 -1.21925 0
M  V30 4409 C 408.919 -0.558679 -2.22287 0
M  V30 4410 C 409.919 0.361525 -1.56683 0
M  V30 4411 O 411.109 0.152695 -1.73529 0
M  V30 4412 C 408.241 0.18661 -3.40389 0
M  V30 4413 H 409.434 -1.4463 -2.62721 0
M  V30 4414 H 406.987 -0.786413 -1.35075 0
M  V30 4415 H 407.722 1.08996 -3.05435 0
M  V30 4416 H 407.507 -0.474188 -3.89222 0
M  V30 4417 H 408.997 0.482367 -4.14805 0
M  V30 4418 N 409.434 1.37368 -0.772513 0
M  V30 4419 C 410.381 2.30262 -0.157488 0
M  V30 4420 C 411.351 1.51137 0.688965 0
M  V30 4421 O 412.536 1.79704 0.641168 0
M  V30 4422 C 409.676 3.37611 0.715045 0
M  V30 4423 C 408.789 4.31746 -0.148098 0
M  V30 4424 C 407.924 5.26171 0.729213 0
M  V30 4425 C 406.963 6.11948 -0.136418 0
M  V30 4426 N 406.1 6.98613 0.698914 0
M  V30 4427 H 410.94 2.82277 -0.955179 0
M  V30 4428 H 408.477 1.38957 -0.482631 0
M  V30 4429 H 410.435 3.98479 1.23575 0
M  V30 4430 H 409.065 2.86959 1.47833 0
M  V30 4431 H 408.117 3.72178 -0.786613 0
M  V30 4432 H 409.429 4.92084 -0.81579 0
M  V30 4433 H 408.583 5.92247 1.31637 0
M  V30 4434 H 407.322 4.66246 1.43059 0
M  V30 4435 H 406.327 5.4485 -0.736102 0
M  V30 4436 H 407.552 6.73945 -0.835134 0
M  V30 4437 H 405.498 6.41215 1.38489 0
M  V30 4438 H 405.415 7.55948 0.0885358 0
M  V30 4439 H 406.683 7.69077 1.27044 0
M  V30 4440 N 410.912 0.523116 1.48665 0
M  V30 4441 C 412.158 -0.0134963 2.02796 0
M  V30 4442 C 412.491 -1.34582 1.40004 0
M  V30 4443 O 411.766 -1.86756 0.543381 0
M  V30 4444 C 412.049 -0.14276 3.59817 0
M  V30 4445 C 411.902 1.21425 4.331 0
M  V30 4446 C 413.221 -0.872856 4.31357 0
M  V30 4447 H 410.34 -0.00343074 0.736992 0
M  V30 4448 H 412.982 0.678816 1.7746 0
M  V30 4449 H 411.132 -0.732401 3.81534 0
M  V30 4450 H 412.804 1.84447 4.2282 0
M  V30 4451 H 411.047 1.79791 3.94788 0
M  V30 4452 H 411.718 1.07687 5.41394 0
M  V30 4453 H 414.194 -0.372555 4.14429 0
M  V30 4454 H 413.07 -0.932185 5.40927 0
M  V30 4455 H 413.331 -1.92161 3.98154 0
M  V30 4456 N 412.39 -1.55475 0.257931 0
M  V30 4457 C 413.636 -1.99502 -0.364266 0
M  V30 4458 C 413.969 -1.146 -1.56782 0
M  V30 4459 O 413.244 -0.211968 -1.93342 0
M  V30 4460 C 413.527 -3.51917 -0.763333 0
M  V30 4461 C 413.38 -4.4758 0.446371 0
M  V30 4462 C 414.699 -4.09742 -1.60623 0
M  V30 4463 H 411.818 -0.725277 -0.130929 0
M  V30 4464 H 414.46 -1.8653 0.361446 0
M  V30 4465 H 412.61 -3.63101 -1.38166 0
M  V30 4466 H 414.282 -4.48362 1.08487 0
M  V30 4467 H 412.525 -4.19947 1.08753 0
M  V30 4468 H 413.196 -5.51862 0.123645 0
M  V30 4469 H 415.672 -4.01727 -1.08418 0
M  V30 4470 H 414.548 -5.16631 -1.85429 0
M  V30 4471 H 414.809 -3.58889 -2.58169 0
M  V30 4472 N 413.868 0.0150385 -1.57593 0
M  V30 4473 C 414.778 1.02791 -2.10882 0
M  V30 4474 C 415.794 1.38702 -1.0506 0
M  V30 4475 O 416.97 1.47739 -1.36877 0
M  V30 4476 C 414.035 2.30568 -2.58919 0
M  V30 4477 C 413.096 2.01108 -3.79281 0
M  V30 4478 C 412.329 3.22794 -4.25018 0
M  V30 4479 O 412.552 4.33959 -3.70183 0
M  V30 4480 O 411.486 3.07672 -5.17322 0
M  V30 4481 H 415.312 0.604973 -2.97613 0
M  V30 4482 H 412.897 0.23292 -1.47573 0
M  V30 4483 H 414.779 3.05662 -2.90084 0
M  V30 4484 H 413.454 2.72129 -1.75293 0
M  V30 4485 H 412.361 1.23537 -3.53114 0
M  V30 4486 H 413.694 1.64394 -4.63935 0
M  V30 4487 N 415.346 1.54954 0.287554 0
M  V30 4488 C 416.293 1.86834 1.35505 0
M  V30 4489 C 417.263 0.718452 1.49758 0
M  V30 4490 O 418.448 0.968358 1.644 0
M  V30 4491 C 415.588 2.13303 2.71286 0
M  V30 4492 C 414.701 3.40883 2.65373 0
M  V30 4493 C 413.836 3.57125 3.93236 0
M  V30 4494 C 412.875 4.78449 3.81776 0
M  V30 4495 N 412.012 4.91426 5.01443 0
M  V30 4496 H 416.852 2.77889 1.07619 0
M  V30 4497 H 414.389 1.37593 0.520241 0
M  V30 4498 H 416.347 2.26646 3.50267 0
M  V30 4499 H 414.977 1.25499 2.97405 0
M  V30 4500 H 414.029 3.36088 1.78182 0
M  V30 4501 H 415.341 4.29993 2.52799 0
M  V30 4502 H 414.495 3.70207 4.80658 0
M  V30 4503 H 413.234 2.66173 4.0866 0
M  V30 4504 H 412.239 4.65386 2.92738 0
M  V30 4505 H 413.464 5.70822 3.67884 0
M  V30 4506 H 411.41 4.03401 5.17304 0
M  V30 4507 H 411.327 5.74559 4.91343 0
M  V30 4508 H 412.595 5.08879 5.90477 0
M  V30 4509 N 416.824 -0.551391 1.4764 0
M  V30 4510 C 418.052 -1.33357 1.58189 0
M  V30 4511 C 418.467 -1.87342 0.234199 0
M  V30 4512 O 417.824 -1.65301 -0.77343 0
M  V30 4513 C 417.875 -2.49942 2.61173 0
M  V30 4514 O 417.596 -1.98187 3.90709 0
M  V30 4515 C 419.097 -3.42072 2.8196 0
M  V30 4516 H 416.317 -0.40631 0.533998 0
M  V30 4517 H 418.861 -0.667367 1.93304 0
M  V30 4518 H 417.016 -3.12489 2.28975 0
M  V30 4519 H 417.43 -2.74342 4.47031 0
M  V30 4520 H 418.904 -4.20278 3.57869 0
M  V30 4521 H 419.381 -3.95978 1.89995 0
M  V30 4522 H 419.987 -2.85336 3.15378 0
M  V30 4523 N 418.302 -1.35869 -0.798587 0
M  V30 4524 C 419.25 -1.29491 -1.93222 0
M  V30 4525 C 420.244 -0.18836 -1.6835 0
M  V30 4526 O 421.45 -0.354822 -1.76468 0
M  V30 4527 H 417.825 -0.402901 -0.63496 0
M  V30 4528 H 419.796 -2.25247 -1.9572 0
M  V30 4529 C 418.545 -1.09184 -3.30112 0
M  V30 4530 H 417.868 -1.93574 -3.49813 0
M  V30 4531 H 419.308 -1.08766 -4.09812 0
M  V30 4532 C 417.767 0.203959 -3.36282 0
M  V30 4533 O 418.297 1.19699 -3.83451 0
M  V30 4534 N 416.503 0.245488 -2.89561 0
M  V30 4535 H 416.05 -0.563223 -2.51367 0
M  V30 4536 H 416.008 1.11219 -2.94071 0
M  V30 4537 N 419.78 1.02168 -1.19998 0
M  V30 4538 C 421.191 1.57135 -1.00825 0
M  V30 4539 C 421.542 1.91276 0.436818 0
M  V30 4540 O 420.667 1.71679 1.3174 0
M  V30 4541 C 421.262 2.85514 -1.82393 0
M  V30 4542 C 419.821 3.37027 -1.67601 0
M  V30 4543 C 418.968 2.10388 -1.80644 0
M  V30 4544 H 421.919 0.846106 -1.34264 0
M  V30 4545 H 421.94 3.56711 -1.32429 0
M  V30 4546 H 421.452 2.60634 -2.87561 0
M  V30 4547 H 419.553 3.66878 -0.650485 0
M  V30 4548 H 419.666 4.09572 -2.4857 0
M  V30 4549 H 418.03 2.22601 -1.23778 0
M  V30 4550 H 418.813 1.8794 -2.87286 0
M  V30 4551 N 421.258 1.00505 1.21394 0
M  V30 4552 C 422.486 0.706609 1.9446 0
M  V30 4553 C 422.901 -0.73081 1.74082 0
M  V30 4554 O 422.258 -1.49446 1.04747 0
M  V30 4555 C 422.309 1.01824 3.46863 0
M  V30 4556 O 422.03 2.39919 3.66566 0
M  V30 4557 C 423.531 0.739216 4.37093 0
M  V30 4558 H 420.751 0.260394 0.618414 0
M  V30 4559 H 423.295 1.34311 1.54211 0
M  V30 4560 H 421.45 0.427343 3.85036 0
M  V30 4561 H 421.864 2.50784 4.6066 0
M  V30 4562 H 423.338 1.00744 5.42729 0
M  V30 4563 H 423.815 -0.326746 4.37983 0
M  V30 4564 H 424.421 1.31173 4.04566 0
M  V30 4565 N 422.737 -1.36956 0.779787 0
M  V30 4566 C 423.647 -2.33965 0.172491 0
M  V30 4567 C 424.663 -1.60574 -0.670222 0
M  V30 4568 O 425.839 -1.92617 -0.588263 0
M  V30 4569 C 422.904 -3.39761 -0.690173 0
M  V30 4570 C 421.965 -4.28964 0.169924 0
M  V30 4571 C 421.198 -5.29707 -0.651662 0
M  V30 4572 O 421.421 -5.38238 -1.88827 0
M  V30 4573 O 420.355 -6.01873 -0.0566264 0
M  V30 4574 H 424.181 -2.87647 0.974321 0
M  V30 4575 H 421.766 -1.39258 0.541078 0
M  V30 4576 H 423.648 -4.04471 -1.1824 0
M  V30 4577 H 422.323 -2.88394 -1.47006 0
M  V30 4578 H 421.23 -3.67326 0.708696 0
M  V30 4579 H 422.563 -4.83656 0.913085 0
M  V30 4580 N 424.215 -0.530993 -1.48385 0
M  V30 4581 C 425.626 -0.0907905 -1.86479 0
M  V30 4582 C 425.977 1.33213 -1.44044 0
M  V30 4583 O 425.102 1.99783 -0.831615 0
M  V30 4584 C 425.697 -0.157987 -3.38431 0
M  V30 4585 C 424.256 0.227026 -3.75715 0
M  V30 4586 C 423.403 -0.5173 -2.72432 0
M  V30 4587 H 426.354 -0.742186 -1.40276 0
M  V30 4588 H 426.375 0.630053 -3.75247 0
M  V30 4589 H 425.887 -1.19372 -3.69286 0
M  V30 4590 H 423.988 1.26486 -3.50474 0
M  V30 4591 H 424.101 -0.113288 -4.78966 0
M  V30 4592 H 422.465 0.0365527 -2.54674 0
M  V30 4593 H 423.248 -1.55368 -3.0613 0
M  V30 4594 N 425.693 1.55336 -0.266172 0
M  V30 4595 C 426.939 1.99692 0.353681 0
M  V30 4596 C 427.272 1.1543 1.56172 0
M  V30 4597 O 426.547 0.222218 1.93226 0
M  V30 4598 C 426.83 3.52316 0.74466 0
M  V30 4599 C 426.683 4.47337 -0.470101 0
M  V30 4600 C 428.002 4.10588 1.58447 0
M  V30 4601 H 425.121 0.725961 0.12708 0
M  V30 4602 H 427.763 1.86336 -0.371333 0
M  V30 4603 H 425.913 3.63829 1.36239 0
M  V30 4604 H 427.585 4.4778 -1.10864 0
M  V30 4605 H 425.828 4.19364 -1.10978 0
M  V30 4606 H 426.499 5.51788 -0.15291 0
M  V30 4607 H 428.975 4.02297 1.06286 0
M  V30 4608 H 427.851 5.17607 1.82686 0
M  V30 4609 H 428.112 3.60253 2.56262 0
M  V30 4610 N 427.171 -0.0066808 1.57599 0
M  V30 4611 C 428.419 -0.691552 1.899 0
M  V30 4612 C 428.74 -1.74682 0.866672 0
M  V30 4613 O 428.01 -1.95661 -0.0968189 0
M  V30 4614 H 426.59 -0.258416 0.700878 0
M  V30 4615 H 429.252 0.0326655 1.94873 0
M  V30 4616 H 428.348 -1.16702 2.8946 0
M  V30 4617 N 428.649 -1.55105 -0.279332 0
M  V30 4618 C 429.895 -1.75672 -1.01327 0
M  V30 4619 C 430.228 -0.552739 -1.86168 0
M  V30 4620 O 429.503 0.449827 -1.89227 0
M  V30 4621 C 429.786 -3.05825 -1.90114 0
M  V30 4622 C 429.639 -4.36565 -1.08309 0
M  V30 4623 C 430.958 -3.31975 -2.8893 0
M  V30 4624 H 428.077 -0.639149 -0.366957 0
M  V30 4625 H 430.719 -1.87833 -0.286154 0
M  V30 4626 H 428.869 -2.95588 -2.52111 0
M  V30 4627 H 430.541 -4.58751 -0.484314 0
M  V30 4628 H 428.784 -4.32076 -0.386362 0
M  V30 4629 H 429.455 -5.23946 -1.73737 0
M  V30 4630 H 431.931 -3.41963 -2.37067 0
M  V30 4631 H 430.807 -4.2432 -3.48201 0
M  V30 4632 H 431.068 -2.51309 -3.63725 0
M  V30 4633 N 430.127 0.543554 -1.4793 0
M  V30 4634 C 431.373 1.30201 -1.55485 0
M  V30 4635 C 431.706 1.92925 -0.222201 0
M  V30 4636 O 430.981 1.78586 0.77053 0
M  V30 4637 C 431.264 2.40174 -2.68307 0
M  V30 4638 C 431.117 1.8223 -4.11233 0
M  V30 4639 C 432.436 3.42024 -2.76961 0
M  V30 4640 H 429.555 0.472036 -0.565996 0
M  V30 4641 H 432.197 0.606914 -1.80046 0
M  V30 4642 H 430.347 2.99463 -2.47495 0
M  V30 4643 H 432.019 1.27096 -4.43446 0
M  V30 4644 H 430.262 1.12832 -4.18869 0
M  V30 4645 H 430.933 2.61793 -4.85972 0
M  V30 4646 H 433.409 2.92672 -2.95774 0
M  V30 4647 H 432.285 4.16383 -3.57654 0
M  V30 4648 H 432.546 4.0173 -1.84568 0
M  V30 4649 N 431.605 1.3629 0.791371 0
M  V30 4650 C 432.845 1.31792 1.56238 0
M  V30 4651 C 433.209 -0.102237 1.91728 0
M  V30 4652 O 434.41 -0.271759 2.67423 0
M  V30 4653 C 432.681 2.21303 2.80642 0
M  V30 4654 S 434.24 2.34468 3.70904 0
M  V30 4655 H 431.058 0.468141 0.535131 0
M  V30 4656 H 433.66 1.71841 0.932246 0
M  V30 4657 H 432.364 3.23439 2.52617 0
M  V30 4658 H 431.895 1.82266 3.4863 0
M  V30 4659 H 433.91 1.54074 4.71673 0
M  V30 4660 N 433.083 -1.0153 1.20538 0
M  V30 4661 C 434.499 -1.27461 0.96051 0
M  V30 4662 C 434.699 -1.98273 -0.359193 0
M  V30 4663 O 433.755 -2.27886 -1.0874 0
M  V30 4664 C 435.068 -2.10837 2.14402 0
M  V30 4665 C 436.616 -2.24099 2.18515 0
M  V30 4666 C 437.091 -3.10852 3.36355 0
M  V30 4667 N 438.582 -3.18441 3.36377 0
M  V30 4668 C 439.317 -3.85795 4.24205 0
M  V30 4669 N 438.813 -4.55264 5.22213 0
M  V30 4670 N 440.606 -3.82331 4.12043 0
M  V30 4671 H 432.757 -0.539907 2.05423 0
M  V30 4672 H 435.02 -0.30092 0.898972 0
M  V30 4673 H 434.726 -1.66144 3.09983 0
M  V30 4674 H 434.6 -3.11576 2.12604 0
M  V30 4675 H 436.987 -2.68016 1.23497 0
M  V30 4676 H 437.068 -1.22865 2.24361 0
M  V30 4677 H 436.712 -2.6764 4.31661 0
M  V30 4678 H 436.642 -4.12177 3.27746 0
M  V30 4679 H 439.133 -2.68978 2.65442 0
M  V30 4680 H 439.446 -5.04331 5.85551 0
M  V30 4681 H 437.791 -4.54085 5.26148 0
M  V30 4682 H 440.982 -3.27207 3.34743 0
M  V30 4683 H 441.155 -4.34547 4.807 0
M  V30 4684 N 434.561 -1.01147 -1.20859 0
M  V30 4685 C 435.807 -0.698899 -1.90377 0
M  V30 4686 C 436.14 0.76904 -1.78324 0
M  V30 4687 O 435.415 1.55817 -1.16409 0
M  V30 4688 C 435.698 -1.12878 -3.41951 0
M  V30 4689 C 435.551 -2.65665 -3.62963 0
M  V30 4690 C 436.87 -0.696114 -4.3456 0
M  V30 4691 H 433.989 -0.255372 -0.691342 0
M  V30 4692 H 436.631 -1.25831 -1.42361 0
M  V30 4693 H 434.781 -0.652827 -3.82976 0
M  V30 4694 H 436.453 -3.21074 -3.31224 0
M  V30 4695 H 434.696 -3.06878 -3.06608 0
M  V30 4696 H 435.367 -2.90797 -4.69192 0
M  V30 4697 H 437.843 -1.10521 -4.01154 0
M  V30 4698 H 436.719 -1.025 -5.39245 0
M  V30 4699 H 436.98 0.402465 -4.40264 0
M  V30 4700 N 436.039 1.36541 -0.78704 0
M  V30 4701 C 437.316 1.9355 -0.282424 0
M  V30 4702 C 437.696 1.71919 1.22503 0
M  V30 4703 O 437.044 1.07677 2.01539 0
M  V30 4704 C 437.254 3.4246 -0.672462 0
M  V30 4705 C 438.602 4.19582 -0.650863 0
M  V30 4706 O 439.626 3.50889 -0.612789 0
M  V30 4707 O 438.485 5.42106 -0.691623 0
M  V30 4708 H 435.579 0.824091 -0.0693 0
M  V30 4709 H 438.125 1.45736 -0.869423 0
M  V30 4710 H 436.897 3.51851 -1.71221 0
M  V30 4711 H 436.52 3.97556 -0.0592211 0
M  V30 4712 N 437.518 0.538854 1.48102 0
M  V30 4713 C 438.766 0.00798599 2.02098 0
M  V30 4714 C 439.087 -1.33922 1.41739 0
M  V30 4715 O 438.357 -1.86932 0.585934 0
M  V30 4716 H 436.937 -3.62179e-05 0.747 0
M  V30 4717 H 439.599 0.7047 1.81714 0
M  V30 4718 H 438.695 -0.0937672 3.11959 0
M  V30 4719 N 438.996 -1.55193 0.274407 0
M  V30 4720 C 440.242 -1.99877 -0.343086 0
M  V30 4721 C 440.575 -1.16256 -1.55558 0
M  V30 4722 O 439.85 -0.232462 -1.93106 0
M  V30 4723 C 440.133 -3.52706 -0.725965 0
M  V30 4724 C 439.986 -4.47081 0.493818 0
M  V30 4725 C 441.305 -4.11422 -1.56268 0
M  V30 4726 H 438.424 -0.726625 -0.123229 0
M  V30 4727 H 441.066 -1.86136 0.38121 0
M  V30 4728 H 439.216 -3.64546 -1.34307 0
M  V30 4729 H 440.888 -4.47186 1.13237 0
M  V30 4730 H 439.131 -4.1877 1.13201 0
M  V30 4731 H 439.802 -5.51699 0.18217 0
M  V30 4732 H 442.278 -4.02855 -1.04151 0
M  V30 4733 H 441.154 -5.18568 -1.79939 0
M  V30 4734 H 441.415 -3.61607 -2.54348 0
M  V30 4735 N 440.474 -0.00167713 -1.576 0
M  V30 4736 C 441.704 0.692754 -1.94639 0
M  V30 4737 C 442.112 1.67744 -0.87513 0
M  V30 4738 O 441.455 1.8305 0.154382 0
M  V30 4739 C 441.517 1.47881 -3.27676 0
M  V30 4740 C 441.181 0.655518 -4.52274 0
M  V30 4741 C 442.178 -0.0575214 -5.19868 0
M  V30 4742 C 439.863 0.600994 -4.98692 0
M  V30 4743 C 441.857 -0.814052 -6.3218 0
M  V30 4744 C 439.544 -0.15926 -6.10892 0
M  V30 4745 C 440.542 -0.865515 -6.77494 0
M  V30 4746 O 440.23 -1.61336 -7.87544 0
M  V30 4747 H 439.962 0.197792 -0.646417 0
M  V30 4748 H 442.516 -0.049423 -2.05341 0
M  V30 4749 H 440.746 2.2655 -3.13388 0
M  V30 4750 H 442.435 2.05874 -3.49816 0
M  V30 4751 H 443.201 -0.0245611 -4.84994 0
M  V30 4752 H 439.08 1.14025 -4.46676 0
M  V30 4753 H 442.624 -1.36584 -6.84098 0
M  V30 4754 H 438.521 -0.194035 -6.45208 0
M  V30 4755 H 439.289 -1.53025 -8.04068 0
M  V30 4756 N 441.952 1.55251 0.271103 0
M  V30 4757 C 442.884 1.84675 1.35749 0
M  V30 4758 C 443.897 0.731366 1.45447 0
M  V30 4759 O 445.086 1.00924 1.4723 0
M  V30 4760 C 442.186 1.99638 2.73857 0
M  V30 4761 C 441.359 3.30312 2.86727 0
M  V30 4762 C 440.418 3.35318 4.05522 0
M  V30 4763 O 439.444 4.08682 3.96191 0
M  V30 4764 N 440.646 2.62857 5.17577 0
M  V30 4765 H 443.411 2.78445 1.10853 0
M  V30 4766 H 440.972 1.55191 0.461218 0
M  V30 4767 H 442.964 2.00355 3.51625 0
M  V30 4768 H 441.534 1.12725 2.91568 0
M  V30 4769 H 440.754 3.42118 1.95829 0
M  V30 4770 H 442.042 4.16488 2.92258 0
M  V30 4771 H 441.44 2.02939 5.28046 0
M  V30 4772 H 439.997 2.69295 5.93568 0
M  V30 4773 N 443.43 -0.535701 1.48216 0
M  V30 4774 C 444.676 -1.29375 1.56173 0
M  V30 4775 C 445.009 -1.92804 0.232429 0
M  V30 4776 O 444.284 -1.78992 -0.761048 0
M  V30 4777 C 444.567 -2.38747 2.69577 0
M  V30 4778 C 444.42 -1.80046 4.12193 0
M  V30 4779 C 445.739 -3.40551 2.78771 0
M  V30 4780 H 442.858 -0.469027 0.568491 0
M  V30 4781 H 445.5 -0.597358 1.80365 0
M  V30 4782 H 443.65 -2.98147 2.4908 0
M  V30 4783 H 445.322 -1.24742 4.44114 0
M  V30 4784 H 443.565 -1.10609 4.19462 0
M  V30 4785 H 444.236 -2.59212 4.87353 0
M  V30 4786 H 446.712 -2.91099 2.97322 0
M  V30 4787 H 445.588 -4.1448 3.59857 0
M  V30 4788 H 445.849 -4.00746 1.86696 0
M  V30 4789 N 444.908 -1.36708 -0.784132 0
M  V30 4790 C 446.154 -1.31426 -1.54451 0
M  V30 4791 C 446.487 0.10476 -1.93917 0
M  V30 4792 O 445.762 1.05934 -1.6312 0
M  V30 4793 C 446.045 -2.24189 -2.818 0
M  V30 4794 C 445.898 -3.74813 -2.48667 0
M  V30 4795 C 447.217 -2.15626 -3.83658 0
M  V30 4796 H 444.336 -0.478739 -0.560337 0
M  V30 4797 H 446.978 -1.67305 -0.900498 0
M  V30 4798 H 445.128 -1.93722 -3.36755 0
M  V30 4799 H 446.8 -4.15823 -1.99722 0
M  V30 4800 H 445.043 -3.93989 -1.81535 0
M  V30 4801 H 445.714 -4.35138 -3.39646 0
M  V30 4802 H 448.19 -2.42456 -3.38163 0
M  V30 4803 H 447.066 -2.82694 -4.70506 0
M  V30 4804 H 447.327 -1.14522 -4.27009 0
M  V30 4805 N 446.386 1.0089 -1.21074 0
M  V30 4806 C 447.296 2.13039 -0.982425 0
M  V30 4807 C 448.312 1.73881 0.0642161 0
M  V30 4808 O 449.488 2.01012 -0.12496 0
M  V30 4809 C 446.553 3.42377 -0.545803 0
M  V30 4810 C 445.614 3.95731 -1.6642 0
M  V30 4811 C 444.847 5.18896 -1.24832 0
M  V30 4812 O 445.07 5.70273 -0.120265 0
M  V30 4813 O 444.004 5.65597 -2.05873 0
M  V30 4814 H 447.83 2.35175 -1.92163 0
M  V30 4815 H 445.415 1.1142 -0.995285 0
M  V30 4816 H 447.297 4.20244 -0.311912 0
M  V30 4817 H 445.972 3.21639 0.364727 0
M  V30 4818 H 444.879 3.19108 -1.95246 0
M  V30 4819 H 446.212 4.20872 -2.55201 0
M  V30 4820 N 447.864 1.01787 1.20321 0
M  V30 4821 C 449.094 0.72614 1.93419 0
M  V30 4822 C 449.502 -0.717317 1.75075 0
M  V30 4823 O 448.845 -1.49836 1.06278 0
M  V30 4824 C 448.907 0.983621 3.45782 0
M  V30 4825 C 448.571 2.41645 3.87888 0
M  V30 4826 C 449.568 3.39732 3.93545 0
M  V30 4827 C 447.253 2.75752 4.19841 0
M  V30 4828 C 449.247 4.69988 4.30569 0
M  V30 4829 C 446.934 4.06221 4.56539 0
M  V30 4830 C 447.932 5.0315 4.61876 0
M  V30 4831 O 447.62 6.31284 4.97731 0
M  V30 4832 H 447.352 0.265824 0.621541 0
M  V30 4833 H 449.906 1.3623 1.53722 0
M  V30 4834 H 448.136 0.290301 3.85609 0
M  V30 4835 H 449.825 0.683279 4.00108 0
M  V30 4836 H 450.591 3.14718 3.69022 0
M  V30 4837 H 446.47 2.00993 4.14877 0
M  V30 4838 H 450.014 5.45642 4.3465 0
M  V30 4839 H 445.911 4.31013 4.80518 0
M  V30 4840 H 446.679 6.35591 5.15719 0
M  V30 4841 N 449.342 -1.36122 0.79427 0
M  V30 4842 C 450.567 -2.03891 0.379871 0
M  V30 4843 C 450.992 -1.59488 -0.997251 0
M  V30 4844 O 450.35 -0.765652 -1.64339 0
M  V30 4845 C 450.398 -3.57687 0.457442 0
M  V30 4846 O 449.502 -4.08931 -0.5338 0
M  V30 4847 H 448.843 -0.6443 0.160541 0
M  V30 4848 H 451.373 -1.73976 1.07673 0
M  V30 4849 H 451.383 -4.06721 0.322792 0
M  V30 4850 H 450.058 -3.89357 1.46199 0
M  V30 4851 H 448.635 -3.71154 -0.360409 0
M  V30 4852 N 450.82 -0.546701 -1.47814 0
M  V30 4853 C 451.73 0.21026 -2.33656 0
M  V30 4854 C 452.746 0.922413 -1.47538 0
M  V30 4855 O 453.922 0.893652 -1.80488 0
M  V30 4856 C 450.987 1.23348 -3.24016 0
M  V30 4857 C 450.048 0.529883 -4.26017 0
M  V30 4858 C 449.281 1.50435 -5.12059 0
M  V30 4859 O 449.504 2.73837 -5.00369 0
M  V30 4860 O 448.438 1.03459 -5.92942 0
M  V30 4861 H 452.264 -0.493605 -2.99662 0
M  V30 4862 H 449.849 -0.307427 -1.46203 0
M  V30 4863 H 451.731 1.82438 -3.79861 0
M  V30 4864 H 450.406 1.91945 -2.60651 0
M  V30 4865 H 449.313 -0.101948 -3.73961 0
M  V30 4866 H 450.646 -0.11445 -4.92067 0
M  V30 4867 N 452.299 1.55045 -0.282633 0
M  V30 4868 C 453.548 1.98938 0.332667 0
M  V30 4869 C 453.861 1.17455 1.56409 0
M  V30 4870 O 455.067 1.51527 2.25282 0
M  V30 4871 C 453.523 3.54105 0.643226 0
M  V30 4872 C 453.131 4.44374 -0.568814 0
M  V30 4873 C 454.875 4.06569 1.22074 0
M  V30 4874 C 452.782 5.90943 -0.232426 0
M  V30 4875 H 451.712 0.743043 0.128075 0
M  V30 4876 H 454.363 1.79341 -0.388464 0
M  V30 4877 H 452.745 3.69532 1.42346 0
M  V30 4878 H 453.919 4.40718 -1.34551 0
M  V30 4879 H 452.234 4.02585 -1.06369 0
M  V30 4880 H 454.831 5.13626 1.48635 0
M  V30 4881 H 455.174 3.56057 2.15707 0
M  V30 4882 H 455.707 3.94612 0.502621 0
M  V30 4883 H 452.446 6.45567 -1.13683 0
M  V30 4884 H 451.966 5.9765 0.507357 0
M  V30 4885 H 453.645 6.4677 0.172657 0
M  V30 4886 N 453.777 0.010035 1.57597 0
M  V30 4887 C 455.002 -0.687021 1.95691 0
M  V30 4888 C 455.427 -1.65952 0.885519 0
M  V30 4889 O 454.785 -1.80633 -0.15543 0
M  V30 4890 C 454.833 -1.3864 3.32884 0
M  V30 4891 O 453.937 -2.50115 3.27897 0
M  V30 4892 H 453.278 -0.181989 0.638573 0
M  V30 4893 H 455.808 0.0662122 2.04493 0
M  V30 4894 H 455.818 -1.74754 3.6868 0
M  V30 4895 H 454.493 -0.673411 4.10412 0
M  V30 4896 H 453.07 -2.16253 3.03791 0
M  V30 4897 N 455.255 -1.55392 -0.262866 0
M  V30 4898 C 456.185 -1.91978 -1.32917 0
M  V30 4899 C 457.166 -0.7828 -1.51017 0
M  V30 4900 O 458.351 -1.04178 -1.63892 0
M  V30 4901 C 455.481 -2.20055 -2.68687 0
M  V30 4902 C 454.435 -3.35854 -2.65304 0
M  V30 4903 C 453.761 -3.49435 -4.04721 0
M  V30 4904 C 455.061 -4.71977 -2.23685 0
M  V30 4905 H 456.755 -2.81292 -1.02544 0
M  V30 4906 H 454.301 -1.3534 -0.491846 0
M  V30 4907 H 456.254 -2.44237 -3.43404 0
M  V30 4908 H 454.978 -1.27551 -3.00663 0
M  V30 4909 H 453.637 -3.11655 -1.93045 0
M  V30 4910 H 453.285 -2.54379 -4.33936 0
M  V30 4911 H 452.985 -4.27297 -4.0335 0
M  V30 4912 H 454.509 -3.7592 -4.81161 0
M  V30 4913 H 455.923 -4.95637 -2.88127 0
M  V30 4914 H 454.32 -5.52828 -2.33456 0
M  V30 4915 H 455.39 -4.70115 -1.18827 0
M  V30 4916 N 456.733 0.527833 -1.48498 0
M  V30 4917 C 457.696 1.61439 -1.62696 0
M  V30 4918 C 458.696 1.52824 -0.500136 0
M  V30 4919 O 459.886 1.56456 -0.765976 0
M  V30 4920 C 457.018 3.01063 -1.59918 0
M  V30 4921 H 458.211 1.50189 -2.59583 0
M  V30 4922 H 455.764 0.750055 -1.37127 0
M  V30 4923 H 456.499 3.17818 -0.645163 0
M  V30 4924 H 456.284 3.08725 -2.41726 0
M  V30 4925 H 457.774 3.80057 -1.73051 0
M  V30 4926 N 458.211 1.37122 0.776871 0
M  V30 4927 C 459.439 1.3523 1.5659 0
M  V30 4928 C 459.854 -0.0635518 1.88693 0
M  V30 4929 O 459.211 -1.02394 1.51069 0
M  V30 4930 C 459.262 2.18583 2.8793 0
M  V30 4931 O 458.983 3.5465 2.57206 0
M  V30 4932 C 460.484 2.24612 3.82183 0
M  V30 4933 H 457.704 0.4634 0.485285 0
M  V30 4934 H 460.248 1.80392 0.963266 0
M  V30 4935 H 458.403 1.76943 3.4463 0
M  V30 4936 H 458.817 3.98286 3.41275 0
M  V30 4937 H 460.291 2.87267 4.71361 0
M  V30 4938 H 460.768 1.25309 4.20944 0
M  V30 4939 H 461.374 2.66543 3.31414 0
M  V30 4940 N 459.689 -1.00246 1.21608 0
M  V30 4941 C 460.652 -2.07233 0.979133 0
M  V30 4942 C 461.652 -1.6072 -0.0508219 0
M  V30 4943 O 462.842 -1.73196 0.186712 0
M  V30 4944 C 459.974 -3.37546 0.477016 0
M  V30 4945 H 461.167 -2.29687 1.92831 0
M  V30 4946 H 458.72 -1.17261 1.03342 0
M  V30 4947 H 459.455 -3.20773 -0.476966 0
M  V30 4948 H 459.24 -3.72638 1.21997 0
M  V30 4949 H 460.73 -4.16285 0.331181 0
M  V30 4950 N 461.167 -1.02423 -1.1978 0
M  V30 4951 C 462.099 -0.559152 -2.22275 0
M  V30 4952 C 463.112 0.36251 -1.58713 0
M  V30 4953 O 464.301 0.159641 -1.77785 0
M  V30 4954 C 461.401 0.205094 -3.38279 0
M  V30 4955 C 460.574 -0.720361 -4.31427 0
M  V30 4956 C 459.633 -0.00234368 -5.262 0
M  V30 4957 O 458.659 -0.627378 -5.65732 0
M  V30 4958 N 459.861 1.26996 -5.66438 0
M  V30 4959 H 462.626 -1.44064 -2.62804 0
M  V30 4960 H 460.187 -0.902692 -1.34399 0
M  V30 4961 H 462.179 0.694868 -3.9869 0
M  V30 4962 H 460.749 0.987947 -2.96578 0
M  V30 4963 H 459.969 -1.39031 -3.68869 0
M  V30 4964 H 461.257 -1.3495 -4.90577 0
M  V30 4965 H 460.655 1.79858 -5.36347 0
M  V30 4966 H 459.212 1.70432 -6.29123 0
M  V30 4967 N 462.645 1.35699 -0.801477 0
M  V30 4968 C 463.592 2.29876 -0.206294 0
M  V30 4969 C 464.562 1.52565 0.656752 0
M  V30 4970 O 465.747 1.81024 0.602906 0
M  V30 4971 C 462.887 3.39052 0.643272 0
M  V30 4972 C 462 4.31335 -0.239644 0
M  V30 4973 C 461.135 5.27599 0.61744 0
M  V30 4974 C 460.174 6.11521 -0.26619 0
M  V30 4975 N 459.311 6.99938 0.550571 0
M  V30 4976 H 464.151 2.80187 -1.01484 0
M  V30 4977 H 461.688 1.37902 -0.511997 0
M  V30 4978 H 463.646 4.0101 1.15094 0
M  V30 4979 H 462.276 2.9003 1.41713 0
M  V30 4980 H 461.328 3.70426 -0.865381 0
M  V30 4981 H 462.64 4.90243 -0.919985 0
M  V30 4982 H 461.794 5.94906 1.19045 0
M  V30 4983 H 460.533 4.69176 1.33137 0
M  V30 4984 H 459.538 5.43166 -0.851507 0
M  V30 4985 H 460.763 6.72022 -0.9779 0
M  V30 4986 H 458.709 6.44008 1.24856 0
M  V30 4987 H 458.626 7.55966 -0.071832 0
M  V30 4988 H 459.894 7.71599 1.10702 0
M  V30 4989 N 464.123 0.554532 1.47522 0
M  V30 4990 C 465.539 0.214107 1.58157 0
M  V30 4991 C 465.739 -1.28331 1.55349 0
M  V30 4992 O 464.795 -2.06329 1.45549 0
M  V30 4993 C 466.108 0.838391 2.88776 0
M  V30 4994 C 467.656 0.809374 3.02354 0
M  V30 4995 C 468.131 1.41268 4.35669 0
M  V30 4996 N 469.622 1.37574 4.42298 0
M  V30 4997 C 470.357 1.8122 5.4401 0
M  V30 4998 N 469.853 2.3271 6.52547 0
M  V30 4999 N 471.646 1.72307 5.35039 0
M  V30 5000 H 463.797 1.52744 1.4759 0
M  V30 5001 H 466.06 0.636812 0.702264 0
M  V30 5002 H 465.766 1.89065 2.96559 0
M  V30 5003 H 465.64 0.329847 3.75755 0
M  V30 5004 H 468.027 -0.234187 2.94169 0
M  V30 5005 H 468.108 1.35565 2.16924 0
M  V30 5006 H 467.752 2.45529 4.4461 0
M  V30 5007 H 467.682 0.841871 5.19827 0
M  V30 5008 H 470.173 0.999081 3.64454 0
M  V30 5009 H 470.486 2.63944 7.26329 0
M  V30 5010 H 468.831 2.36719 6.53444 0
M  V30 5011 H 472.022 1.3186 4.49144 0
M  V30 5012 H 472.195 2.06641 6.14169 0
M  V30 5013 N 465.601 -1.54893 0.290851 0
M  V30 5014 C 466.826 -2.04804 -0.32712 0
M  V30 5015 C 467.251 -1.16721 -1.47506 0
M  V30 5016 O 466.609 -0.169107 -1.8051 0
M  V30 5017 C 466.657 -3.52268 -0.770689 0
M  V30 5018 O 465.761 -3.67236 -1.87647 0
M  V30 5019 H 465.102 -0.660789 -0.0652227 0
M  V30 5020 H 467.632 -2.00036 0.429739 0
M  V30 5021 H 467.642 -3.9393 -1.06223 0
M  V30 5022 H 466.317 -4.15843 0.069096 0
M  V30 5023 H 464.894 -3.37479 -1.58626 0
M  V30 5024 N 467.08 -0.0183926 -1.57589 0
M  V30 5025 C 468.305 0.676634 -1.96052 0
M  V30 5026 C 468.73 1.6548 -0.894307 0
M  V30 5027 O 468.088 1.80712 0.145849 0
M  V30 5028 C 468.136 1.36872 -3.33614 0
M  V30 5029 O 467.24 2.48372 -3.29219 0
M  V30 5030 H 466.581 0.1786 -0.63953 0
M  V30 5031 H 469.111 -0.077056 -2.04455 0
M  V30 5032 H 469.121 1.72797 -3.69601 0
M  V30 5033 H 467.796 0.651636 -4.10763 0
M  V30 5034 H 466.373 2.14639 -3.04934 0
M  V30 5035 N 468.558 1.5553 0.254621 0
M  V30 5036 C 469.835 1.6774 1.00611 0
M  V30 5037 C 470.215 0.555993 2.03647 0
M  V30 5038 O 469.563 -0.441583 2.24193 0
M  V30 5039 C 469.773 3.07725 1.6464 0
M  V30 5040 C 471.121 3.66074 2.15116 0
M  V30 5041 O 472.145 3.10476 1.74595 0
M  V30 5042 O 471.004 4.63526 2.89493 0
M  V30 5043 H 468.098 0.681958 0.467828 0
M  V30 5044 H 470.644 1.67863 0.24902 0
M  V30 5045 H 469.416 3.80792 0.900734 0
M  V30 5046 H 469.039 3.1158 2.46989 0
M  V30 5047 N 470.036 -0.519951 1.48776 0
M  V30 5048 C 471.284 -1.2727 1.56993 0
M  V30 5049 C 471.605 -1.9339 0.25004 0
M  V30 5050 O 470.875 -1.81822 -0.729216 0
M  V30 5051 H 469.455 -0.472732 0.578389 0
M  V30 5052 H 472.117 -0.604234 1.85297 0
M  V30 5053 H 471.213 -2.04669 2.3562 0
M  V30 5054 N 471.514 -1.37532 -0.769588 0
M  V30 5055 C 472.93 -1.18379 -1.07045 0
M  V30 5056 C 473.13 -0.0214312 -2.01489 0
M  V30 5057 O 472.186 0.637809 -2.44312 0
M  V30 5058 C 473.499 -2.50338 -1.66588 0
M  V30 5059 C 475.047 -2.56879 -1.78835 0
M  V30 5060 C 475.522 -3.88974 -2.41792 0
M  V30 5061 N 477.013 -3.90428 -2.4924 0
M  V30 5062 C 477.748 -4.89388 -2.98809 0
M  V30 5063 N 477.244 -5.98745 -3.48535 0
M  V30 5064 N 479.037 -4.76791 -2.97703 0
M  V30 5065 H 471.188 -2.11921 -0.142541 0
M  V30 5066 H 473.451 -0.939608 -0.125863 0
M  V30 5067 H 473.157 -3.35767 -1.0466 0
M  V30 5068 H 473.031 -2.67583 -2.65856 0
M  V30 5069 H 475.418 -1.71856 -2.39895 0
M  V30 5070 H 475.499 -2.43516 -0.783166 0
M  V30 5071 H 475.143 -4.74412 -1.81371 0
M  V30 5072 H 475.073 -3.99641 -3.4292 0
M  V30 5073 H 477.564 -3.11433 -2.14052 0
M  V30 5074 H 477.877 -6.70205 -3.84767 0
M  V30 5075 H 476.222 -6.02387 -3.46634 0
M  V30 5076 H 479.413 -3.90478 -2.58157 0
M  V30 5077 H 479.586 -5.54069 -3.36024 0
M  V30 5078 N 472.992 0.995999 -1.22138 0
M  V30 5079 C 473.922 2.10387 -1.01289 0
M  V30 5080 C 474.903 1.69975 0.0651454 0
M  V30 5081 O 476.088 1.9396 -0.0964628 0
M  V30 5082 C 473.218 3.42312 -0.586517 0
M  V30 5083 C 472.172 3.96558 -1.61014 0
M  V30 5084 C 471.498 5.24494 -1.0397 0
M  V30 5085 C 472.798 4.27595 -2.99933 0
M  V30 5086 H 474.492 2.28086 -1.93951 0
M  V30 5087 H 472.038 1.09607 -0.933928 0
M  V30 5088 H 473.991 4.19223 -0.427793 0
M  V30 5089 H 472.715 3.24431 0.375761 0
M  V30 5090 H 471.374 3.21776 -1.75658 0
M  V30 5091 H 471.022 5.02953 -0.0688703 0
M  V30 5092 H 470.722 5.61755 -1.72352 0
M  V30 5093 H 472.246 6.04042 -0.892494 0
M  V30 5094 H 473.66 4.95315 -2.8868 0
M  V30 5095 H 472.057 4.76021 -3.6541 0
M  V30 5096 H 473.127 3.35498 -3.50099 0
M  V30 5097 N 474.47 1.03057 1.19235 0
M  V30 5098 C 475.4 0.633497 2.24742 0
M  V30 5099 C 476.381 -0.358335 1.66283 0
M  V30 5100 O 477.566 -0.240676 1.92703 0
M  V30 5101 C 474.696 -0.0147648 3.47297 0
M  V30 5102 C 473.65 0.899527 4.18441 0
M  V30 5103 C 472.976 0.116281 5.34574 0
M  V30 5104 C 474.276 2.21404 4.73051 0
M  V30 5105 H 475.97 1.5155 2.58211 0
M  V30 5106 H 473.516 0.73014 1.24117 0
M  V30 5107 H 475.469 -0.304202 4.20301 0
M  V30 5108 H 474.193 -0.931577 3.13032 0
M  V30 5109 H 472.852 1.17319 3.47321 0
M  V30 5110 H 472.5 -0.802619 4.96555 0
M  V30 5111 H 472.2 0.725293 5.83107 0
M  V30 5112 H 473.724 -0.166376 6.10373 0
M  V30 5113 H 475.138 1.98601 5.37802 0
M  V30 5114 H 473.535 2.77512 5.32078 0
M  V30 5115 H 474.605 2.86752 3.91026 0
M  V30 5116 N 475.948 -1.35272 0.808662 0
M  V30 5117 C 477.195 -1.98709 0.390003 0
M  V30 5118 C 477.523 -1.64148 -1.04335 0
M  V30 5119 O 476.778 -0.897797 -1.73891 0
M  V30 5120 C 477.077 -3.53556 0.522798 0
M  V30 5121 C 476.743 -4.0799 1.91977 0
M  V30 5122 C 475.405 -4.22568 2.30195 0
M  V30 5123 C 477.757 -4.37442 2.83361 0
M  V30 5124 C 475.085 -4.63918 3.59162 0
M  V30 5125 C 477.437 -4.80232 4.11776 0
M  V30 5126 C 476.101 -4.93016 4.49991 0
M  V30 5127 H 475.371 -0.727127 0.142712 0
M  V30 5128 H 478.018 -1.6145 1.02985 0
M  V30 5129 H 476.323 -3.91287 -0.200494 0
M  V30 5130 H 478.02 -4.00598 0.179608 0
M  V30 5131 H 474.61 -3.97096 1.61284 0
M  V30 5132 H 478.794 -4.25731 2.55083 0
M  V30 5133 H 474.05 -4.72005 3.88615 0
M  V30 5134 H 478.224 -5.01982 4.82687 0
M  V30 5135 H 475.851 -5.24814 5.49976 0
M  V30 5136 N 477.426 -0.562348 -1.47226 0
M  V30 5137 C 478.374 0.195476 -2.31777 0
M  V30 5138 C 479.368 0.90433 -1.43242 0
M  V30 5139 O 480.574 0.825031 -1.59979 0
M  V30 5140 H 476.949 0.0819095 -0.747526 0
M  V30 5141 H 478.92 -0.536753 -2.93533 0
M  V30 5142 C 477.669 1.20902 -3.26003 0
M  V30 5143 H 476.992 0.672997 -3.94095 0
M  V30 5144 H 478.432 1.71006 -3.87986 0
M  V30 5145 C 476.891 2.25955 -2.49891 0
M  V30 5146 O 477.421 3.32969 -2.2471 0
M  V30 5147 N 475.627 2.00019 -2.1081 0
M  V30 5148 H 475.174 1.13006 -2.31489 0
M  V30 5149 H 475.132 2.70523 -1.60201 0
M  V30 5150 N 478.904 1.54736 -0.299062 0
M  V30 5151 C 479.867 2.22127 0.565012 0
M  V30 5152 C 480.867 1.20669 1.06281 0
M  V30 5153 O 482.057 1.45417 0.959145 0
M  V30 5154 C 479.189 2.90611 1.78208 0
M  V30 5155 H 480.382 2.99891 -0.0237448 0
M  V30 5156 H 477.935 1.5622 -0.0498788 0
M  V30 5157 H 478.67 2.16921 2.41072 0
M  V30 5158 H 478.455 3.64984 1.43281 0
M  V30 5159 H 479.945 3.42026 2.396 0
M  V30 5160 N 480.382 0.0267497 1.57577 0
M  V30 5161 C 481.63 -0.651116 1.91324 0
M  V30 5162 C 481.951 -1.72804 0.90353 0
M  V30 5163 O 481.221 -1.95822 -0.0552946 0
M  V30 5164 H 479.801 -0.243491 0.706202 0
M  V30 5165 H 482.463 0.0739935 1.94759 0
M  V30 5166 H 481.559 -1.10536 2.9187 0
M  V30 5167 N 481.861 -1.55662 -0.24637 0
M  V30 5168 C 482.809 -1.91186 -1.3248 0
M  V30 5169 C 483.803 -0.790996 -1.49799 0
M  V30 5170 O 485.009 -0.975617 -1.51267 0
M  V30 5171 H 481.384 -0.607207 -0.443626 0
M  V30 5172 H 483.355 -2.81221 -0.997853 0
M  V30 5173 C 482.104 -2.22349 -2.67313 0
M  V30 5174 H 481.427 -3.08097 -2.54786 0
M  V30 5175 H 482.867 -2.51107 -3.41645 0
M  V30 5176 C 481.326 -1.04001 -3.20446 0
M  V30 5177 O 481.856 -0.28828 -4.00664 0
M  V30 5178 N 480.062 -0.830494 -2.7848 0
M  V30 5179 H 479.609 -1.4435 -2.13356 0
M  V30 5180 H 479.567 -0.0403258 -3.14374 0
M  V30 5181 N 483.339 0.512053 -1.4905 0
M  V30 5182 C 484.588 1.26343 -1.57227 0
M  V30 5183 C 484.901 1.93876 -0.259155 0
M  V30 5184 O 486.107 2.70612 -0.219358 0
M  V30 5185 C 484.563 2.29343 -2.77362 0
M  V30 5186 C 484.171 1.67799 -4.15388 0
M  V30 5187 C 485.915 3.05378 -2.94864 0
M  V30 5188 C 483.822 2.68845 -5.2676 0
M  V30 5189 H 482.752 0.475231 -0.585382 0
M  V30 5190 H 485.403 0.53862 -1.75417 0
M  V30 5191 H 483.785 3.04938 -2.52643 0
M  V30 5192 H 484.959 0.982715 -4.50199 0
M  V30 5193 H 483.274 1.04194 -4.03153 0
M  V30 5194 H 485.871 3.80921 -3.75238 0
M  V30 5195 H 486.214 3.62327 -2.05 0
M  V30 5196 H 486.747 2.36898 -3.19569 0
M  V30 5197 H 483.486 2.16692 -6.18647 0
M  V30 5198 H 483.006 3.36647 -4.96416 0
M  V30 5199 H 484.685 3.31487 -5.5563 0
M  V30 5200 N 484.817 1.37938 0.762283 0
M  V30 5201 C 485.78 1.34279 1.85747 0
M  V30 5202 C 486.78 0.244969 1.58923 0
M  V30 5203 O 487.97 0.501365 1.66829 0
M  V30 5204 C 485.102 1.08833 3.23061 0
M  V30 5205 H 486.295 2.31705 1.90401 0
M  V30 5206 H 483.848 1.23105 0.963057 0
M  V30 5207 H 484.583 0.119767 3.24079 0
M  V30 5208 H 484.368 1.88306 3.43923 0
M  V30 5209 H 485.858 1.08946 4.03138 0
M  V30 5210 N 486.295 -0.989507 1.22664 0
M  V30 5211 C 487.243 -2.10148 0.997035 0
M  V30 5212 C 488.237 -1.6929 -0.0609783 0
M  V30 5213 O 489.443 -1.79766 0.0917523 0
M  V30 5214 H 485.818 -0.687256 0.305259 0
M  V30 5215 H 487.789 -2.26685 1.94053 0
M  V30 5216 C 486.538 -3.4257 0.595085 0
M  V30 5217 H 485.861 -3.74453 1.40089 0
M  V30 5218 H 487.301 -4.21344 0.473869 0
M  V30 5219 C 485.76 -3.29638 -0.695725 0
M  V30 5220 O 486.29 -3.61709 -1.74727 0
M  V30 5221 N 484.496 -2.82814 -0.668173 0
M  V30 5222 H 484.043 -2.56914 0.18787 0
M  V30 5223 H 484.001 -2.74544 -1.5321 0
M  V30 5224 N 487.773 -1.03688 -1.18687 0
M  V30 5225 C 488.723 -0.595067 -2.20098 0
M  V30 5226 C 489.707 0.360465 -1.5681 0
M  V30 5227 O 490.899 0.180136 -1.76081 0
M  V30 5228 C 488.028 0.0444495 -3.43271 0
M  V30 5229 C 487.114 -0.934002 -4.13687 0
M  V30 5230 N 487.505 -2.09957 -4.60165 0
M  V30 5231 C 485.803 -0.759177 -4.39491 0
M  V30 5232 C 486.504 -2.71735 -5.1433 0
M  V30 5233 N 485.48 -1.99638 -5.05614 0
M  V30 5234 H 489.282 -1.48336 -2.5372 0
M  V30 5235 H 486.796 -0.904949 -1.3485 0
M  V30 5236 H 488.793 0.37864 -4.15177 0
M  V30 5237 H 487.453 0.928325 -3.11147 0
M  V30 5238 H 488.464 -2.47863 -4.54735 0
M  V30 5239 H 485.141 0.0749292 -4.17433 0
M  V30 5240 H 486.531 -3.70492 -5.60523 0
M  V30 5241 N 489.251 1.34841 -0.815825 0
M  V30 5242 C 490.498 1.98499 -0.400535 0
M  V30 5243 C 490.826 1.64699 1.03463 0
M  V30 5244 O 490.081 0.907006 1.73412 0
M  V30 5245 C 490.38 3.53273 -0.541541 0
M  V30 5246 C 490.046 4.06966 -1.94138 0
M  V30 5247 C 488.708 4.21341 -2.32433 0
M  V30 5248 C 491.06 4.35933 -2.85677 0
M  V30 5249 C 488.388 4.62007 -3.61617 0
M  V30 5250 C 490.74 4.78042 -4.14317 0
M  V30 5251 C 489.404 4.90622 -4.52599 0
M  V30 5252 H 488.674 0.72636 -0.146566 0
M  V30 5253 H 491.321 1.60902 -1.0384 0
M  V30 5254 H 489.626 3.91387 0.179741 0
M  V30 5255 H 491.323 4.00497 -0.20085 0
M  V30 5256 H 487.913 3.96235 -1.63388 0
M  V30 5257 H 492.097 4.24372 -2.57337 0
M  V30 5258 H 487.353 4.69937 -3.91113 0
M  V30 5259 H 491.527 4.99415 -4.85342 0
M  V30 5260 H 489.154 5.2189 -5.52752 0
M  V30 5261 N 490.729 0.570148 1.46925 0
M  V30 5262 C 491.976 0.0509529 2.02436 0
M  V30 5263 C 492.304 -1.30405 1.44308 0
M  V30 5264 O 491.559 -1.86493 0.593198 0
M  V30 5265 C 491.858 -0.0780336 3.57315 0
M  V30 5266 C 491.524 1.20775 4.34424 0
M  V30 5267 C 490.186 1.56004 4.5521 0
M  V30 5268 C 492.538 2.0592 4.78797 0
M  V30 5269 C 489.866 2.76201 5.17619 0
M  V30 5270 C 492.218 3.25332 5.42533 0
M  V30 5271 C 490.882 3.60859 5.61549 0
M  V30 5272 H 490.152 0.018645 0.740765 0
M  V30 5273 H 492.799 0.744262 1.76445 0
M  V30 5274 H 491.104 -0.854394 3.82371 0
M  V30 5275 H 492.801 -0.495312 3.97929 0
M  V30 5276 H 489.391 0.923469 4.18533 0
M  V30 5277 H 493.575 1.80008 4.62505 0
M  V30 5278 H 488.831 3.0388 5.30535 0
M  V30 5279 H 493.005 3.91586 5.75876 0
M  V30 5280 H 490.632 4.54088 6.09678 0
M  V30 5281 N 492.207 -1.54576 0.307264 0
M  V30 5282 C 493.435 -2.04675 -0.302597 0
M  V30 5283 C 493.85 -1.18425 -1.47041 0
M  V30 5284 O 493.207 -0.211257 -1.81273 0
M  V30 5285 C 493.258 -3.53575 -0.752801 0
M  V30 5286 O 492.979 -4.36547 0.368536 0
M  V30 5287 C 494.48 -4.19699 -1.42717 0
M  V30 5288 H 491.7 -0.66786 -0.0648374 0
M  V30 5289 H 494.244 -1.99516 0.448716 0
M  V30 5290 H 492.399 -3.59074 -1.45412 0
M  V30 5291 H 492.813 -5.24497 0.0168937 0
M  V30 5292 H 494.287 -5.25388 -1.69327 0
M  V30 5293 H 494.764 -3.69815 -2.36925 0
M  V30 5294 H 495.37 -4.18293 -0.768856 0
M  V30 5295 N 493.685 -0.035106 -1.57561 0
M  V30 5296 C 494.931 0.64318 -1.92331 0
M  V30 5297 C 495.264 1.71434 -0.912368 0
M  V30 5298 O 494.539 1.94395 0.0640303 0
M  V30 5299 C 494.822 1.25411 -3.37556 0
M  V30 5300 C 494.675 0.192109 -4.4939 0
M  V30 5301 C 495.994 2.17041 -3.82859 0
M  V30 5302 H 493.113 0.232341 -0.699419 0
M  V30 5303 H 495.755 -0.0935889 -1.89769 0
M  V30 5304 H 493.905 1.88205 -3.39869 0
M  V30 5305 H 495.577 -0.438849 -4.59208 0
M  V30 5306 H 493.82 -0.481725 -4.31117 0
M  V30 5307 H 494.491 0.659292 -5.48049 0
M  V30 5308 H 496.967 1.64228 -3.8232 0
M  V30 5309 H 495.843 2.56738 -4.85157 0
M  V30 5310 H 496.104 3.06401 -3.18702 0
M  V30 5311 N 495.163 1.55791 0.238111 0
M  V30 5312 C 496.574 1.68383 0.806472 0
M  V30 5313 C 496.925 0.634157 1.85669 0
M  V30 5314 O 496.05 -0.217913 2.153 0
M  V30 5315 C 496.645 3.05268 1.46959 0
M  V30 5316 C 495.204 3.1977 1.98555 0
M  V30 5317 C 494.351 2.64279 0.839763 0
M  V30 5318 H 497.302 1.58694 0.0137535 0
M  V30 5319 H 497.323 3.00203 2.33792 0
M  V30 5320 H 496.835 3.81643 0.704993 0
M  V30 5321 H 494.936 2.48234 2.77868 0
M  V30 5322 H 495.049 4.26788 2.17689 0
M  V30 5323 H 493.413 2.22329 1.24265 0
M  V30 5324 H 494.196 3.43187 0.0881032 0
M  V30 5325 N 496.642 -0.504142 1.49319 0
M  V30 5326 C 497.889 -1.25846 1.58647 0
M  V30 5327 C 498.217 -1.92592 0.27177 0
M  V30 5328 O 497.472 -1.81167 -0.74007 0
M  V30 5329 C 497.771 -2.35021 2.69258 0
M  V30 5330 C 497.437 -1.85755 4.1086 0
M  V30 5331 C 496.099 -1.72038 4.49395 0
M  V30 5332 C 498.451 -1.48844 4.99495 0
M  V30 5333 C 495.779 -1.19783 5.74342 0
M  V30 5334 C 498.131 -0.980422 6.24956 0
M  V30 5335 C 496.795 -0.829622 6.62324 0
M  V30 5336 H 496.065 -0.460505 0.580531 0
M  V30 5337 H 498.712 -0.559716 1.83138 0
M  V30 5338 H 497.017 -3.10672 2.38726 0
M  V30 5339 H 498.714 -2.93083 2.73685 0
M  V30 5340 H 495.304 -1.9739 3.80441 0
M  V30 5341 H 499.488 -1.5829 4.70381 0
M  V30 5342 H 494.744 -1.06817 6.01997 0
M  V30 5343 H 498.918 -0.685608 6.93017 0
M  V30 5344 H 496.545 -0.42253 7.59025 0
M  V30 5345 N 498.12 -1.38341 -0.754957 0
M  V30 5346 C 499.05 -1.38176 -1.88227 0
M  V30 5347 C 500.031 -0.247873 -1.68284 0
M  V30 5348 O 501.216 -0.45075 -1.88896 0
M  V30 5349 C 498.346 -1.20471 -3.25736 0
M  V30 5350 C 497.3 -2.3105 -3.60278 0
M  V30 5351 C 496.626 -1.98452 -4.96509 0
M  V30 5352 C 497.926 -3.73305 -3.65295 0
M  V30 5353 H 499.62 -2.32512 -1.88622 0
M  V30 5354 H 497.166 -1.1192 -0.906082 0
M  V30 5355 H 499.119 -1.18982 -4.04254 0
M  V30 5356 H 497.843 -0.225965 -3.25817 0
M  V30 5357 H 496.502 -2.31723 -2.84078 0
M  V30 5358 H 496.15 -0.990641 -4.93148 0
M  V30 5359 H 495.85 -2.7251 -5.20588 0
M  V30 5360 H 497.374 -1.98578 -5.77407 0
M  V30 5361 H 498.788 -3.7467 -4.3393 0
M  V30 5362 H 497.185 -4.46557 -4.00883 0
M  V30 5363 H 498.255 -4.05719 -2.65556 0
M  V30 5364 N 499.598 0.982988 -1.23187 0
M  V30 5365 C 501.014 1.2487 -0.993967 0
M  V30 5366 C 501.214 1.99155 0.306498 0
M  V30 5367 O 500.27 2.30688 1.0266 0
M  V30 5368 C 501.583 2.05078 -2.19917 0
M  V30 5369 C 503.131 2.18227 -2.2438 0
M  V30 5370 C 503.606 3.01825 -3.44479 0
M  V30 5371 N 505.097 3.09411 -3.44702 0
M  V30 5372 C 505.832 3.74412 -4.34285 0
M  V30 5373 N 505.328 4.41259 -5.341 0
M  V30 5374 N 507.121 3.71273 -4.22035 0
M  V30 5375 H 499.272 0.485253 -2.06783 0
M  V30 5376 H 501.535 0.276979 -0.906635 0
M  V30 5377 H 501.241 1.57867 -3.14279 0
M  V30 5378 H 501.115 3.05829 -2.2079 0
M  V30 5379 H 503.502 2.64648 -1.30559 0
M  V30 5380 H 503.583 1.16873 -2.2754 0
M  V30 5381 H 503.227 2.56102 -4.38605 0
M  V30 5382 H 503.157 4.03342 -3.38559 0
M  V30 5383 H 505.648 2.61845 -2.7248 0
M  V30 5384 H 505.961 4.88629 -5.98717 0
M  V30 5385 H 504.306 4.39975 -5.38002 0
M  V30 5386 H 507.497 3.18217 -3.43301 0
M  V30 5387 H 507.67 4.21649 -4.92053 0
M  V30 5388 N 501.076 1.04316 1.18135 0
M  V30 5389 C 502.353 0.662166 1.84051 0
M  V30 5390 C 502.733 -0.858169 1.9287 0
M  V30 5391 O 502.081 -1.76062 1.45652 0
M  V30 5392 C 502.291 1.3409 3.22212 0
M  V30 5393 C 503.639 1.4733 3.9822 0
M  V30 5394 O 504.663 1.29921 3.31661 0
M  V30 5395 O 503.522 1.75722 5.17479 0
M  V30 5396 H 500.616 0.232005 0.79379 0
M  V30 5397 H 503.162 1.1422 1.25506 0
M  V30 5398 H 501.934 2.37853 3.10711 0
M  V30 5399 H 501.557 0.849649 3.88416 0
M  V30 5400 N 502.554 -1.34406 0.822964 0
M  V30 5401 C 503.8 -1.98578 0.411666 0
M  V30 5402 C 504.133 -1.65093 -1.02264 0
M  V30 5403 O 503.408 -0.92258 -1.71227 0
M  V30 5404 C 503.691 -3.54823 0.614235 0
M  V30 5405 C 503.544 -3.9805 2.09466 0
M  V30 5406 C 504.863 -4.40071 0.050221 0
M  V30 5407 H 501.982 -0.721355 0.151047 0
M  V30 5408 H 504.624 -1.59301 1.03554 0
M  V30 5409 H 502.774 -3.88411 0.0831774 0
M  V30 5410 H 504.446 -3.74795 2.68936 0
M  V30 5411 H 502.689 -3.4836 2.5851 0
M  V30 5412 H 503.36 -5.06819 2.18721 0
M  V30 5413 H 505.836 -4.13037 0.503953 0
M  V30 5414 H 504.712 -5.48452 0.221759 0
M  V30 5415 H 504.973 -4.29576 -1.04482 0
M  V30 5416 N 504.032 -0.577932 -1.46621 0
M  V30 5417 C 505.278 -0.0617793 -2.02706 0
M  V30 5418 C 505.611 1.29294 -1.44903 0
M  V30 5419 O 504.886 1.8461 -0.61232 0
M  V30 5420 C 505.169 0.00911824 -3.60099 0
M  V30 5421 C 505.022 -1.37416 -4.28295 0
M  V30 5422 C 506.341 0.712159 -4.343 0
M  V30 5423 H 503.46 -0.0239246 -0.736612 0
M  V30 5424 H 506.102 -0.744211 -1.74818 0
M  V30 5425 H 504.252 0.590292 -3.83989 0
M  V30 5426 H 505.924 -2.00013 -4.15683 0
M  V30 5427 H 504.167 -1.94319 -3.87843 0
M  V30 5428 H 504.838 -1.27707 -5.37024 0
M  V30 5429 H 507.314 0.218486 -4.15526 0
M  V30 5430 H 506.19 0.730782 -5.44014 0
M  V30 5431 H 506.451 1.77251 -4.05012 0
M  V30 5432 N 505.51 1.54411 -0.315457 0
M  V30 5433 C 506.458 2.25514 0.569771 0
M  V30 5434 C 507.452 1.2663 1.12522 0
M  V30 5435 O 508.658 1.44434 1.07419 0
M  V30 5436 H 505.033 0.724257 0.202376 0
M  V30 5437 H 507.004 2.98354 -0.0522895 0
M  V30 5438 C 505.753 3.02004 1.72305 0
M  V30 5439 H 505.076 3.77906 1.30488 0
M  V30 5440 H 506.516 3.55014 2.31821 0
M  V30 5441 C 504.975 2.09822 2.63583 0
M  V30 5442 O 505.505 1.67574 3.65078 0
M  V30 5443 N 503.711 1.75478 2.31637 0
M  V30 5444 H 503.258 2.10032 1.49145 0
M  V30 5445 H 503.216 1.14079 2.92973 0
M  V30 5446 N 506.988 0.0434614 1.5754 0
M  V30 5447 C 508.234 -0.632971 1.92669 0
M  V30 5448 C 508.567 -1.70947 0.921446 0
M  V30 5449 O 507.842 -1.94426 -0.0537202 0
M  V30 5450 C 508.125 -1.23619 3.38216 0
M  V30 5451 C 507.978 -0.168274 4.49485 0
M  V30 5452 C 509.297 -2.15008 3.84005 0
M  V30 5453 H 506.416 -0.228629 0.700641 0
M  V30 5454 H 509.058 0.103651 1.89717 0
M  V30 5455 H 507.208 -1.864 3.40863 0
M  V30 5456 H 508.88 0.463196 4.58969 0
M  V30 5457 H 507.123 0.504581 4.30855 0
M  V30 5458 H 507.794 -0.630218 5.48391 0
M  V30 5459 H 510.27 -1.62198 3.83185 0
M  V30 5460 H 509.146 -2.54161 4.86511 0
M  V30 5461 H 509.407 -3.04707 3.20322 0
M  V30 5462 N 508.466 -1.55915 -0.229846 0
M  V30 5463 C 509.696 -1.82352 -0.971152 0
M  V30 5464 C 510.104 -0.619231 -1.7878 0
M  V30 5465 O 509.447 0.421597 -1.78797 0
M  V30 5466 C 509.509 -3.02399 -1.9441 0
M  V30 5467 C 509.173 -4.37739 -1.31277 0
M  V30 5468 C 510.17 -5.15074 -0.706757 0
M  V30 5469 C 507.855 -4.84454 -1.32702 0
M  V30 5470 C 509.849 -6.37281 -0.123413 0
M  V30 5471 C 507.536 -6.06605 -0.739831 0
M  V30 5472 C 508.534 -6.82858 -0.139071 0
M  V30 5473 O 508.222 -8.027 0.439007 0
M  V30 5474 H 507.954 -0.61035 -0.290601 0
M  V30 5475 H 510.508 -2.03839 -0.252746 0
M  V30 5476 H 508.738 -2.76709 -2.70128 0
M  V30 5477 H 510.427 -3.15779 -2.55026 0
M  V30 5478 H 511.193 -4.80093 -0.688131 0
M  V30 5479 H 507.072 -4.25081 -1.78402 0
M  V30 5480 H 510.616 -6.96741 0.346124 0
M  V30 5481 H 506.513 -6.4106 -0.755841 0
M  V30 5482 H 507.281 -8.17824 0.332521 0
M  V30 5483 N 509.944 0.496216 -1.49584 0
M  V30 5484 C 510.854 1.62352 -1.69349 0
M  V30 5485 C 511.87 1.64184 -0.576147 0
M  V30 5486 O 513.046 1.82517 -0.85144 0
M  V30 5487 C 510.111 2.98698 -1.76013 0
M  V30 5488 C 509.172 3.07454 -2.99617 0
M  V30 5489 C 508.405 4.37296 -3.05953 0
M  V30 5490 O 508.628 5.2637 -2.19752 0
M  V30 5491 O 507.562 4.51124 -3.9846 0
M  V30 5492 H 511.388 1.48606 -2.64859 0
M  V30 5493 H 508.973 0.673022 -1.33382 0
M  V30 5494 H 510.855 3.79725 -1.82721 0
M  V30 5495 H 509.53 3.12696 -0.836828 0
M  V30 5496 H 508.437 2.25597 -2.98424 0
M  V30 5497 H 509.77 2.98385 -3.91443 0
M  V30 5498 N 511.423 1.38739 0.74761 0
M  V30 5499 C 512.834 1.31507 1.32524 0
M  V30 5500 C 513.185 -0.0263963 1.96182 0
M  V30 5501 O 512.31 -0.92849 1.95469 0
M  V30 5502 C 512.905 2.38162 2.40966 0
M  V30 5503 C 511.464 2.34489 2.94434 0
M  V30 5504 C 510.611 2.20712 1.67873 0
M  V30 5505 H 513.562 1.4901 0.546043 0
M  V30 5506 H 513.583 2.04222 3.21051 0
M  V30 5507 H 513.095 3.35783 1.94605 0
M  V30 5508 H 511.196 1.40467 3.45108 0
M  V30 5509 H 511.309 3.28861 3.48407 0
M  V30 5510 H 509.673 1.67667 1.91729 0
M  V30 5511 H 510.456 3.20285 1.23582 0
M  V30 5512 N 512.901 -0.976442 1.23707 0
M  V30 5513 C 513.833 -2.07212 0.979574 0
M  V30 5514 C 514.846 -1.6273 -0.0478528 0
M  V30 5515 O 516.035 -1.77506 0.18815 0
M  V30 5516 C 513.135 -3.35835 0.45479 0
M  V30 5517 C 512.308 -4.09268 1.54331 0
M  V30 5518 C 511.367 -5.16166 1.02271 0
M  V30 5519 O 510.393 -5.42827 1.71254 0
M  V30 5520 N 511.595 -5.80313 -0.147419 0
M  V30 5521 H 514.36 -2.29878 1.92292 0
M  V30 5522 H 511.921 -1.14343 1.14618 0
M  V30 5523 H 513.913 -4.04597 0.0914631 0
M  V30 5524 H 512.483 -3.10106 -0.394068 0
M  V30 5525 H 511.703 -3.34906 2.07923 0
M  V30 5526 H 512.991 -4.55095 2.27522 0
M  V30 5527 H 512.389 -5.61043 -0.724353 0
M  V30 5528 H 510.946 -6.50231 -0.451972 0
M  V30 5529 N 514.379 -1.04941 -1.1758 0
M  V30 5530 C 515.309 -0.669172 -2.23706 0
M  V30 5531 C 516.29 0.331835 -1.66832 0
M  V30 5532 O 517.475 0.209988 -1.93061 0
M  V30 5533 C 514.605 -0.0404889 -3.47276 0
M  V30 5534 C 513.559 -0.965983 -4.16957 0
M  V30 5535 C 512.885 -0.201312 -5.34321 0
M  V30 5536 C 514.185 -2.28902 -4.69469 0
M  V30 5537 H 515.879 -1.55639 -2.55767 0
M  V30 5538 H 513.425 -0.749793 -1.22939 0
M  V30 5539 H 515.378 0.237298 -4.20731 0
M  V30 5540 H 514.102 0.881658 -3.14475 0
M  V30 5541 H 512.761 -1.22829 -3.45411 0
M  V30 5542 H 512.409 0.723519 -4.97769 0
M  V30 5543 H 512.109 -0.817968 -5.81879 0
M  V30 5544 H 513.633 0.0692499 -6.10561 0
M  V30 5545 H 515.047 -2.07132 -5.34574 0
M  V30 5546 H 513.444 -2.85942 -5.27596 0
M  V30 5547 H 514.514 -2.92937 -3.86414 0
M  V30 5548 N 515.857 1.33968 -0.830081 0
M  V30 5549 C 516.789 2.28194 -0.21448 0
M  V30 5550 C 517.802 1.5135 0.599752 0
M  V30 5551 O 518.991 1.73286 0.42826 0
M  V30 5552 C 516.091 3.31221 0.717356 0
M  V30 5553 C 515.264 4.37365 -0.055613 0
M  V30 5554 C 514.323 5.2011 0.798231 0
M  V30 5555 O 513.349 5.68691 0.240616 0
M  V30 5556 N 514.551 5.40523 2.11695 0
M  V30 5557 H 517.316 2.81662 -1.02405 0
M  V30 5558 H 514.877 1.46568 -0.687713 0
M  V30 5559 H 516.869 3.83477 1.29334 0
M  V30 5560 H 515.439 2.78095 1.42765 0
M  V30 5561 H 514.659 3.85727 -0.812936 0
M  V30 5562 H 515.947 5.05397 -0.587444 0
M  V30 5563 H 515.345 5.0274 2.59363 0
M  V30 5564 H 513.902 5.95871 2.64162 0
M  V30 5565 N 517.335 0.585699 1.46312 0
M  V30 5566 C 518.285 -0.166813 2.27389 0
M  V30 5567 C 519.269 -0.859076 1.36047 0
M  V30 5568 O 520.461 -0.752678 1.60199 0
M  V30 5569 C 517.59 -1.17791 3.2246 0
M  V30 5570 C 516.676 -0.487605 4.21288 0
M  V30 5571 N 517.067 0.45849 5.03718 0
M  V30 5572 C 515.365 -0.737971 4.39852 0
M  V30 5573 C 516.066 0.862213 5.75275 0
M  V30 5574 N 515.042 0.210707 5.43191 0
M  V30 5575 H 518.844 0.560167 2.88512 0
M  V30 5576 H 516.358 0.407715 1.57199 0
M  V30 5577 H 518.355 -1.73122 3.79255 0
M  V30 5578 H 517.015 -1.90568 2.62896 0
M  V30 5579 H 518.026 0.834163 5.11138 0
M  V30 5580 H 514.703 -1.45209 3.91434 0
M  V30 5581 H 516.093 1.64128 6.51546 0
M  V30 5582 N 518.813 -1.54241 0.323641 0
M  V30 5583 C 519.763 -2.21071 -0.557833 0
M  V30 5584 C 520.747 -1.19126 -1.08157 0
M  V30 5585 O 521.939 -1.44755 -1.01857 0
M  V30 5586 C 519.068 -2.97208 -1.71821 0
M  V30 5587 C 518.154 -4.06491 -1.20936 0
M  V30 5588 N 518.545 -5.04052 -0.420202 0
M  V30 5589 C 516.843 -4.20443 -1.48808 0
M  V30 5590 C 517.544 -5.81516 -0.146413 0
M  V30 5591 N 516.52 -5.38641 -0.732562 0
M  V30 5592 H 520.322 -2.93853 0.0523921 0
M  V30 5593 H 517.836 -1.61883 0.129502 0
M  V30 5594 H 519.833 -3.4357 -2.36146 0
M  V30 5595 H 518.493 -2.25947 -2.33191 0
M  V30 5596 H 519.504 -5.17862 -0.0630401 0
M  V30 5597 H 516.181 -3.60396 -2.10762 0
M  V30 5598 H 517.571 -6.70119 0.488895 0
M  V30 5599 N 520.291 -0.0518155 -1.57515 0
M  V30 5600 C 521.537 0.622745 -1.93002 0
M  V30 5601 C 521.87 1.70456 -0.930499 0
M  V30 5602 O 521.145 1.94452 0.0434086 0
M  V30 5603 C 521.428 1.21824 -3.38867 0
M  V30 5604 C 521.281 0.144434 -4.49568 0
M  V30 5605 C 522.6 2.12968 -3.8514 0
M  V30 5606 H 519.719 0.22491 -0.701844 0
M  V30 5607 H 522.361 -0.113711 -1.89659 0
M  V30 5608 H 520.511 1.8459 -3.41846 0
M  V30 5609 H 522.183 -0.48753 -4.58717 0
M  V30 5610 H 520.426 -0.527424 -4.30582 0
M  V30 5611 H 521.097 0.601127 -5.48717 0
M  V30 5612 H 523.573 1.60163 -3.8404 0
M  V30 5613 H 522.449 2.51578 -4.87852 0
M  V30 5614 H 522.71 3.03004 -3.21934 0
M  V30 5615 N 521.769 1.56035 0.221574 0
M  V30 5616 C 522.732 1.91584 1.2581 0
M  V30 5617 C 523.732 0.794425 1.39805 0
M  V30 5618 O 524.922 1.06217 1.38071 0
M  V30 5619 C 522.054 2.16663 2.63192 0
M  V30 5620 H 523.247 2.8429 0.954935 0
M  V30 5621 H 520.8 1.49316 0.461988 0
M  V30 5622 H 521.535 1.26508 2.98607 0
M  V30 5623 H 521.32 2.98358 2.5441 0
M  V30 5624 H 522.81 2.45262 3.37988 0
M  V30 5625 N 523.247 -0.488276 1.49845 0
M  V30 5626 C 524.179 -1.60539 1.63584 0
M  V30 5627 C 525.192 -1.5434 0.517972 0
M  V30 5628 O 526.381 -1.60041 0.790516 0
M  V30 5629 C 523.481 -2.99374 1.58835 0
M  V30 5630 C 522.654 -3.30624 2.86368 0
M  V30 5631 C 521.713 -4.4893 2.74496 0
M  V30 5632 O 520.739 -4.50085 3.48443 0
M  V30 5633 N 521.941 -5.49591 1.86894 0
M  V30 5634 H 524.706 -1.49176 2.59936 0
M  V30 5635 H 522.267 -0.67639 1.47094 0
M  V30 5636 H 524.259 -3.76459 1.48529 0
M  V30 5637 H 522.829 -3.04595 0.702892 0
M  V30 5638 H 522.049 -2.42314 3.1093 0
M  V30 5639 H 523.337 -3.48305 3.70892 0
M  V30 5640 H 522.735 -5.51467 1.26097 0
M  V30 5641 H 521.292 -6.25728 1.82503 0
M  V30 5642 N 524.725 -1.39134 -0.740242 0
M  V30 5643 C 525.672 -1.37434 -1.8542 0
M  V30 5644 C 526.642 -0.234822 -1.64432 0
M  V30 5645 O 527.827 -0.429125 -1.85912 0
M  V30 5646 C 524.967 -1.21844 -3.22875 0
M  V30 5647 C 524.08 -2.45296 -3.55603 0
M  V30 5648 C 523.215 -2.22334 -4.82432 0
M  V30 5649 C 522.254 -3.41488 -5.07988 0
M  V30 5650 N 521.391 -3.17877 -6.26018 0
M  V30 5651 H 526.231 -2.3266 -1.86207 0
M  V30 5652 H 523.768 -1.15578 -0.909946 0
M  V30 5653 H 525.726 -1.10818 -4.02213 0
M  V30 5654 H 524.356 -0.3025 -3.21379 0
M  V30 5655 H 523.408 -2.66945 -2.71006 0
M  V30 5656 H 524.72 -3.34063 -3.7041 0
M  V30 5657 H 523.874 -2.0852 -5.69741 0
M  V30 5658 H 522.613 -1.30954 -4.6979 0
M  V30 5659 H 521.618 -3.55807 -4.19144 0
M  V30 5660 H 522.843 -4.33763 -5.22519 0
M  V30 5661 H 520.789 -2.29156 -6.14673 0
M  V30 5662 H 520.706 -4.00198 -6.41387 0
M  V30 5663 H 521.974 -3.07746 -7.16179 0
M  V30 5664 N 526.204 0.969867 -1.24223 0
M  V30 5665 C 527.151 2.06407 -1.0327 0
M  V30 5666 C 528.121 1.66014 0.0533 0
M  V30 5667 O 529.306 1.90533 -0.100896 0
M  V30 5668 C 526.446 3.3909 -0.641262 0
M  V30 5669 C 525.559 3.9269 -1.80051 0
M  V30 5670 C 524.694 5.13631 -1.35486 0
M  V30 5671 C 523.733 5.59423 -2.48419 0
M  V30 5672 N 522.87 6.71586 -2.04737 0
M  V30 5673 H 527.71 2.23663 -1.96923 0
M  V30 5674 H 525.247 1.09624 -0.980862 0
M  V30 5675 H 527.205 4.15323 -0.395351 0
M  V30 5676 H 525.835 3.21765 0.258269 0
M  V30 5677 H 524.887 3.13116 -2.16014 0
M  V30 5678 H 526.199 4.22636 -2.64916 0
M  V30 5679 H 525.353 5.97231 -1.0677 0
M  V30 5680 H 524.092 4.85364 -0.476722 0
M  V30 5681 H 523.097 4.74398 -2.77897 0
M  V30 5682 H 524.322 5.89705 -3.36786 0
M  V30 5683 H 522.268 6.45058 -1.19318 0
M  V30 5684 H 522.185 7.0097 -2.83156 0
M  V30 5685 H 523.453 7.58633 -1.79154 0
M  V30 5686 N 527.682 1.05563 1.17022 0
M  V30 5687 C 528.931 0.763036 1.8671 0
M  V30 5688 C 529.244 -0.712857 1.82147 0
M  V30 5689 O 530.45 -1.11955 2.47343 0
M  V30 5690 C 528.906 1.31474 3.35026 0
M  V30 5691 C 528.514 2.82034 3.48081 0
M  V30 5692 C 530.258 1.09935 4.10018 0
M  V30 5693 C 528.165 3.30486 4.90442 0
M  V30 5694 H 527.095 0.281747 0.699382 0
M  V30 5695 H 529.746 1.2734 1.32124 0
M  V30 5696 H 528.128 0.732171 3.89173 0
M  V30 5697 H 529.302 3.46178 3.04133 0
M  V30 5698 H 527.617 3.02156 2.86515 0
M  V30 5699 H 530.214 1.43632 5.15048 0
M  V30 5700 H 530.557 0.0373072 4.16283 0
M  V30 5701 H 531.09 1.64732 3.62089 0
M  V30 5702 H 527.829 4.36137 4.89352 0
M  V30 5703 H 527.349 2.71086 5.35044 0
M  V30 5704 H 529.028 3.25382 5.59227 0
M  V30 5705 N 529.16 -1.33526 0.837174 0
M  V30 5706 C 530.571 -1.80182 0.489017 0
M  V30 5707 C 530.922 -1.69285 -0.991826 0
M  V30 5708 O 530.047 -1.24113 -1.77271 0
M  V30 5709 C 530.642 -3.27149 0.880866 0
M  V30 5710 C 529.201 -3.71828 0.584872 0
M  V30 5711 C 528.348 -2.54974 1.09011 0
M  V30 5712 H 531.299 -1.21071 1.02603 0
M  V30 5713 H 531.32 -3.80024 0.190239 0
M  V30 5714 H 530.832 -3.35048 1.95869 0
M  V30 5715 H 528.933 -3.69457 -0.48295 0
M  V30 5716 H 529.046 -4.65366 1.13892 0
M  V30 5717 H 527.41 -2.4952 0.511047 0
M  V30 5718 H 528.193 -2.65637 2.17467 0
M  V30 5719 N 530.638 -0.59345 -1.46 0
M  V30 5720 C 531.868 -0.0889642 -2.06408 0
M  V30 5721 C 532.276 1.22597 -1.44106 0
M  V30 5722 O 531.619 1.75448 -0.544398 0
M  V30 5723 C 531.681 0.139902 -3.59228 0
M  V30 5724 C 531.345 -1.09107 -4.43784 0
M  V30 5725 C 532.342 -2.00577 -4.79651 0
M  V30 5726 C 530.027 -1.31593 -4.84756 0
M  V30 5727 C 532.021 -3.12873 -5.55328 0
M  V30 5728 C 529.708 -2.44192 -5.60191 0
M  V30 5729 C 530.706 -3.34661 -5.95392 0
M  V30 5730 O 530.394 -4.45302 -6.69299 0
M  V30 5731 H 530.126 -0.0594613 -0.67338 0
M  V30 5732 H 532.68 -0.817 -1.88452 0
M  V30 5733 H 530.91 0.922672 -3.75531 0
M  V30 5734 H 532.599 0.594228 -4.01527 0
M  V30 5735 H 533.365 -1.84425 -4.48567 0
M  V30 5736 H 529.244 -0.620801 -4.56801 0
M  V30 5737 H 532.788 -3.83511 -5.82722 0
M  V30 5738 H 528.685 -2.60303 -5.90688 0
M  V30 5739 H 529.453 -4.43805 -6.87735 0
M  V30 5740 N 532.116 1.54067 -0.331816 0
M  V30 5741 C 533.362 2.01012 0.268667 0
M  V30 5742 C 533.695 1.2195 1.51136 0
M  V30 5743 O 532.97 0.303972 1.9211 0
M  V30 5744 C 533.253 3.55158 0.59456 0
M  V30 5745 C 533.106 4.4494 -0.659409 0
M  V30 5746 C 534.425 4.16939 1.4089 0
M  V30 5747 H 531.544 0.730698 0.0961756 0
M  V30 5748 H 534.186 1.84593 -0.450031 0
M  V30 5749 H 532.336 3.6928 1.20685 0
M  V30 5750 H 534.008 4.42675 -1.29756 0
M  V30 5751 H 532.251 4.1428 -1.28665 0
M  V30 5752 H 532.922 5.50643 -0.386804 0
M  V30 5753 H 535.398 4.06443 0.891272 0
M  V30 5754 H 534.274 5.24889 1.60569 0
M  V30 5755 H 534.535 3.70798 2.40752 0
M  V30 5756 N 533.594 0.0601682 1.57485 0
M  V30 5757 C 534.871 -0.651956 1.84415 0
M  V30 5758 C 535.251 -1.88498 0.950361 0
M  V30 5759 O 534.599 -2.28496 0.0136719 0
M  V30 5760 C 534.809 -1.00069 3.34346 0
M  V30 5761 C 536.157 -1.37915 4.01578 0
M  V30 5762 O 537.181 -1.09277 3.39024 0
M  V30 5763 O 536.04 -1.91399 5.11887 0
M  V30 5764 H 533.134 -0.322668 0.761455 0
M  V30 5765 H 535.68 0.0902159 1.6946 0
M  V30 5766 H 534.452 -0.124463 3.91102 0
M  V30 5767 H 534.075 -1.80001 3.54521 0
M  V30 5768 N 535.072 -1.5615 -0.213296 0
M  V30 5769 C 536.3 -1.83638 -0.953139 0
M  V30 5770 C 536.715 -0.640362 -1.77609 0
M  V30 5771 O 536.072 0.391071 -1.78261 0
M  V30 5772 C 536.123 -3.09735 -1.86405 0
M  V30 5773 O 535.844 -4.24723 -1.07435 0
M  V30 5774 C 537.345 -3.5027 -2.71709 0
M  V30 5775 H 534.565 -0.610263 -0.278962 0
M  V30 5776 H 537.109 -2.03247 -0.226035 0
M  V30 5777 H 535.264 -2.92077 -2.545 0
M  V30 5778 H 535.678 -4.9641 -1.69343 0
M  V30 5779 H 537.152 -4.41515 -3.31313 0
M  V30 5780 H 537.629 -2.72406 -3.44516 0
M  V30 5781 H 538.235 -3.70396 -2.09015 0
M  V30 5782 N 536.55 0.480323 -1.50102 0
M  V30 5783 C 537.482 1.59669 -1.64433 0
M  V30 5784 C 538.495 1.54063 -0.52615 0
M  V30 5785 O 539.684 1.59619 -0.798992 0
M  V30 5786 C 536.784 2.98527 -1.6042 0
M  V30 5787 C 535.957 3.291 -2.88117 0
M  V30 5788 C 535.016 4.47468 -2.76873 0
M  V30 5789 O 534.042 4.4823 -3.50825 0
M  V30 5790 N 535.244 5.48593 -1.89806 0
M  V30 5791 H 538.009 1.47795 -2.60723 0
M  V30 5792 H 535.57 0.66858 -1.4745 0
M  V30 5793 H 537.562 3.75666 -1.50523 0
M  V30 5794 H 536.132 3.04218 -0.719036 0
M  V30 5795 H 535.352 2.40662 -3.12211 0
M  V30 5796 H 536.64 3.46334 -3.72734 0
M  V30 5797 H 536.038 5.50791 -1.2902 0
M  V30 5798 H 534.595 6.24752 -1.85819 0
M  V30 5799 N 538.028 1.39524 0.732853 0
M  V30 5800 C 539.276 1.36594 1.48951 0
M  V30 5801 C 539.597 -0.0367507 1.94965 0
M  V30 5802 O 538.867 -0.988391 1.69138 0
M  V30 5803 H 537.447 0.502673 0.552566 0
M  V30 5804 H 540.109 1.74411 0.869869 0
M  V30 5805 H 539.205 2.03 2.3706 0
M  V30 5806 N 539.506 -0.963266 1.24736 0
M  V30 5807 C 540.438 -2.06162 1.0015 0
M  V30 5808 C 541.451 -1.62771 -0.0305905 0
M  V30 5809 O 542.64 -1.77296 0.206966 0
M  V30 5810 C 539.74 -3.35333 0.490385 0
M  V30 5811 C 538.913 -4.07609 1.58663 0
M  V30 5812 C 537.972 -5.15052 1.0774 0
M  V30 5813 O 536.998 -5.4098 1.77002 0
M  V30 5814 N 538.2 -5.80436 -0.0858605 0
M  V30 5815 H 540.965 -2.27825 1.94719 0
M  V30 5816 H 538.526 -1.13121 1.15825 0
M  V30 5817 H 540.518 -4.04477 0.134371 0
M  V30 5818 H 539.088 -3.10507 -0.361155 0
M  V30 5819 H 538.308 -3.32681 2.11463 0
M  V30 5820 H 539.596 -4.52656 2.32336 0
M  V30 5821 H 538.994 -5.6178 -0.664806 0
M  V30 5822 H 537.551 -6.50674 -0.382981 0
M  V30 5823 N 540.985 -1.06182 -1.16461 0
M  V30 5824 C 541.915 -0.692861 -2.22984 0
M  V30 5825 C 542.896 0.314122 -1.67174 0
M  V30 5826 O 544.081 0.189499 -1.93273 0
M  V30 5827 C 541.211 -0.07732 -3.47214 0
M  V30 5828 C 540.165 -1.01015 -4.15909 0
M  V30 5829 C 539.491 -0.257973 -5.34077 0
M  V30 5830 C 540.791 -2.33868 -4.67015 0
M  V30 5831 H 542.485 -1.58343 -2.54102 0
M  V30 5832 H 540.031 -0.76279 -1.22137 0
M  V30 5833 H 541.984 0.19266 -4.20959 0
M  V30 5834 H 540.708 0.848254 -3.15392 0
M  V30 5835 H 539.367 -1.26486 -3.44088 0
M  V30 5836 H 539.015 0.670684 -4.98509 0
M  V30 5837 H 538.715 -0.879638 -5.80979 0
M  V30 5838 H 540.239 0.00448788 -6.106 0
M  V30 5839 H 541.653 -2.1279 -5.32347 0
M  V30 5840 H 540.05 -2.91522 -5.24533 0
M  V30 5841 H 541.12 -2.97019 -3.83286 0
M  V30 5842 N 542.463 1.3308 -0.844243 0
M  V30 5843 C 543.712 1.96868 -0.438833 0
M  V30 5844 C 544.025 1.67599 1.00846 0
M  V30 5845 O 545.231 2.25043 1.51881 0
M  V30 5846 C 543.687 3.5234 -0.73377 0
M  V30 5847 C 543.295 3.90481 -2.1961 0
M  V30 5848 C 545.039 4.22653 -0.395574 0
M  V30 5849 C 542.946 5.38954 -2.43481 0
M  V30 5850 H 541.876 0.736749 -0.160364 0
M  V30 5851 H 544.527 1.51623 -1.03358 0
M  V30 5852 H 542.909 3.95941 -0.068589 0
M  V30 5853 H 544.083 3.57922 -2.90221 0
M  V30 5854 H 542.398 3.33165 -2.4978 0
M  V30 5855 H 544.995 5.31848 -0.551477 0
M  V30 5856 H 545.338 4.11004 0.661921 0
M  V30 5857 H 545.871 3.84601 -1.01621 0
M  V30 5858 H 542.61 5.55612 -3.47816 0
M  V30 5859 H 542.13 5.72954 -1.77437 0
M  V30 5860 H 543.809 6.05907 -2.26905 0
M  V30 5861 N 543.941 0.601185 1.45683 0
M  V30 5862 C 544.888 -0.121396 2.30481 0
M  V30 5863 C 545.858 -0.866232 1.41724 0
M  V30 5864 O 547.043 -0.85324 1.70659 0
M  V30 5865 C 544.183 -1.11704 3.26521 0
M  V30 5866 C 543.296 -0.373741 4.3038 0
M  V30 5867 C 542.431 -1.35854 5.13534 0
M  V30 5868 C 541.47 -0.602689 6.09126 0
M  V30 5869 N 540.607 -1.53645 6.85082 0
M  V30 5870 H 545.447 0.607732 2.91737 0
M  V30 5871 H 542.984 0.311502 1.43764 0
M  V30 5872 H 544.942 -1.70735 3.80664 0
M  V30 5873 H 543.572 -1.81366 2.67032 0
M  V30 5874 H 542.624 0.331962 3.78949 0
M  V30 5875 H 543.936 0.2163 4.98331 0
M  V30 5876 H 543.09 -2.02111 5.72046 0
M  V30 5877 H 541.829 -1.98251 4.45587 0
M  V30 5878 H 540.834 0.0735482 5.49751 0
M  V30 5879 H 542.059 0.0161467 6.79098 0
M  V30 5880 H 540.005 -2.14819 6.1983 0
M  V30 5881 H 539.922 -0.999688 7.49361 0
M  V30 5882 H 541.19 -2.1888 7.48139 0
M  V30 5883 N 545.419 -1.53889 0.339982 0
M  V30 5884 C 546.83 -1.86139 -0.144671 0
M  V30 5885 C 547.181 -1.2613 -1.50285 0
M  V30 5886 O 546.306 -0.573515 -2.08662 0
M  V30 5887 C 546.901 -3.37728 -0.269285 0
M  V30 5888 C 545.46 -3.69868 -0.698168 0
M  V30 5889 C 544.607 -2.76777 0.170249 0
M  V30 5890 H 547.558 -1.48503 0.559704 0
M  V30 5891 H 547.579 -3.64331 -1.0974 0
M  V30 5892 H 547.091 -3.81375 0.719366 0
M  V30 5893 H 545.192 -3.31764 -1.69597 0
M  V30 5894 H 545.305 -4.76582 -0.490533 0
M  V30 5895 H 543.669 -2.52188 -0.356844 0
M  V30 5896 H 544.452 -3.23253 1.15597 0
M  V30 5897 N 546.897 -0.0685191 -1.57451 0
M  V30 5898 C 548.174 0.642167 -1.84758 0
M  V30 5899 C 548.554 1.87991 -0.960344 0
M  V30 5900 O 547.902 2.28485 -0.0257894 0
M  V30 5901 C 548.112 0.982946 -3.34872 0
M  V30 5902 C 549.46 1.35784 -4.02303 0
M  V30 5903 O 550.484 1.07477 -3.39598 0
M  V30 5904 O 549.343 1.88681 -5.12895 0
M  V30 5905 H 546.437 0.318625 -0.763156 0
M  V30 5906 H 548.983 -0.0992015 -1.6941 0
M  V30 5907 H 547.755 0.10372 -3.91163 0
M  V30 5908 H 547.378 1.78119 -3.55471 0
M  V30 5909 N 548.375 1.56261 0.205012 0
M  V30 5910 C 549.322 1.93754 1.25411 0
M  V30 5911 C 550.292 0.796826 1.45739 0
M  V30 5912 O 551.477 1.05414 1.59036 0
M  V30 5913 C 548.617 2.27383 2.59598 0
M  V30 5914 C 547.73 3.5447 2.46931 0
M  V30 5915 C 546.865 3.77468 3.73753 0
M  V30 5916 C 545.904 4.98014 3.55877 0
M  V30 5917 N 545.041 5.17316 4.74688 0
M  V30 5918 H 549.881 2.83203 0.92737 0
M  V30 5919 H 547.418 1.40158 0.446574 0
M  V30 5920 H 549.376 2.44895 3.37761 0
M  V30 5921 H 548.006 1.41088 2.90335 0
M  V30 5922 H 547.058 3.45061 1.60116 0
M  V30 5923 H 548.37 4.42789 2.29651 0
M  V30 5924 H 547.524 3.95165 4.60358 0
M  V30 5925 H 546.263 2.87461 3.93976 0
M  V30 5926 H 545.268 4.80249 2.67657 0
M  V30 5927 H 546.493 5.8952 3.37109 0
M  V30 5928 H 544.439 4.30255 4.95194 0
M  V30 5929 H 544.356 5.99796 4.60197 0
M  V30 5930 H 545.624 5.39463 5.62672 0
M  V30 5931 N 549.853 -0.472356 1.50355 0
M  V30 5932 C 551.264 -1.05326 1.54154 0
M  V30 5933 C 551.615 -1.93155 0.344303 0
M  V30 5934 O 550.74 -2.09479 -0.542928 0
M  V30 5935 C 551.335 -1.91691 2.79356 0
M  V30 5936 C 549.894 -2.44892 2.8584 0
M  V30 5937 C 549.041 -1.23205 2.48426 0
M  V30 5938 H 551.992 -0.255027 1.56637 0
M  V30 5939 H 552.013 -2.76742 2.6114 0
M  V30 5940 H 551.525 -1.27741 3.66475 0
M  V30 5941 H 549.626 -3.12399 2.0307 0
M  V30 5942 H 549.739 -2.80086 3.88701 0
M  V30 5943 H 548.103 -1.56643 2.00836 0
M  V30 5944 H 548.886 -0.609194 3.37852 0
M  V30 5945 N 551.331 -1.39911 -0.725443 0
M  V30 5946 C 552.279 -1.39552 -1.86086 0
M  V30 5947 C 553.273 -0.277334 -1.67114 0
M  V30 5948 O 554.479 -0.447865 -1.74339 0
M  V30 5949 H 550.854 -0.435993 -0.612711 0
M  V30 5950 H 552.825 -2.35305 -1.83505 0
M  V30 5951 C 551.574 -1.26529 -3.2386 0
M  V30 5952 H 550.897 -2.11845 -3.3906 0
M  V30 5953 H 552.337 -1.30336 -4.03471 0
M  V30 5954 C 550.796 0.0254168 -3.3689 0
M  V30 5955 O 551.326 0.992048 -3.89257 0
M  V30 5956 N 549.532 0.0916528 -2.90455 0
M  V30 5957 H 549.079 -0.695675 -2.48028 0
M  V30 5958 H 549.037 0.954745 -2.99553 0
M  V30 5959 N 552.809 0.956637 -1.25245 0
M  V30 5960 C 554.057 1.69764 -1.09657 0
M  V30 5961 C 554.378 1.91583 0.363464 0
M  V30 5962 O 553.648 1.50149 1.25825 0
M  V30 5963 H 552.228 0.629097 -0.402798 0
M  V30 5964 H 554.89 1.15026 -1.57337 0
M  V30 5965 H 553.986 2.67769 -1.60331 0
M  V30 5966 N 554.287 1.06798 1.15896 0
M  V30 5967 C 555.536 0.782796 1.8589 0
M  V30 5968 C 555.849 -0.693498 1.82893 0
M  V30 5969 O 557.055 -1.09325 2.48516 0
M  V30 5970 C 555.511 1.3502 3.33613 0
M  V30 5971 C 555.119 2.8571 3.45071 0
M  V30 5972 C 556.863 1.14278 4.08829 0
M  V30 5973 C 554.77 3.35669 4.86909 0
M  V30 5974 H 553.7 0.289149 0.696354 0
M  V30 5975 H 556.351 1.28734 1.30766 0
M  V30 5976 H 554.733 0.773407 3.88374 0
M  V30 5977 H 555.907 3.49385 3.00445 0
M  V30 5978 H 554.222 3.05178 2.83294 0
M  V30 5979 H 556.819 1.49087 5.13495 0
M  V30 5980 H 557.162 0.0814575 4.1622 0
M  V30 5981 H 557.695 1.68563 3.60321 0
M  V30 5982 H 554.434 4.41302 4.84698 0
M  V30 5983 H 553.954 2.76745 5.32139 0
M  V30 5984 H 555.633 3.31296 5.55745 0
M  V30 5985 N 555.766 -1.3263 0.851289 0
M  V30 5986 C 556.713 -2.28952 0.291469 0
M  V30 5987 C 557.683 -1.54897 -0.599676 0
M  V30 5988 O 558.868 -1.83137 -0.535305 0
M  V30 5989 C 556.008 -3.41206 -0.516992 0
M  V30 5990 C 555.121 -4.30148 0.399566 0
M  V30 5991 C 554.256 -5.29527 -0.4212 0
M  V30 5992 C 553.295 -6.10112 0.492969 0
M  V30 5993 N 552.432 -7.01499 -0.290414 0
M  V30 5994 H 557.272 -2.76228 1.11813 0
M  V30 5995 H 554.809 -1.35907 0.562826 0
M  V30 5996 H 556.767 -4.05005 -1.00132 0
M  V30 5997 H 555.397 -2.9509 -1.30851 0
M  V30 5998 H 554.449 -3.66959 1.00227 0
M  V30 5999 H 555.761 -4.8649 1.1013 0
M  V30 6000 H 554.915 -5.98914 -0.968832 0
M  V30 6001 H 553.654 -4.73794 -1.15632 0
M  V30 6002 H 552.659 -5.39632 1.05251 0
M  V30 6003 H 553.884 -6.6793 1.22664 0
M  V30 6004 H 551.83 -6.48199 -1.00868 0
M  V30 6005 H 551.747 -7.55178 0.352354 0
M  V30 6006 H 553.015 -7.75176 -0.819882 0
M  V30 6007 N 557.244 -0.608902 -1.45362 0
M  V30 6008 C 558.177 0.158059 -2.27652 0
M  V30 6009 C 559.155 0.872397 -1.37215 0
M  V30 6010 O 560.339 0.881002 -1.66645 0
M  V30 6011 C 557.466 1.22896 -3.15617 0
M  V30 6012 C 556.512 0.617607 -4.22005 0
M  V30 6013 S 557.345 -0.575518 -5.32398 0
M  V30 6014 C 558.501 0.495938 -6.23932 0
M  V30 6015 H 558.734 -0.540095 -2.92353 0
M  V30 6016 H 556.267 -0.396456 -1.49223 0
M  V30 6017 H 558.225 1.84195 -3.66855 0
M  V30 6018 H 556.886 1.89919 -2.50179 0
M  V30 6019 H 556.079 1.42341 -4.83482 0
M  V30 6020 H 555.681 0.0797273 -3.73915 0
M  V30 6021 H 557.973 1.37465 -6.63408 0
M  V30 6022 H 558.916 -0.0827108 -7.08052 0
M  V30 6023 H 559.324 0.811856 -5.58631 0
M  V30 6024 N 558.722 1.53707 -0.348139 0
M  V30 6025 C 559.632 2.28881 0.514857 0
M  V30 6026 C 560.648 1.34168 1.10793 0
M  V30 6027 O 561.824 1.6721 1.12262 0
M  V30 6028 C 558.889 3.05042 1.64774 0
M  V30 6029 C 557.95 4.15389 1.08398 0
M  V30 6030 C 557.183 4.87909 2.16287 0
M  V30 6031 O 557.406 4.60137 3.3709 0
M  V30 6032 O 556.34 5.74254 1.80323 0
M  V30 6033 H 560.166 3.03547 -0.0963699 0
M  V30 6034 H 557.751 1.48972 -0.113043 0
M  V30 6035 H 559.633 3.52656 2.30677 0
M  V30 6036 H 558.308 2.33228 2.24469 0
M  V30 6037 H 557.215 3.72068 0.389341 0
M  V30 6038 H 558.548 4.89318 0.531829 0
M  V30 6039 N 560.2 0.0768682 1.57412 0
M  V30 6040 C 561.147 -0.888577 2.13009 0
M  V30 6041 C 562.117 -1.29198 1.0439 0
M  V30 6042 O 563.302 -1.37694 1.3208 0
M  V30 6043 C 560.442 -2.14899 2.70023 0
M  V30 6044 C 559.555 -1.79777 3.92816 0
M  V30 6045 C 558.69 -3.00467 4.38056 0
M  V30 6046 C 557.729 -2.61385 5.53484 0
M  V30 6047 N 556.866 -3.74851 5.93659 0
M  V30 6048 H 561.706 -0.407593 2.95199 0
M  V30 6049 H 559.243 -0.189534 1.45874 0
M  V30 6050 H 561.201 -2.88688 3.0119 0
M  V30 6051 H 559.831 -2.60529 1.9059 0
M  V30 6052 H 558.883 -0.960301 3.68079 0
M  V30 6053 H 560.195 -1.47027 4.76639 0
M  V30 6054 H 559.349 -3.82529 4.7091 0
M  V30 6055 H 558.088 -3.36413 3.53097 0
M  V30 6056 H 557.093 -1.77746 5.20275 0
M  V30 6057 H 558.318 -2.26603 6.40178 0
M  V30 6058 H 556.264 -4.1055 5.11649 0
M  V30 6059 H 556.181 -3.45887 6.72234 0
M  V30 6060 H 557.449 -4.57477 6.31138 0
M  V30 6061 N 561.678 -1.56367 -0.196722 0
M  V30 6062 C 562.925 -1.80529 -0.917366 0
M  V30 6063 C 563.253 -0.649817 -1.83324 0
M  V30 6064 O 562.508 0.36451 -1.92275 0
M  V30 6065 C 562.807 -3.10663 -1.767 0
M  V30 6066 C 562.473 -4.3962 -1.00225 0
M  V30 6067 C 561.135 -4.74653 -0.791095 0
M  V30 6068 C 563.487 -5.1913 -0.464035 0
M  V30 6069 C 560.815 -5.86692 -0.0302155 0
M  V30 6070 C 563.167 -6.31964 0.283625 0
M  V30 6071 C 561.831 -6.65581 0.505813 0
M  V30 6072 H 561.101 -0.660602 -0.335688 0
M  V30 6073 H 563.748 -1.90615 -0.183844 0
M  V30 6074 H 562.053 -2.95807 -2.56915 0
M  V30 6075 H 563.75 -3.26563 -2.32718 0
M  V30 6076 H 560.34 -4.12127 -1.17684 0
M  V30 6077 H 564.524 -4.9248 -0.614575 0
M  V30 6078 H 559.78 -6.11211 0.151917 0
M  V30 6079 H 563.954 -6.92791 0.708057 0
M  V30 6080 H 561.581 -7.52239 1.0973 0
M  V30 6081 N 563.156 0.464375 -1.50603 0
M  V30 6082 C 564.402 1.21776 -1.62168 0
M  V30 6083 C 564.735 1.91476 -0.324154 0
M  V30 6084 O 564.01 1.8242 0.674782 0
M  V30 6085 C 564.293 2.25614 -2.80661 0
M  V30 6086 C 564.146 1.60175 -4.20314 0
M  V30 6087 C 565.465 3.26862 -2.94702 0
M  V30 6088 H 562.584 0.44137 -0.590222 0
M  V30 6089 H 565.226 0.510623 -1.8301 0
M  V30 6090 H 563.376 2.85923 -2.63021 0
M  V30 6091 H 565.048 1.03411 -4.4956 0
M  V30 6092 H 563.291 0.904697 -4.24261 0
M  V30 6093 H 563.962 2.35665 -4.99165 0
M  V30 6094 H 566.438 2.76582 -3.10872 0
M  V30 6095 H 565.314 3.96839 -3.79223 0
M  V30 6096 H 565.575 3.91382 -2.05603 0
M  V30 6097 N 564.634 1.40294 0.718013 0
M  V30 6098 C 565.881 1.3844 1.47786 0
M  V30 6099 C 566.209 -0.0140838 1.94495 0
M  V30 6100 O 565.464 -0.998165 1.68331 0
M  V30 6101 C 565.763 2.31814 2.72024 0
M  V30 6102 C 565.429 3.79117 2.44093 0
M  V30 6103 C 564.091 4.19249 2.36185 0
M  V30 6104 C 566.443 4.72212 2.20602 0
M  V30 6105 C 563.771 5.50516 2.02851 0
M  V30 6106 C 566.123 6.03775 1.88781 0
M  V30 6107 C 564.787 6.42953 1.79354 0
M  V30 6108 H 564.057 0.506588 0.540786 0
M  V30 6109 H 566.704 1.72929 0.822663 0
M  V30 6110 H 565.009 1.90501 3.42369 0
M  V30 6111 H 566.706 2.27664 3.30106 0
M  V30 6112 H 563.296 3.47318 2.51133 0
M  V30 6113 H 567.48 4.42026 2.25669 0
M  V30 6114 H 562.736 5.79776 1.94088 0
M  V30 6115 H 566.91 6.75428 1.69617 0
M  V30 6116 H 564.537 7.44584 1.53291 0
M  V30 6117 N 566.112 -0.949982 1.2575 0
M  V30 6118 C 567.389 -1.6718 1.01539 0
M  V30 6119 C 567.769 -2.06095 -0.456942 0
M  V30 6120 O 567.117 -1.77792 -1.43534 0
M  V30 6121 C 567.327 -2.8906 1.95564 0
M  V30 6122 C 568.675 -3.60909 2.23673 0
M  V30 6123 O 569.699 -2.9915 1.9336 0
M  V30 6124 O 568.558 -4.72127 2.75243 0
M  V30 6125 H 565.652 -0.731697 0.385419 0
M  V30 6126 H 568.198 -1.00249 1.36924 0
M  V30 6127 H 566.97 -2.57128 2.94959 0
M  V30 6128 H 566.593 -3.63719 1.60605 0
M  V30 6129 N 567.59 -1.07411 -1.15328 0
M  V30 6130 C 568.839 -0.792643 -1.85473 0
M  V30 6131 C 569.152 0.683789 -1.83259 0
M  V30 6132 O 570.358 1.08005 -2.49093 0
M  V30 6133 C 568.814 -1.36787 -3.32892 0
M  V30 6134 C 568.422 -2.87536 -3.43551 0
M  V30 6135 C 570.166 -1.16444 -4.08217 0
M  V30 6136 C 568.073 -3.38247 -4.85122 0
M  V30 6137 H 567.003 -0.292838 -0.694811 0
M  V30 6138 H 569.654 -1.29426 -1.30082 0
M  V30 6139 H 568.036 -0.793993 -3.87958 0
M  V30 6140 H 569.21 -3.50973 -2.98588 0
M  V30 6141 H 567.525 -3.06676 -2.81672 0
M  V30 6142 H 570.122 -1.51808 -5.12697 0
M  V30 6143 H 570.465 -0.10353 -4.16171 0
M  V30 6144 H 570.998 -1.70472 -3.59422 0
M  V30 6145 H 567.737 -4.43866 -4.82351 0
M  V30 6146 H 567.257 -2.79564 -5.30664 0
M  V30 6147 H 568.936 -3.34238 -5.5398 0
M  V30 6148 N 569.068 1.32177 -0.85831 0
M  V30 6149 C 570.315 1.97125 -0.463484 0
M  V30 6150 C 570.643 1.67907 0.981705 0
M  V30 6151 O 569.898 0.961717 1.70439 0
M  V30 6152 C 570.197 3.51372 -0.653658 0
M  V30 6153 C 569.863 4.00584 -2.06987 0
M  V30 6154 C 568.525 4.13733 -2.4572 0
M  V30 6155 C 570.877 4.26624 -2.99402 0
M  V30 6156 C 568.205 4.50268 -3.76132 0
M  V30 6157 C 570.557 4.64618 -4.29316 0
M  V30 6158 C 569.221 4.75975 -4.67979 0
M  V30 6159 H 568.491 0.72133 -0.169601 0
M  V30 6160 H 571.138 1.57517 -1.08907 0
M  V30 6161 H 569.443 3.91761 0.0551328 0
M  V30 6162 H 571.14 3.99655 -0.328163 0
M  V30 6163 H 567.73 3.90837 -1.75911 0
M  V30 6164 H 571.914 4.1597 -2.70708 0
M  V30 6165 H 567.17 4.57256 -4.05865 0
M  V30 6166 H 571.344 4.83722 -5.00985 0
M  V30 6167 H 568.971 5.04041 -5.69076 0
M  V30 6168 N 570.547 0.616602 1.45037 0
M  V30 6169 C 571.479 -0.135186 2.28801 0
M  V30 6170 C 572.492 -0.82303 1.40464 0
M  V30 6171 O 573.681 -0.686909 1.64754 0
M  V30 6172 C 570.781 -1.21292 3.16451 0
M  V30 6173 C 569.954 -0.61043 4.3312 0
M  V30 6174 C 569.013 -1.58022 5.01912 0
M  V30 6175 O 568.039 -1.10301 5.58411 0
M  V30 6176 N 569.241 -2.91464 5.02025 0
M  V30 6177 H 572.006 0.583612 2.93963 0
M  V30 6178 H 569.567 0.456723 1.55324 0
M  V30 6179 H 571.559 -1.86169 3.59337 0
M  V30 6180 H 570.129 -1.83412 2.53138 0
M  V30 6181 H 569.349 0.216638 3.93604 0
M  V30 6182 H 570.637 -0.188293 5.08451 0
M  V30 6183 H 570.035 -3.32829 4.57429 0
M  V30 6184 H 568.592 -3.51741 5.48745 0
M  V30 6185 N 572.025 -1.5352 0.356285 0
M  V30 6186 C 573.272 -2.01117 -0.236303 0
M  V30 6187 C 573.6 -1.24381 -1.49531 0
M  V30 6188 O 572.855 -0.323057 -1.93015 0
M  V30 6189 C 573.154 -3.52607 -0.583369 0
M  V30 6190 C 572.82 -4.47151 0.58023 0
M  V30 6191 C 571.482 -4.72718 0.899528 0
M  V30 6192 C 573.834 -5.03137 1.36024 0
M  V30 6193 C 571.162 -5.51523 2.00098 0
M  V30 6194 C 573.514 -5.83145 2.45204 0
M  V30 6195 C 572.178 -6.07001 2.77679 0
M  V30 6196 H 571.448 -0.735938 -0.0864695 0
M  V30 6197 H 574.095 -1.85209 0.48683 0
M  V30 6198 H 572.4 -3.66413 -1.38739 0
M  V30 6199 H 574.097 -3.86901 -1.05397 0
M  V30 6200 H 570.687 -4.27394 0.321322 0
M  V30 6201 H 574.871 -4.83339 1.12682 0
M  V30 6202 H 570.127 -5.68229 2.25668 0
M  V30 6203 H 574.301 -6.25537 3.06067 0
M  V30 6204 H 571.928 -6.67851 3.63151 0
M  V30 6205 N 573.503 -0.0852151 -1.57369 0
M  V30 6206 C 574.466 0.8627 -2.12344 0
M  V30 6207 C 575.466 1.21746 -1.05046 0
M  V30 6208 O 576.656 1.14852 -1.30976 0
M  V30 6209 C 573.788 2.1618 -2.63589 0
M  V30 6210 H 574.981 0.385511 -2.97412 0
M  V30 6211 H 572.534 0.163663 -1.55441 0
M  V30 6212 H 573.269 2.68406 -1.82013 0
M  V30 6213 H 573.054 1.91723 -3.4203 0
M  V30 6214 H 574.544 2.84011 -3.06149 0
M  V30 6215 N 574.981 1.5647 0.188427 0
M  V30 6216 C 575.928 1.95073 1.23349 0
M  V30 6217 C 576.898 0.812238 1.44886 0
M  V30 6218 O 578.083 1.07095 1.57909 0
M  V30 6219 C 575.223 2.30124 2.57171 0
M  V30 6220 C 574.336 3.57069 2.43157 0
M  V30 6221 C 573.471 3.81411 3.69729 0
M  V30 6222 C 572.51 5.0176 3.50575 0
M  V30 6223 N 571.647 5.22321 4.69175 0
M  V30 6224 H 576.487 2.84171 0.89728 0
M  V30 6225 H 574.024 1.40623 0.431683 0
M  V30 6226 H 575.982 2.48463 3.35145 0
M  V30 6227 H 574.612 1.44159 2.88822 0
M  V30 6228 H 573.664 3.4674 1.56447 0
M  V30 6229 H 574.976 4.452 2.24942 0
M  V30 6230 H 574.13 4.00026 4.56141 0
M  V30 6231 H 572.869 2.91624 3.90905 0
M  V30 6232 H 571.874 4.83061 2.62549 0
M  V30 6233 H 573.099 5.93063 3.30837 0
M  V30 6234 H 571.045 4.35483 4.90602 0
M  V30 6235 H 570.962 6.04643 4.53809 0
M  V30 6236 H 572.23 5.45401 5.56919 0
M  V30 6237 N 576.459 -0.456382 1.50847 0
M  V30 6238 C 577.406 -1.55249 1.70782 0
M  V30 6239 C 578.376 -1.56757 0.549231 0
M  V30 6240 O 579.561 -1.74061 0.7815 0
M  V30 6241 C 576.701 -2.93118 1.82143 0
M  V30 6242 C 575.814 -3.01285 3.09598 0
M  V30 6243 C 574.949 -4.30159 3.11667 0
M  V30 6244 C 573.988 -4.32124 4.33515 0
M  V30 6245 N 573.125 -5.52492 4.3324 0
M  V30 6246 H 577.965 -1.37555 2.64353 0
M  V30 6247 H 575.502 -0.668543 1.3103 0
M  V30 6248 H 577.46 -3.73088 1.86711 0
M  V30 6249 H 576.09 -3.09413 0.919978 0
M  V30 6250 H 575.142 -2.14096 3.14431 0
M  V30 6251 H 576.454 -2.98597 3.99551 0
M  V30 6252 H 575.608 -5.18489 3.15046 0
M  V30 6253 H 574.347 -4.35477 2.1957 0
M  V30 6254 H 573.352 -3.42189 4.30333 0
M  V30 6255 H 574.577 -4.28485 5.26856 0
M  V30 6256 H 572.523 -5.58567 3.44004 0
M  V30 6257 H 572.44 -5.51605 5.16979 0
M  V30 6258 H 573.708 -6.42906 4.40786 0
M  V30 6259 N 577.937 -1.40673 -0.710563 0
M  V30 6260 C 579.184 -1.39222 -1.47049 0
M  V30 6261 C 579.512 0.0037691 -1.945 0
M  V30 6262 O 578.767 0.989224 -1.68857 0
M  V30 6263 C 579.066 -2.33253 -2.70791 0
M  V30 6264 C 578.732 -3.80406 -2.42079 0
M  V30 6265 C 577.394 -4.20496 -2.33959 0
M  V30 6266 C 579.746 -4.73375 -2.18094 0
M  V30 6267 C 577.074 -5.51584 -1.99929 0
M  V30 6268 C 579.426 -6.04768 -1.85576 0
M  V30 6269 C 578.09 -6.43895 -1.75941 0
M  V30 6270 H 577.36 -0.509449 -0.538092 0
M  V30 6271 H 580.007 -1.73363 -0.81348 0
M  V30 6272 H 578.312 -1.92314 -3.41354 0
M  V30 6273 H 580.009 -2.29412 -3.28894 0
M  V30 6274 H 576.599 -3.48645 -2.49288 0
M  V30 6275 H 580.783 -4.43217 -2.23321 0
M  V30 6276 H 576.039 -5.80797 -1.91011 0
M  V30 6277 H 580.213 -6.76318 -1.66033 0
M  V30 6278 H 577.84 -7.45387 -1.4934 0
M  V30 6279 N 579.415 0.9433 -1.26252 0
M  V30 6280 C 580.661 1.69175 -1.11837 0
M  V30 6281 C 580.994 1.91238 0.337891 0
M  V30 6282 O 580.269 1.49152 1.24836 0
M  V30 6283 C 580.552 3.06783 -1.88563 0
M  V30 6284 C 580.405 2.9206 -3.42083 0
M  V30 6285 C 581.724 4.06865 -1.67776 0
M  V30 6286 H 578.843 0.61399 -0.407658 0
M  V30 6287 H 581.485 1.09572 -1.55222 0
M  V30 6288 H 579.635 3.57663 -1.51689 0
M  V30 6289 H 581.307 2.48419 -3.88698 0
M  V30 6290 H 579.55 2.27731 -3.69217 0
M  V30 6291 H 580.221 3.89651 -3.90994 0
M  V30 6292 H 582.697 3.64939 -1.99897 0
M  V30 6293 H 581.573 5.01168 -2.23879 0
M  V30 6294 H 581.834 4.37705 -0.621816 0
M  V30 6295 N 580.893 1.08022 1.14757 0
M  V30 6296 C 582.139 0.808705 1.85978 0
M  V30 6297 C 582.472 -0.663764 1.82504 0
M  V30 6298 O 581.747 -1.48765 1.25296 0
M  V30 6299 C 582.03 1.32623 3.34788 0
M  V30 6300 C 581.883 2.86375 3.46856 0
M  V30 6301 C 583.202 0.948291 4.29762 0
M  V30 6302 H 580.321 0.295244 0.675278 0
M  V30 6303 H 582.963 1.33917 1.34783 0
M  V30 6304 H 581.113 0.875002 3.78518 0
M  V30 6305 H 582.785 3.39839 3.11941 0
M  V30 6306 H 581.028 3.24232 2.88194 0
M  V30 6307 H 581.699 3.17658 4.51439 0
M  V30 6308 H 584.175 1.33722 3.94028 0
M  V30 6309 H 583.051 1.33765 5.32352 0
M  V30 6310 H 583.312 -0.145094 4.41862 0
M  V30 6311 N 582.371 -1.3172 0.865308 0
M  V30 6312 C 583.601 -2.00765 0.487543 0
M  V30 6313 C 584.009 -1.65145 -0.92325 0
M  V30 6314 O 583.352 -0.874294 -1.61561 0
M  V30 6315 C 583.414 -3.55122 0.559369 0
M  V30 6316 C 583.078 -4.14202 1.93095 0
M  V30 6317 C 584.075 -4.3165 2.89784 0
M  V30 6318 C 581.76 -4.50036 2.23099 0
M  V30 6319 C 583.754 -4.84114 4.14623 0
M  V30 6320 C 581.441 -5.02203 3.48189 0
M  V30 6321 C 582.439 -5.19192 4.43767 0
M  V30 6322 O 582.127 -5.70241 5.6664 0
M  V30 6323 H 581.859 -0.649066 0.188915 0
M  V30 6324 H 584.413 -1.69032 1.16694 0
M  V30 6325 H 582.643 -3.86295 -0.176926 0
M  V30 6326 H 584.332 -4.05428 0.195694 0
M  V30 6327 H 585.098 -4.04288 2.6791 0
M  V30 6328 H 580.977 -4.36091 1.49485 0
M  V30 6329 H 584.521 -4.9729 4.89233 0
M  V30 6330 H 580.418 -5.28997 3.69908 0
M  V30 6331 H 581.186 -5.88617 5.68746 0
M  V30 6332 N 583.85 -0.624285 -1.44708 0
M  V30 6333 C 584.76 0.0861083 -2.34442 0
M  V30 6334 C 585.776 0.84291 -1.5222 0
M  V30 6335 O 586.952 0.796723 -1.84971 0
M  V30 6336 C 584.017 1.05999 -3.30099 0
M  V30 6337 C 583.077 0.303316 -4.28227 0
M  V30 6338 C 582.311 1.23081 -5.19314 0
M  V30 6339 O 582.534 2.46929 -5.14181 0
M  V30 6340 O 581.468 0.71883 -5.97592 0
M  V30 6341 H 585.293 -0.651756 -2.96624 0
M  V30 6342 H 582.879 -0.384493 -1.44368 0
M  V30 6343 H 584.76 1.62046 -3.88997 0
M  V30 6344 H 583.436 1.77859 -2.70459 0
M  V30 6345 H 582.343 -0.300033 -3.72895 0
M  V30 6346 H 583.676 -0.375123 -4.90768 0
M  V30 6347 N 585.328 1.53329 -0.364422 0
M  V30 6348 C 586.574 2.01537 0.225969 0
M  V30 6349 C 586.907 1.25128 1.48515 0
M  V30 6350 O 586.182 0.344653 1.91422 0
M  V30 6351 C 586.465 3.56339 0.519092 0
M  V30 6352 C 586.318 4.43441 -0.753639 0
M  V30 6353 C 587.637 4.19833 1.32015 0
M  V30 6354 H 584.756 0.732573 0.0806548 0
M  V30 6355 H 587.398 1.83597 -0.489084 0
M  V30 6356 H 585.548 3.71756 1.12825 0
M  V30 6357 H 587.22 4.39823 -1.39116 0
M  V30 6358 H 585.463 4.11457 -1.37424 0
M  V30 6359 H 586.134 5.49699 -0.503517 0
M  V30 6360 H 588.61 4.08242 0.804859 0
M  V30 6361 H 587.486 5.28177 1.49399 0
M  V30 6362 H 587.747 3.75821 2.32832 0
M  V30 6363 N 586.806 0.0935595 1.57322 0
M  V30 6364 C 587.736 -0.863062 2.16964 0
M  V30 6365 C 588.717 -1.29528 1.10256 0
M  V30 6366 O 589.902 -1.36245 1.38387 0
M  V30 6367 C 587.032 -2.12276 2.74875 0
M  V30 6368 C 585.986 -1.82921 3.86942 0
M  V30 6369 C 585.312 -3.15707 4.31548 0
M  V30 6370 C 586.612 -1.11737 5.10208 0
M  V30 6371 H 588.306 -0.366145 2.97153 0
M  V30 6372 H 585.852 -0.174673 1.42937 0
M  V30 6373 H 587.805 -2.79634 3.1525 0
M  V30 6374 H 586.529 -2.64248 1.91938 0
M  V30 6375 H 585.188 -1.17961 3.47103 0
M  V30 6376 H 584.836 -3.65563 3.45504 0
M  V30 6377 H 584.536 -2.96849 5.07104 0
M  V30 6378 H 586.06 -3.84226 4.74555 0
M  V30 6379 H 587.474 -1.69203 5.47762 0
M  V30 6380 H 585.871 -1.03064 5.91183 0
M  V30 6381 H 586.941 -0.0998818 4.84797 0
M  V30 6382 N 588.284 -1.56567 -0.180126 0
M  V30 6383 C 589.7 -1.50488 -0.531559 0
M  V30 6384 C 589.9 -0.796267 -1.851 0
M  V30 6385 O 588.956 -0.352978 -2.50021 0
M  V30 6386 C 590.269 -2.95201 -0.572456 0
M  V30 6387 C 591.817 -3.05957 -0.660264 0
M  V30 6388 C 592.292 -4.5211 -0.732135 0
M  V30 6389 N 593.783 -4.56322 -0.795262 0
M  V30 6390 C 594.518 -5.66742 -0.871296 0
M  V30 6391 N 594.014 -6.86815 -0.908708 0
M  V30 6392 N 595.807 -5.54691 -0.909639 0
M  V30 6393 H 587.958 -2.01045 0.685165 0
M  V30 6394 H 590.221 -0.915536 0.245962 0
M  V30 6395 H 589.927 -3.50165 0.328208 0
M  V30 6396 H 589.801 -3.49369 -1.422 0
M  V30 6397 H 592.188 -2.51032 -1.55136 0
M  V30 6398 H 592.269 -2.54888 0.215783 0
M  V30 6399 H 591.913 -5.07664 0.154664 0
M  V30 6400 H 591.843 -5.00926 -1.6242 0
M  V30 6401 H 594.334 -3.69868 -0.77499 0
M  V30 6402 H 594.647 -7.66718 -0.967654 0
M  V30 6403 H 592.992 -6.89443 -0.877132 0
M  V30 6404 H 596.183 -4.59804 -0.877353 0
M  V30 6405 H 596.356 -6.40768 -0.965434 0
M  V30 6406 N 589.762 0.448376 -1.51087 0
M  V30 6407 C 590.672 1.56882 -1.74428 0
M  V30 6408 C 591.688 1.62268 -0.62809 0
M  V30 6409 O 592.864 1.79716 -0.909075 0
M  V30 6410 C 589.929 2.92947 -1.85426 0
M  V30 6411 C 588.99 2.97766 -3.09247 0
M  V30 6412 C 588.223 4.27341 -3.19711 0
M  V30 6413 O 588.446 5.19112 -2.36387 0
M  V30 6414 O 587.38 4.38219 -4.12611 0
M  V30 6415 H 591.206 1.40104 -2.69452 0
M  V30 6416 H 588.791 0.630247 -1.35456 0
M  V30 6417 H 590.673 3.73719 -1.94709 0
M  V30 6418 H 589.348 3.09876 -0.935887 0
M  V30 6419 H 588.255 2.15989 -3.0545 0
M  V30 6420 H 589.588 2.8578 -4.00738 0
M  V30 6421 N 591.24 1.41047 0.703093 0
M  V30 6422 C 592.517 1.30493 1.45708 0
M  V30 6423 C 592.897 -0.0709892 2.10981 0
M  V30 6424 O 592.245 -1.08471 2.01113 0
M  V30 6425 C 592.455 2.45287 2.48265 0
M  V30 6426 C 593.803 2.86104 3.13735 0
M  V30 6427 O 594.827 2.44971 2.58587 0
M  V30 6428 O 593.686 3.57206 4.13601 0
M  V30 6429 H 590.78 0.513144 0.648546 0
M  V30 6430 H 593.326 1.52995 0.734208 0
M  V30 6431 H 592.098 3.37135 1.98635 0
M  V30 6432 H 591.721 2.24622 3.28071 0
M  V30 6433 N 592.718 -0.936591 1.26751 0
M  V30 6434 C 593.628 -2.06949 1.10496 0
M  V30 6435 C 594.644 -1.7396 0.037271 0
M  V30 6436 O 595.82 -1.99941 0.241944 0
M  V30 6437 C 592.885 -3.38612 0.744491 0
M  V30 6438 C 591.946 -3.85355 1.89209 0
M  V30 6439 C 591.179 -5.10735 1.54873 0
M  V30 6440 O 591.402 -5.68602 0.452546 0
M  V30 6441 O 590.336 -5.52632 2.38499 0
M  V30 6442 H 594.162 -2.23571 2.05547 0
M  V30 6443 H 591.747 -1.05428 1.05855 0
M  V30 6444 H 593.629 -4.17711 0.556396 0
M  V30 6445 H 592.304 -3.23218 -0.176582 0
M  V30 6446 H 591.211 -3.07182 2.13518 0
M  V30 6447 H 592.544 -4.05277 2.79305 0
M  V30 6448 N 594.196 -1.08629 -1.14182 0
M  V30 6449 C 595.443 -0.817345 -1.85272 0
M  V30 6450 C 595.771 0.656917 -1.83071 0
M  V30 6451 O 595.026 1.49897 -1.25815 0
M  V30 6452 C 595.325 -1.28734 -3.3341 0
M  V30 6453 C 594.991 -2.76981 -3.55798 0
M  V30 6454 C 593.653 -3.17469 -3.61617 0
M  V30 6455 C 596.005 -3.72605 -3.64438 0
M  V30 6456 C 593.333 -4.52371 -3.736 0
M  V30 6457 C 595.685 -5.07286 -3.77947 0
M  V30 6458 C 594.349 -5.47376 -3.82016 0
M  V30 6459 H 593.619 -0.299088 -0.677958 0
M  V30 6460 H 596.266 -1.35962 -1.34857 0
M  V30 6461 H 594.571 -0.664702 -3.8612 0
M  V30 6462 H 596.268 -1.05598 -3.86846 0
M  V30 6463 H 592.858 -2.44644 -3.51919 0
M  V30 6464 H 597.042 -3.42443 -3.5923 0
M  V30 6465 H 592.298 -4.82882 -3.75013 0
M  V30 6466 H 596.472 -5.81243 -3.83575 0
M  V30 6467 H 594.099 -6.51906 -3.91054 0
M  V30 6468 N 595.674 1.31259 -0.872281 0
M  V30 6469 C 596.899 2.0133 -0.498099 0
M  V30 6470 C 597.324 1.65031 0.902568 0
M  V30 6471 O 596.682 0.860164 1.59596 0
M  V30 6472 C 596.73 3.54411 -0.665205 0
M  V30 6473 O 595.834 4.11347 0.294473 0
M  V30 6474 H 595.175 0.633844 -0.197832 0
M  V30 6475 H 597.705 1.67402 -1.17633 0
M  V30 6476 H 597.715 4.04147 -0.559373 0
M  V30 6477 H 596.39 3.80171 -1.68651 0
M  V30 6478 H 594.967 3.72624 0.143403 0
M  V30 6479 N 597.152 0.631951 1.44375 0
M  V30 6480 C 598.563 0.219036 1.85411 0
M  V30 6481 C 598.914 -1.22974 1.52879 0
M  V30 6482 O 598.039 -1.93579 0.967266 0
M  V30 6483 C 598.634 0.39075 3.36539 0
M  V30 6484 C 597.193 0.0323351 3.76386 0
M  V30 6485 C 596.34 0.703744 2.68221 0
M  V30 6486 H 599.291 0.837056 1.3483 0
M  V30 6487 H 599.312 -0.370056 3.78696 0
M  V30 6488 H 598.824 1.44527 3.60185 0
M  V30 6489 H 596.925 -1.02042 3.58355 0
M  V30 6490 H 597.038 0.442969 4.77048 0
M  V30 6491 H 595.402 0.138974 2.54321 0
M  V30 6492 H 596.185 1.76088 2.947 0
M  V30 6493 N 598.631 -1.53133 0.372548 0
M  V30 6494 C 599.561 -2.28876 -0.462412 0
M  V30 6495 C 600.542 -1.31583 -1.07796 0
M  V30 6496 O 601.727 -1.60461 -1.09389 0
M  V30 6497 C 598.857 -3.08317 -1.59868 0
M  V30 6498 C 597.811 -4.13355 -1.11003 0
M  V30 6499 C 597.137 -4.8092 -2.33708 0
M  V30 6500 C 598.437 -5.21955 -0.18983 0
M  V30 6501 H 600.131 -2.9892 0.169511 0
M  V30 6502 H 597.677 -1.43761 0.0829658 0
M  V30 6503 H 599.63 -3.60055 -2.18949 0
M  V30 6504 H 598.354 -2.35976 -2.25794 0
M  V30 6505 H 597.013 -3.62573 -0.541869 0
M  V30 6506 H 596.661 -4.05144 -2.98106 0
M  V30 6507 H 596.361 -5.51904 -2.01682 0
M  V30 6508 H 597.885 -5.35455 -2.93462 0
M  V30 6509 H 599.299 -5.69153 -0.688319 0
M  V30 6510 H 597.696 -6.00087 0.0398887 0
M  V30 6511 H 598.766 -4.78811 0.766057 0
M  V30 6512 N 600.109 -0.101901 -1.5727 0
M  V30 6513 C 601.056 0.854577 -2.14396 0
M  V30 6514 C 602.026 1.27521 -1.06432 0
M  V30 6515 O 603.211 1.35575 -1.34253 0
M  V30 6516 C 600.351 2.10576 -2.73408 0
M  V30 6517 C 599.464 1.73504 -3.95626 0
M  V30 6518 C 598.599 2.9346 -4.42781 0
M  V30 6519 C 597.638 2.52547 -5.57572 0
M  V30 6520 N 596.775 3.65359 -5.99547 0
M  V30 6521 H 601.615 0.360578 -2.9581 0
M  V30 6522 H 599.152 0.166303 -1.46157 0
M  V30 6523 H 601.11 2.83859 -3.05745 0
M  V30 6524 H 599.74 2.57463 -1.94711 0
M  V30 6525 H 598.792 0.901622 -3.6956 0
M  V30 6526 H 600.104 1.39426 -4.78917 0
M  V30 6527 H 599.258 3.74988 -4.76937 0
M  V30 6528 H 597.997 3.30753 -3.58404 0
M  V30 6529 H 597.002 1.69446 -5.23037 0
M  V30 6530 H 598.227 2.1639 -6.43702 0
M  V30 6531 H 596.173 4.02358 -5.18116 0
M  V30 6532 H 596.09 3.35148 -6.77652 0
M  V30 6533 H 597.358 4.47378 -6.38336 0
M  V30 6534 N 601.587 1.56661 0.17182 0
M  V30 6535 C 602.535 1.97289 1.23207 0
M  V30 6536 C 603.529 0.861566 1.45854 0
M  V30 6537 O 604.735 1.04668 1.4644 0
M  V30 6538 H 601.11 0.627681 0.41415 0
M  V30 6539 H 603.081 2.85662 0.862542 0
M  V30 6540 C 601.83 2.34849 2.564 0
M  V30 6541 H 601.153 3.19903 2.39797 0
M  V30 6542 H 602.593 2.67121 3.29276 0
M  V30 6543 C 601.052 1.19172 3.15119 0
M  V30 6544 O 601.582 0.479113 3.98833 0
M  V30 6545 N 599.788 0.962415 2.74201 0
M  V30 6546 H 599.335 1.54365 2.06226 0
M  V30 6547 H 599.293 0.190272 3.13824 0
M  V30 6548 N 603.065 -0.440357 1.51323 0
M  V30 6549 C 604.028 -1.51679 1.71832 0
M  V30 6550 C 605.028 -1.49648 0.588386 0
M  V30 6551 O 606.218 -1.51724 0.855891 0
M  V30 6552 C 603.35 -2.91228 1.77199 0
M  V30 6553 H 604.543 -1.34799 2.67898 0
M  V30 6554 H 602.096 -0.66883 1.41267 0
M  V30 6555 H 602.831 -3.13516 0.829363 0
M  V30 6556 H 602.616 -2.94107 2.59314 0
M  V30 6557 H 604.106 -3.69321 1.94915 0
M  V30 6558 N 604.543 -1.41418 -0.695603 0
M  V30 6559 C 605.82 -1.31264 -1.45014 0
M  V30 6560 C 606.2 0.0597994 -2.11015 0
M  V30 6561 O 605.548 1.07403 -2.01685 0
M  V30 6562 C 605.758 -2.466 -2.4696 0
M  V30 6563 C 607.106 -2.87763 -3.12214 0
M  V30 6564 O 608.13 -2.46339 -2.57285 0
M  V30 6565 O 606.989 -3.59395 -4.11701 0
M  V30 6566 H 604.083 -0.516576 -0.645816 0
M  V30 6567 H 606.629 -1.53382 -0.726084 0
M  V30 6568 H 605.401 -3.38183 -1.96845 0
M  V30 6569 H 605.024 -2.26358 -3.26876 0
M  V30 6570 N 606.021 0.929856 -1.27246 0
M  V30 6571 C 607.246 1.71674 -1.16374 0
M  V30 6572 C 607.671 1.86064 0.276024 0
M  V30 6573 O 607.029 1.3591 1.19992 0
M  V30 6574 C 607.077 3.09526 -1.85003 0
M  V30 6575 O 606.181 3.96142 -1.14653 0
M  V30 6576 H 605.522 0.52629 -0.404863 0
M  V30 6577 H 608.052 1.16381 -1.68276 0
M  V30 6578 H 608.062 3.59852 -1.92276 0
M  V30 6579 H 606.737 2.98369 -2.89739 0
M  V30 6580 H 605.314 3.54584 -1.15433 0
M  V30 6581 N 607.499 1.09233 1.13605 0
M  V30 6582 C 608.431 0.687794 2.18637 0
M  V30 6583 C 609.444 -0.26936 1.60556 0
M  V30 6584 O 610.633 -0.0557162 1.78413 0
M  V30 6585 C 607.733 -0.00751901 3.38899 0
M  V30 6586 C 606.906 0.97067 4.26494 0
M  V30 6587 C 605.965 0.309129 5.25291 0
M  V30 6588 O 604.991 0.956149 5.61112 0
M  V30 6589 N 606.193 -0.937555 5.72879 0
M  V30 6590 H 608.958 1.59141 2.53957 0
M  V30 6591 H 606.519 0.979515 1.28907 0
M  V30 6592 H 608.511 -0.461238 4.02063 0
M  V30 6593 H 607.081 -0.813353 3.01833 0
M  V30 6594 H 606.301 1.603 3.60135 0
M  V30 6595 H 607.589 1.63323 4.81875 0
M  V30 6596 H 606.987 -1.48281 5.4592 0
M  V30 6597 H 605.544 -1.33463 6.3799 0
M  V30 6598 N 608.977 -1.30795 0.87923 0
M  V30 6599 C 609.925 -2.30231 0.331112 0
M  V30 6600 C 610.919 -1.59918 -0.558794 0
M  V30 6601 O 612.125 -1.74441 -0.443866 0
M  V30 6602 H 608.5 -0.746785 0.088409 0
M  V30 6603 H 610.471 -2.73925 1.18353 0
M  V30 6604 C 609.22 -3.44848 -0.444401 0
M  V30 6605 H 608.543 -3.99131 0.231106 0
M  V30 6606 H 609.983 -4.16516 -0.793109 0
M  V30 6607 C 608.442 -2.94329 -1.63926 0
M  V30 6608 O 608.972 -2.93875 -2.73862 0
M  V30 6609 N 607.178 -2.50413 -1.4745 0
M  V30 6610 H 606.725 -2.50982 -0.58015 0
M  V30 6611 H 606.683 -2.16969 -2.27534 0
M  V30 6612 N 610.455 -0.639598 -1.44038 0
M  V30 6613 C 611.703 -0.147188 -2.01563 0
M  V30 6614 C 612.024 1.2384 -1.50628 0
M  V30 6615 O 611.294 1.82452 -0.713316 0
M  V30 6616 H 609.874 -0.0514231 -0.745228 0
M  V30 6617 H 612.536 -0.828205 -1.76428 0
M  V30 6618 H 611.632 -0.121358 -3.11864 0
M  V30 6619 N 611.933 1.52934 -0.380664 0
M  V30 6620 C 612.88 2.26197 0.458641 0
M  V30 6621 C 613.85 1.27462 1.06502 0
M  V30 6622 O 615.035 1.56274 1.09467 0
M  V30 6623 C 612.175 3.06571 1.58456 0
M  V30 6624 C 611.288 4.20222 1.00189 0
M  V30 6625 C 610.423 4.88007 2.09815 0
M  V30 6626 C 609.462 5.93665 1.49092 0
M  V30 6627 N 608.599 6.55081 2.52613 0
M  V30 6628 H 613.439 2.975 -0.172595 0
M  V30 6629 H 610.976 1.4678 -0.0969426 0
M  V30 6630 H 612.934 3.51455 2.24801 0
M  V30 6631 H 611.564 2.37494 2.18624 0
M  V30 6632 H 610.616 3.79714 0.228292 0
M  V30 6633 H 611.928 4.96102 0.518064 0
M  V30 6634 H 611.082 5.36151 2.83948 0
M  V30 6635 H 609.821 4.11632 2.61555 0
M  V30 6636 H 608.826 5.44868 0.7348 0
M  V30 6637 H 610.051 6.71969 0.981582 0
M  V30 6638 H 607.997 5.8155 3.03538 0
M  V30 6639 H 607.914 7.26548 2.08961 0
M  V30 6640 H 609.182 7.07871 3.26402 0
M  V30 6641 N 613.412 0.11024 1.57214 0
M  V30 6642 C 614.689 -0.592956 1.86396 0
M  V30 6643 C 615.069 -1.85379 1.00985 0
M  V30 6644 O 614.417 -2.28337 0.0863592 0
M  V30 6645 C 614.627 -0.893816 3.3736 0
M  V30 6646 C 615.975 -1.25069 4.05762 0
M  V30 6647 O 616.999 -0.984356 3.42329 0
M  V30 6648 O 615.858 -1.75017 5.17718 0
M  V30 6649 H 612.952 -0.29828 0.771335 0
M  V30 6650 H 615.498 0.144083 1.69087 0
M  V30 6651 H 614.27 2.6031e-05 3.913 0
M  V30 6652 H 613.893 -1.68631 3.60068 0
M  V30 6653 N 614.89 -1.56749 -0.16351 0
M  V30 6654 C 615.838 -1.97939 -1.22159 0
M  V30 6655 C 616.832 -0.869288 -1.45395 0
M  V30 6656 O 618.038 -1.05443 -1.45883 0
M  V30 6657 H 614.413 -0.629869 -0.410815 0
M  V30 6658 H 616.384 -2.86115 -0.847381 0
M  V30 6659 C 615.133 -2.36206 -2.55151 0
M  V30 6660 H 614.456 -3.2117 -2.38097 0
M  V30 6661 H 615.896 -2.68863 -3.27854 0
M  V30 6662 C 614.355 -1.20841 -3.14482 0
M  V30 6663 O 614.885 -0.500258 -3.98573 0
M  V30 6664 N 613.091 -0.976943 -2.73686 0
M  V30 6665 H 612.638 -1.55457 -2.05404 0
M  V30 6666 H 612.596 -0.206912 -3.13718 0
M  V30 6667 N 616.368 0.432326 -1.51554 0
M  V30 6668 C 617.779 1.01202 -1.56892 0
M  V30 6669 C 618.13 1.92175 -0.395394 0
M  V30 6670 O 617.255 2.10844 0.487198 0
M  V30 6671 C 617.85 1.84217 -2.8434 0
M  V30 6672 C 616.409 2.37228 -2.92233 0
M  V30 6673 C 615.556 1.16576 -2.51606 0
M  V30 6674 H 618.507 0.213407 -1.57259 0
M  V30 6675 H 618.528 2.69721 -2.68385 0
M  V30 6676 H 618.04 1.17979 -3.69733 0
M  V30 6677 H 616.141 3.06905 -2.11282 0
M  V30 6678 H 616.254 2.69682 -3.95991 0
M  V30 6679 H 614.618 1.51263 -2.04919 0
M  V30 6680 H 615.401 0.519404 -3.39348 0
M  V30 6681 N 617.846 1.41785 0.688094 0
M  V30 6682 C 619.074 1.44915 1.47673 0
M  V30 6683 C 619.489 0.0565786 1.88715 0
M  V30 6684 O 618.846 -0.92579 1.57275 0
M  V30 6685 C 618.897 2.36452 2.73446 0
M  V30 6686 O 618.618 3.7029 2.34131 0
M  V30 6687 C 620.119 2.48463 3.67125 0
M  V30 6688 H 617.339 0.493324 0.454832 0
M  V30 6689 H 619.883 1.86153 0.846594 0
M  V30 6690 H 618.038 1.98502 3.3268 0
M  V30 6691 H 618.452 4.19183 3.15255 0
M  V30 6692 H 619.926 3.16662 4.52138 0
M  V30 6693 H 620.403 1.51826 4.12123 0
M  V30 6694 H 621.009 2.8708 3.13792 0
M  V30 6695 N 619.324 -0.923095 1.27737 0
M  V30 6696 C 620.552 -1.70525 1.17171 0
M  V30 6697 C 620.967 -1.86847 -0.270881 0
M  V30 6698 O 620.324 -1.38879 -1.18401 0
M  V30 6699 C 620.375 -3.10242 1.85559 0
M  V30 6700 O 620.096 -2.94683 3.24182 0
M  V30 6701 C 621.597 -4.04586 1.81176 0
M  V30 6702 H 618.817 -0.533347 0.407163 0
M  V30 6703 H 621.361 -1.15599 1.68692 0
M  V30 6704 H 619.516 -3.62014 1.3793 0
M  V30 6705 H 619.93 -3.83045 3.58297 0
M  V30 6706 H 621.404 -5.00119 2.33633 0
M  V30 6707 H 621.881 -4.3218 0.782099 0
M  V30 6708 H 622.487 -3.58741 2.2844 0
M  V30 6709 N 620.802 -1.09834 -1.13024 0
M  V30 6710 C 621.765 -0.745058 -2.16752 0
M  V30 6711 C 622.765 0.227435 -1.59183 0
M  V30 6712 O 623.955 0.0050786 -1.74199 0
M  V30 6713 C 621.087 -0.102543 -3.40746 0
M  V30 6714 H 622.28 -1.66375 -2.49518 0
M  V30 6715 H 619.833 -0.898061 -1.27924 0
M  V30 6716 H 620.568 0.827177 -3.13573 0
M  V30 6717 H 620.353 -0.80235 -3.83803 0
M  V30 6718 H 621.843 0.129082 -4.174 0
M  V30 6719 N 622.28 1.30327 -0.886154 0
M  V30 6720 C 623.696 1.48676 -0.580323 0
M  V30 6721 C 623.896 1.81189 0.881639 0
M  V30 6722 O 622.952 1.90021 1.66278 0
M  V30 6723 C 624.265 2.60932 -1.49449 0
M  V30 6724 C 625.813 2.74812 -1.49824 0
M  V30 6725 C 626.288 3.90183 -2.39836 0
M  V30 6726 N 627.779 3.97495 -2.37806 0
M  V30 6727 C 628.514 4.86078 -3.04165 0
M  V30 6728 N 628.01 5.79448 -3.79753 0
M  V30 6729 N 629.803 4.79456 -2.93391 0
M  V30 6730 H 621.954 1.07495 -1.8319 0
M  V30 6731 H 624.217 0.532661 -0.784204 0
M  V30 6732 H 623.923 2.43731 -2.5355 0
M  V30 6733 H 623.797 3.57437 -1.20494 0
M  V30 6734 H 626.184 2.91418 -0.464731 0
M  V30 6735 H 626.265 1.78924 -1.82811 0
M  V30 6736 H 625.909 3.74334 -3.43273 0
M  V30 6737 H 625.839 4.85411 -2.04166 0
M  V30 6738 H 628.33 3.30703 -1.82877 0
M  V30 6739 H 628.643 6.43805 -4.27475 0
M  V30 6740 H 626.988 5.79376 -3.8386 0
M  V30 6741 H 630.179 4.05494 -2.33864 0
M  V30 6742 H 630.352 5.48283 -3.45383 0
M  V30 6743 N 623.758 0.647228 1.43697 0
M  V30 6744 C 624.708 -0.0702191 2.27892 0
M  V30 6745 C 625.692 -0.800601 1.39568 0
M  V30 6746 O 626.884 -0.684055 1.63247 0
M  V30 6747 C 624.013 -1.04008 3.27165 0
M  V30 6748 C 623.099 -0.308484 4.22977 0
M  V30 6749 N 623.49 0.671721 5.0132 0
M  V30 6750 C 621.788 -0.550751 4.42586 0
M  V30 6751 C 622.489 1.10543 5.711 0
M  V30 6752 N 621.465 0.440903 5.41809 0
M  V30 6753 H 625.267 0.682031 2.85877 0
M  V30 6754 H 622.781 0.474022 1.55328 0
M  V30 6755 H 624.778 -1.56881 3.86256 0
M  V30 6756 H 623.438 -1.79246 2.70742 0
M  V30 6757 H 624.449 1.0502 5.0714 0
M  V30 6758 H 621.126 -1.28476 3.97241 0
M  V30 6759 H 622.516 1.91614 6.43998 0
M  V30 6760 N 625.236 -1.5273 0.388769 0
M  V30 6761 C 626.199 -2.25043 -0.434544 0
M  V30 6762 C 627.199 -1.26661 -0.990644 0
M  V30 6763 O 628.389 -1.50762 -0.872731 0
M  V30 6764 C 625.521 -3.00507 -1.60961 0
M  V30 6765 H 626.714 -2.99242 0.198549 0
M  V30 6766 H 624.267 -1.55664 0.140875 0
M  V30 6767 H 625.002 -2.30607 -2.28015 0
M  V30 6768 H 624.787 -3.72716 -1.21757 0
M  V30 6769 H 626.277 -3.55413 -2.19251 0
M  V30 6770 N 626.714 -0.118576 -1.57153 0
M  V30 6771 C 627.644 0.828436 -2.1831 0
M  V30 6772 C 628.625 1.27758 -1.12303 0
M  V30 6773 O 629.81 1.34026 -1.40537 0
M  V30 6774 C 626.94 2.07876 -2.78217 0
M  V30 6775 C 625.894 1.76742 -3.89803 0
M  V30 6776 C 625.22 3.08801 -4.36516 0
M  V30 6777 C 626.52 1.03606 -5.11921 0
M  V30 6778 H 628.214 0.318824 -2.97698 0
M  V30 6779 H 625.76 0.151911 -1.43196 0
M  V30 6780 H 627.713 2.74584 -3.19659 0
M  V30 6781 H 626.437 2.61161 -1.96118 0
M  V30 6782 H 625.096 1.12424 -3.48936 0
M  V30 6783 H 624.744 3.6002 -3.51276 0
M  V30 6784 H 624.444 2.88743 -5.11763 0
M  V30 6785 H 625.968 3.76627 -4.80608 0
M  V30 6786 H 627.382 1.60467 -5.50385 0
M  V30 6787 H 625.779 0.936454 -5.92748 0
M  V30 6788 H 626.849 0.0227421 -4.84895 0
M  V30 6789 N 628.193 1.56834 0.155195 0
M  V30 6790 C 629.126 1.9278 1.22111 0
M  V30 6791 C 630.104 0.792588 1.41975 0
M  V30 6792 O 631.288 1.04743 1.5672 0
M  V30 6793 C 628.415 2.19273 2.58142 0
M  V30 6794 C 627.461 3.41932 2.54921 0
M  V30 6795 S 628.294 4.95769 2.02418 0
M  V30 6796 C 629.45 5.25375 3.40194 0
M  V30 6797 H 629.683 2.82889 0.914393 0
M  V30 6798 H 627.216 1.50133 0.360461 0
M  V30 6799 H 629.174 2.35217 3.36427 0
M  V30 6800 H 627.835 1.29843 2.86007 0
M  V30 6801 H 627.028 3.57721 3.55038 0
M  V30 6802 H 626.63 3.25188 1.8474 0
M  V30 6803 H 628.922 5.1834 4.36268 0
M  V30 6804 H 629.865 6.26889 3.29266 0
M  V30 6805 H 630.273 4.52906 3.36951 0
M  V30 6806 N 629.671 -0.424282 1.51781 0
M  V30 6807 C 630.896 -1.19928 1.6921 0
M  V30 6808 C 631.321 -1.8392 0.394355 0
M  V30 6809 O 630.679 -1.69371 -0.646778 0
M  V30 6810 C 630.727 -2.24937 2.81843 0
M  V30 6811 O 629.831 -3.3073 2.46356 0
M  V30 6812 H 629.172 -0.35078 0.563781 0
M  V30 6813 H 631.702 -0.499401 1.98412 0
M  V30 6814 H 631.712 -2.69512 3.06312 0
M  V30 6815 H 630.387 -1.77742 3.76006 0
M  V30 6816 H 628.964 -2.9154 2.32505 0
M  V30 6817 N 631.149 -1.42148 -0.680565 0
M  V30 6818 C 632.079 -1.4796 -1.80638 0
M  V30 6819 C 633.06 -0.336728 -1.66734 0
M  V30 6820 O 634.245 -0.550247 -1.86242 0
M  V30 6821 C 631.375 -1.37569 -3.18892 0
M  V30 6822 C 630.329 -2.49823 -3.47524 0
M  V30 6823 C 629.655 -2.24491 -4.85291 0
M  V30 6824 C 630.955 -3.92144 -3.44994 0
M  V30 6825 H 632.649 -2.42184 -1.76032 0
M  V30 6826 H 630.195 -1.16566 -0.845481 0
M  V30 6827 H 632.148 -1.40243 -3.97379 0
M  V30 6828 H 630.872 -0.398357 -3.24162 0
M  V30 6829 H 629.531 -2.46455 -2.71395 0
M  V30 6830 H 629.179 -1.25066 -4.87204 0
M  V30 6831 H 628.879 -2.99722 -5.05411 0
M  V30 6832 H 630.403 -2.28906 -5.66069 0
M  V30 6833 H 631.817 -3.97145 -4.13459 0
M  V30 6834 H 630.214 -4.67179 -3.76648 0
M  V30 6835 H 631.284 -4.19225 -2.43676 0
M  V30 6836 N 632.627 0.916307 -1.28225 0
M  V30 6837 C 633.577 2.00488 -1.08574 0
M  V30 6838 C 634.561 1.60897 -0.0101874 0
M  V30 6839 O 635.753 1.75499 -0.230034 0
M  V30 6840 C 632.882 3.35076 -0.746943 0
M  V30 6841 C 631.968 3.81077 -1.86121 0
M  V30 6842 N 632.359 3.99475 -3.10247 0
M  V30 6843 C 630.657 4.10212 -1.75048 0
M  V30 6844 C 631.358 4.37965 -3.82834 0
M  V30 6845 N 630.334 4.4608 -3.10667 0
M  V30 6846 H 634.136 2.1276 -2.02757 0
M  V30 6847 H 631.65 1.10397 -1.19107 0
M  V30 6848 H 633.647 4.12743 -0.587252 0
M  V30 6849 H 632.307 3.2416 0.187146 0
M  V30 6850 H 633.318 3.85466 -3.45885 0
M  V30 6851 H 629.995 4.07947 -0.887999 0
M  V30 6852 H 631.385 4.60183 -4.89572 0
M  V30 6853 N 634.105 1.10431 1.1244 0
M  V30 6854 C 635.055 0.722378 2.16254 0
M  V30 6855 C 636.039 -0.268427 1.58645 0
M  V30 6856 O 637.231 -0.077169 1.76832 0
M  V30 6857 C 634.36 0.155763 3.42946 0
M  V30 6858 C 633.446 1.17361 4.07538 0
M  V30 6859 N 633.837 2.36429 4.47141 0
M  V30 6860 C 632.135 1.01412 4.34317 0
M  V30 6861 C 632.836 3.01259 4.97612 0
M  V30 6862 N 631.812 2.28777 4.93115 0
M  V30 6863 H 635.614 1.62876 2.4464 0
M  V30 6864 H 633.128 0.982031 1.29344 0
M  V30 6865 H 635.125 -0.135936 4.16678 0
M  V30 6866 H 633.785 -0.745339 3.1603 0
M  V30 6867 H 634.796 2.73954 4.39511 0
M  V30 6868 H 631.473 0.168574 4.1716 0
M  V30 6869 H 632.863 4.02541 5.37968 0
M  V30 6870 N 635.583 -1.29855 0.893053 0
M  V30 6871 C 636.823 -1.97612 0.522399 0
M  V30 6872 C 637.187 -1.68903 -0.913 0
M  V30 6873 O 638.388 -2.30059 -1.39019 0
M  V30 6874 C 636.659 -3.48356 0.79893 0
M  V30 6875 S 638.218 -4.35568 0.531588 0
M  V30 6876 H 635.036 -0.684005 0.194058 0
M  V30 6877 H 637.638 -1.57803 1.15406 0
M  V30 6878 H 636.342 -3.66743 1.84196 0
M  V30 6879 H 635.873 -3.93094 0.155133 0
M  V30 6880 H 637.888 -4.92232 -0.626295 0
M  V30 6881 N 637.061 -0.65484 -1.43351 0
M  V30 6882 C 638.307 -0.177749 -2.02622 0
M  V30 6883 C 638.662 1.19553 -1.50748 0
M  V30 6884 O 637.955 1.78683 -0.691599 0
M  V30 6885 C 638.149 -0.130424 -3.57162 0
M  V30 6886 C 637.978 -1.49757 -4.24032 0
M  V30 6887 C 636.748 -2.09036 -4.60035 0
M  V30 6888 C 638.946 -2.4363 -4.52934 0
M  V30 6889 N 636.928 -3.3874 -5.11985 0
M  V30 6890 C 638.299 -3.57968 -5.0622 0
M  V30 6891 C 640.354 -2.42412 -4.34903 0
M  V30 6892 C 639.057 -4.71314 -5.43374 0
M  V30 6893 C 641.083 -3.5484 -4.7312 0
M  V30 6894 C 640.445 -4.67903 -5.26541 0
M  V30 6895 H 636.544 -0.10951 -0.774294 0
M  V30 6896 H 639.128 -0.863495 -1.74505 0
M  V30 6897 H 637.299 0.524671 -3.8484 0
M  V30 6898 H 639.031 0.35769 -4.03116 0
M  V30 6899 H 635.786 -1.61729 -4.4513 0
M  V30 6900 H 636.21 -4.05116 -5.42412 0
M  V30 6901 H 640.852 -1.56236 -3.92874 0
M  V30 6902 H 638.57 -5.5818 -5.84346 0
M  V30 6903 H 642.156 -3.55101 -4.60863 0
M  V30 6904 H 641.036 -5.5346 -5.55564 0
M  V30 6905 N 638.539 1.52521 -0.396863 0
M  V30 6906 C 639.785 2.01971 0.183169 0
M  V30 6907 C 640.118 1.2825 1.45827 0
M  V30 6908 O 639.393 0.385179 1.90648 0
M  V30 6909 C 639.676 3.5736 0.443391 0
M  V30 6910 C 639.529 4.41743 -0.84753 0
M  V30 6911 C 640.848 4.22539 1.2308 0
M  V30 6912 H 637.967 0.734119 0.0650976 0
M  V30 6913 H 640.609 1.82519 -0.527918 0
M  V30 6914 H 638.759 3.74066 1.04914 0
M  V30 6915 H 640.431 4.36773 -1.48414 0
M  V30 6916 H 638.674 4.0845 -1.4612 0
M  V30 6917 H 639.345 5.48507 -0.620003 0
M  V30 6918 H 641.821 4.09857 0.718084 0
M  V30 6919 H 640.697 5.31227 1.38162 0
M  V30 6920 H 640.958 3.80675 2.24808 0
M  V30 6921 N 640.017 0.126909 1.57088 0
M  V30 6922 C 640.947 -0.816847 2.18746 0
M  V30 6923 C 641.928 -1.27161 1.12979 0
M  V30 6924 O 643.113 -1.33279 1.41246 0
M  V30 6925 C 640.243 -2.06398 2.79315 0
M  V30 6926 C 639.197 -1.74673 3.90735 0
M  V30 6927 C 638.523 -3.06482 4.38147 0
M  V30 6928 C 639.823 -1.0089 5.12463 0
M  V30 6929 H 641.517 -0.303032 2.97863 0
M  V30 6930 H 639.063 -0.144314 1.43275 0
M  V30 6931 H 641.016 -2.72885 3.2111 0
M  V30 6932 H 639.74 -2.60118 1.975 0
M  V30 6933 H 638.399 -1.10572 3.49527 0
M  V30 6934 H 638.047 -3.58152 3.5318 0
M  V30 6935 H 637.747 -2.86025 5.13287 0
M  V30 6936 H 639.271 -3.74073 4.82599 0
M  V30 6937 H 640.685 -1.57546 5.51228 0
M  V30 6938 H 639.082 -0.905006 5.93237 0
M  V30 6939 H 640.152 0.00297335 4.849 0
M  V30 6940 N 641.495 -1.56914 -0.146875 0
M  V30 6941 C 642.443 -1.99224 -1.20053 0
M  V30 6942 C 643.437 -0.884661 -1.44465 0
M  V30 6943 O 644.643 -1.06984 -1.44756 0
M  V30 6944 H 641.018 -0.634191 -0.404112 0
M  V30 6945 H 642.989 -2.86998 -0.816987 0
M  V30 6946 C 641.738 -2.38899 -2.52632 0
M  V30 6947 H 641.061 -3.23677 -2.34677 0
M  V30 6948 H 642.501 -2.72326 -3.24984 0
M  V30 6949 C 640.96 -1.2417 -3.13183 0
M  V30 6950 O 641.49 -0.542503 -3.9802 0
M  V30 6951 N 639.696 -1.00592 -2.72635 0
M  V30 6952 H 639.243 -1.57627 -2.03744 0
M  V30 6953 H 639.201 -0.240174 -3.13481 0
M  V30 6954 N 642.974 0.416227 -1.52004 0
M  V30 6955 C 643.937 1.48926 -1.74223 0
M  V30 6956 C 644.937 1.48693 -0.612119 0
M  V30 6957 O 646.127 1.50343 -0.879921 0
M  V30 6958 C 643.259 2.88372 -1.81809 0
M  V30 6959 H 644.452 1.3052 -2.70008 0
M  V30 6960 H 642.005 0.646271 -1.42313 0
M  V30 6961 H 642.74 3.12157 -0.879135 0
M  V30 6962 H 642.525 2.89944 -2.6396 0
M  V30 6963 H 644.015 3.66173 -2.00766 0
M  V30 6964 N 644.452 1.42507 0.673017 0
M  V30 6965 C 645.7 1.42789 1.43023 0
M  V30 6966 C 646.021 0.0459738 1.94946 0
M  V30 6967 O 645.291 -0.915765 1.73178 0
M  V30 6968 H 643.871 0.525657 0.530748 0
M  V30 6969 H 646.533 1.77944 0.795113 0
M  V30 6970 H 645.629 2.12872 2.28237 0
M  V30 6971 N 645.93 -0.909495 1.28709 0
M  V30 6972 C 647.178 -1.65577 1.15882 0
M  V30 6973 C 647.499 -1.928 -0.292108 0
M  V30 6974 O 646.769 -1.54716 -1.20166 0
M  V30 6975 H 645.349 -0.613714 0.425869 0
M  V30 6976 H 648.011 -1.09108 1.61498 0
M  V30 6977 H 647.107 -2.61634 1.70159 0
M  V30 6978 N 647.408 -1.11026 -1.11852 0
M  V30 6979 C 648.358 -0.733836 -2.15868 0
M  V30 6980 C 649.342 0.26001 -1.58785 0
M  V30 6981 O 650.534 0.0677901 -1.7687 0
M  V30 6982 C 647.663 -0.173948 -3.42859 0
M  V30 6983 C 646.749 -1.1952 -4.0691 0
M  V30 6984 N 647.14 -2.38797 -4.45881 0
M  V30 6985 C 645.438 -1.03714 -4.33773 0
M  V30 6986 C 646.139 -3.03894 -4.96007 0
M  V30 6987 N 645.115 -2.31389 -4.91894 0
M  V30 6988 H 648.917 -1.64171 -2.43773 0
M  V30 6989 H 646.431 -0.988877 -1.28822 0
M  V30 6990 H 648.428 0.113836 -4.16745 0
M  V30 6991 H 647.088 0.728568 -3.16421 0
M  V30 6992 H 648.099 -2.76281 -4.38051 0
M  V30 6993 H 644.776 -0.190694 -4.17064 0
M  V30 6994 H 646.166 -4.05389 -5.35826 0
M  V30 6995 N 648.886 1.2938 -0.899927 0
M  V30 6996 C 650.133 1.9555 -0.525963 0
M  V30 6997 C 650.461 1.70945 0.927789 0
M  V30 6998 O 649.716 1.01545 1.67293 0
M  V30 6999 C 650.015 3.49114 -0.765113 0
M  V30 7000 C 649.681 3.93796 -2.19626 0
M  V30 7001 C 648.343 4.05707 -2.58758 0
M  V30 7002 C 650.695 4.16883 -3.12823 0
M  V30 7003 C 648.023 4.38074 -3.90267 0
M  V30 7004 C 650.375 4.50725 -4.4388 0
M  V30 7005 C 649.039 4.60845 -4.82885 0
M  V30 7006 H 648.309 0.715569 -0.192463 0
M  V30 7007 H 650.956 1.53972 -1.13863 0
M  V30 7008 H 649.261 3.91738 -0.069531 0
M  V30 7009 H 650.958 3.98409 -0.455144 0
M  V30 7010 H 647.548 3.85042 -1.88256 0
M  V30 7011 H 651.732 4.07147 -2.83804 0
M  V30 7012 H 646.988 4.44112 -4.20207 0
M  V30 7013 H 651.162 4.67538 -5.16121 0
M  V30 7014 H 648.789 4.85681 -5.84823 0
M  V30 7015 N 650.364 0.662433 1.43002 0
M  V30 7016 C 651.613 0.176873 2.00923 0
M  V30 7017 C 651.926 -1.21954 1.52927 0
M  V30 7018 O 653.132 -1.80081 2.03182 0
M  V30 7019 C 651.588 0.265379 3.5892 0
M  V30 7020 C 651.196 1.66507 4.15908 0
M  V30 7021 C 652.94 -0.162103 4.2419 0
M  V30 7022 C 650.847 1.707 5.66229 0
M  V30 7023 H 649.777 0.0623627 0.751417 0
M  V30 7024 H 652.428 0.825813 1.63868 0
M  V30 7025 H 650.81 -0.451235 3.93421 0
M  V30 7026 H 651.984 2.40777 3.92891 0
M  V30 7027 H 650.299 2.03932 3.63044 0
M  V30 7028 H 652.896 -0.150745 5.34487 0
M  V30 7029 H 653.239 -1.19519 3.98774 0
M  V30 7030 H 653.772 0.503075 3.94606 0
M  V30 7031 H 650.511 2.7195 5.96426 0
M  V30 7032 H 650.031 1.00768 5.91275 0
M  V30 7033 H 651.71 1.45487 6.3043 0
M  V30 7034 N 651.842 -1.52309 0.404946 0
M  V30 7035 C 653.119 -1.94237 -0.230544 0
M  V30 7036 C 653.499 -1.34154 -1.6299 0
M  V30 7037 O 652.847 -0.515713 -2.22604 0
M  V30 7038 C 653.057 -3.48166 -0.241106 0
M  V30 7039 C 654.405 -4.22074 -0.462488 0
M  V30 7040 O 655.429 -3.54754 -0.320644 0
M  V30 7041 O 654.288 -5.41443 -0.741708 0
M  V30 7042 H 651.382 -0.813766 -0.147358 0
M  V30 7043 H 653.928 -1.6333 0.460587 0
M  V30 7044 H 652.7 -3.84269 0.738467 0
M  V30 7045 H 652.323 -3.85422 -0.97651 0
M  V30 7046 N 653.32 -0.135238 -1.57019 0
M  V30 7047 C 654.23 0.822226 -2.19719 0
M  V30 7048 C 655.246 1.28057 -1.17802 0
M  V30 7049 O 656.422 1.3402 -1.50335 0
M  V30 7050 C 653.487 2.0484 -2.79717 0
M  V30 7051 C 652.548 1.64042 -3.96723 0
M  V30 7052 C 651.781 2.80814 -4.53849 0
M  V30 7053 O 652.004 3.967 -4.0986 0
M  V30 7054 O 650.938 2.56963 -5.44292 0
M  V30 7055 H 654.764 0.318552 -3.02025 0
M  V30 7056 H 652.349 0.0912021 -1.49121 0
M  V30 7057 H 654.231 2.76622 -3.17897 0
M  V30 7058 H 652.906 2.54182 -2.00432 0
M  V30 7059 H 651.813 0.893182 -3.63281 0
M  V30 7060 H 653.146 1.19426 -4.77492 0
M  V30 7061 N 654.798 1.5699 0.138552 0
M  V30 7062 C 655.746 1.99858 1.18994 0
M  V30 7063 C 656.74 0.89231 1.43994 0
M  V30 7064 O 657.946 1.0775 1.44187 0
M  V30 7065 H 654.321 0.636325 0.400743 0
M  V30 7066 H 656.292 2.87427 0.801755 0
M  V30 7067 C 655.041 2.40235 2.51361 0
M  V30 7068 H 654.364 3.24917 2.32957 0
M  V30 7069 H 655.804 2.74045 3.23535 0
M  V30 7070 C 654.263 1.25829 3.1252 0
M  V30 7071 O 654.793 0.563604 3.97727 0
M  V30 7072 N 652.999 1.02036 2.72097 0
M  V30 7073 H 652.546 1.58705 2.02905 0
M  V30 7074 H 652.504 0.256796 3.1335 0
M  V30 7075 N 656.276 -0.40816 1.52223 0
M  V30 7076 C 657.524 -1.15274 1.66001 0
M  V30 7077 C 657.845 -1.91003 0.392803 0
M  V30 7078 O 657.115 -1.8673 -0.592336 0
M  V30 7079 H 655.695 -0.428526 0.611861 0
M  V30 7080 H 658.357 -0.46512 1.89269 0
M  V30 7081 H 657.453 -1.86628 2.50153 0
M  V30 7082 N 657.755 -1.42862 -0.66545 0
M  V30 7083 C 658.98 -1.47456 -1.45848 0
M  V30 7084 C 659.405 -0.0900312 -1.87884 0
M  V30 7085 O 658.763 0.913587 -1.56599 0
M  V30 7086 C 658.811 -2.41514 -2.67774 0
M  V30 7087 O 657.915 -1.89296 -3.66389 0
M  V30 7088 H 657.256 -0.499236 -0.437789 0
M  V30 7089 H 659.786 -1.8765 -0.815394 0
M  V30 7090 H 659.796 -2.58409 -3.15735 0
M  V30 7091 H 658.471 -3.42099 -2.36519 0
M  V30 7092 H 657.048 -1.82003 -3.25468 0
M  V30 7093 N 659.233 0.902656 -1.29189 0
M  V30 7094 C 660.649 1.18296 -1.07137 0
M  V30 7095 C 660.849 2.00701 0.179223 0
M  V30 7096 O 659.905 2.3675 0.877812 0
M  V30 7097 C 661.218 1.90677 -2.32514 0
M  V30 7098 C 662.766 2.03515 -2.37804 0
M  V30 7099 C 663.241 2.79307 -3.62976 0
M  V30 7100 N 664.732 2.86862 -3.63681 0
M  V30 7101 C 665.467 3.46035 -4.57217 0
M  V30 7102 N 664.963 4.06399 -5.61081 0
M  V30 7103 N 666.756 3.43681 -4.44792 0
M  V30 7104 H 658.907 0.352765 -2.0945 0
M  V30 7105 H 661.17 0.21876 -0.922414 0
M  V30 7106 H 660.876 1.3756 -3.23682 0
M  V30 7107 H 660.75 2.91169 -2.39793 0
M  V30 7108 H 663.137 2.55809 -1.47125 0
M  V30 7109 H 663.218 1.02166 -2.34512 0
M  V30 7110 H 662.862 2.2769 -4.54004 0
M  V30 7111 H 662.792 3.80995 -3.63525 0
M  V30 7112 H 665.283 2.43987 -2.88581 0
M  V30 7113 H 665.596 4.49564 -6.2858 0
M  V30 7114 H 663.941 4.0487 -5.64894 0
M  V30 7115 H 667.132 2.9574 -3.62843 0
M  V30 7116 H 667.305 3.89503 -5.17872 0
M  V30 7117 N 660.711 1.11618 1.11262 0
M  V30 7118 C 661.641 0.79846 2.19424 0
M  V30 7119 C 662.622 -0.234003 1.68483 0
M  V30 7120 O 663.807 -0.0970704 1.93957 0
M  V30 7121 C 660.937 0.242892 3.4645 0
M  V30 7122 C 659.891 1.20744 4.10615 0
M  V30 7123 C 659.217 0.512494 5.32238 0
M  V30 7124 C 660.517 2.55884 4.55325 0
M  V30 7125 H 662.211 1.70286 2.46258 0
M  V30 7126 H 659.757 0.820195 1.18359 0
M  V30 7127 H 661.71 0.00840447 4.21399 0
M  V30 7128 H 660.434 -0.696811 3.1908 0
M  V30 7129 H 659.093 1.42759 3.37662 0
M  V30 7130 H 658.741 -0.432075 5.01141 0
M  V30 7131 H 658.441 1.15583 5.7612 0
M  V30 7132 H 659.965 0.286842 6.09926 0
M  V30 7133 H 661.379 2.37946 5.21588 0
M  V30 7134 H 659.776 3.16216 5.10027 0
M  V30 7135 H 660.846 3.14968 3.68678 0
M  V30 7136 N 662.189 -1.289 0.906776 0
M  V30 7137 C 663.6 -1.77336 0.58384 0
M  V30 7138 C 663.951 -1.74304 -0.900697 0
M  V30 7139 O 663.076 -1.33335 -1.70443 0
M  V30 7140 C 663.671 -3.22019 1.05304 0
M  V30 7141 C 662.23 -3.68205 0.781148 0
M  V30 7142 C 661.377 -2.48837 1.22373 0
M  V30 7143 H 664.328 -1.15462 1.08877 0
M  V30 7144 H 664.349 -3.78481 0.391414 0
M  V30 7145 H 663.861 -3.24194 2.13353 0
M  V30 7146 H 661.962 -3.71497 -0.28643 0
M  V30 7147 H 662.075 -4.58675 1.384 0
M  V30 7148 H 660.439 -2.46461 0.642594 0
M  V30 7149 H 661.222 -2.53736 2.31242 0
M  V30 7150 N 663.667 -0.670007 -1.42649 0
M  V30 7151 C 664.63 0.00204659 -2.292 0
M  V30 7152 C 665.63 0.733817 -1.4308 0
M  V30 7153 O 666.82 0.57254 -1.64522 0
M  V30 7154 C 663.952 1.01359 -3.25483 0
M  V30 7155 H 665.145 -0.759696 -2.90118 0
M  V30 7156 H 662.698 -0.432105 -1.50208 0
M  V30 7157 H 663.433 1.80399 -2.69493 0
M  V30 7158 H 663.218 0.492323 -3.88997 0
M  V30 7159 H 664.708 1.4824 -3.90403 0
M  V30 7160 N 665.145 1.52092 -0.413018 0
M  V30 7161 C 666.394 2.01041 0.16287 0
M  V30 7162 C 666.707 1.30288 1.45892 0
M  V30 7163 O 667.913 1.70075 2.11629 0
M  V30 7164 C 666.369 3.58283 0.340806 0
M  V30 7165 C 665.977 4.37955 -0.943377 0
M  V30 7166 C 667.721 4.15452 0.871774 0
M  V30 7167 C 665.628 5.86847 -0.732417 0
M  V30 7168 H 664.558 0.751224 0.0646414 0
M  V30 7169 H 667.209 1.75404 -0.539059 0
M  V30 7170 H 665.591 3.80266 1.10516 0
M  V30 7171 H 666.765 4.2773 -1.71418 0
M  V30 7172 H 665.08 3.92122 -1.40105 0
M  V30 7173 H 667.677 5.24375 1.0457 0
M  V30 7174 H 668.02 3.73057 1.84755 0
M  V30 7175 H 668.553 3.97452 0.166377 0
M  V30 7176 H 665.292 6.33609 -1.67986 0
M  V30 7177 H 664.812 5.998 -0.000980058 0
M  V30 7178 H 666.491 6.45906 -0.376105 0
M  V30 7179 N 666.623 0.143563 1.56945 0
M  V30 7180 C 668.034 -0.37783 1.82837 0
M  V30 7181 C 668.385 -1.64967 1.06209 0
M  V30 7182 O 667.51 -2.14221 0.306291 0
M  V30 7183 C 668.105 -0.692274 3.31652 0
M  V30 7184 C 666.664 -1.1582 3.58138 0
M  V30 7185 C 665.811 -0.17951 2.76718 0
M  V30 7186 H 668.762 0.368317 1.54367 0
M  V30 7187 H 668.783 -1.54729 3.47619 0
M  V30 7188 H 668.295 0.233572 3.87397 0
M  V30 7189 H 666.396 -2.10011 3.07776 0
M  V30 7190 H 666.509 -1.08655 4.66616 0
M  V30 7191 H 664.873 -0.671458 2.4569 0
M  V30 7192 H 665.656 0.739865 3.35233 0
M  V30 7193 N 668.101 -1.57061 -0.130224 0
M  V30 7194 C 669.517 -1.52103 -0.483413 0
M  V30 7195 C 669.717 -0.854752 -1.82473 0
M  V30 7196 O 668.773 -0.432342 -2.48771 0
M  V30 7197 C 670.086 -2.96872 -0.47825 0
M  V30 7198 C 671.634 -3.07902 -0.562592 0
M  V30 7199 C 672.109 -4.54211 -0.587929 0
M  V30 7200 N 673.6 -4.58621 -0.649684 0
M  V30 7201 C 674.335 -5.69227 -0.690551 0
M  V30 7202 N 673.831 -6.89358 -0.689743 0
M  V30 7203 N 675.624 -5.57304 -0.732708 0
M  V30 7204 H 667.775 -1.98764 0.748779 0
M  V30 7205 H 670.038 -0.907248 0.274965 0
M  V30 7206 H 669.744 -3.48944 0.439444 0
M  V30 7207 H 669.618 -3.53716 -1.31013 0
M  V30 7208 H 672.005 -2.5584 -1.47071 0
M  V30 7209 H 672.086 -2.54073 0.296764 0
M  V30 7210 H 671.73 -5.06915 0.316096 0
M  V30 7211 H 671.66 -5.0584 -1.46401 0
M  V30 7212 H 674.151 -3.72146 -0.656927 0
M  V30 7213 H 674.464 -7.69408 -0.723239 0
M  V30 7214 H 672.809 -6.91884 -0.657347 0
M  V30 7215 H 676 -4.62363 -0.730625 0
M  V30 7216 H 676.173 -6.43515 -0.76109 0
M  V30 7217 N 669.579 0.400081 -1.52437 0
M  V30 7218 C 670.804 1.17221 -1.71096 0
M  V30 7219 C 671.229 1.83269 -0.423565 0
M  V30 7220 O 670.587 1.70378 0.619751 0
M  V30 7221 C 670.635 2.20425 -2.85386 0
M  V30 7222 O 669.739 3.26769 -2.51586 0
M  V30 7223 H 669.08 0.341766 -0.569291 0
M  V30 7224 H 671.61 0.467772 -1.99181 0
M  V30 7225 H 671.62 2.64605 -3.10561 0
M  V30 7226 H 670.295 1.71737 -3.78786 0
M  V30 7227 H 668.872 2.87804 -2.37114 0
M  V30 7228 N 671.057 1.43213 0.657864 0
M  V30 7229 C 672.02 1.47687 1.75275 0
M  V30 7230 C 673.02 0.362179 1.56668 0
M  V30 7231 O 674.21 0.623734 1.62651 0
M  V30 7232 C 671.342 1.32497 3.14098 0
M  V30 7233 H 672.535 2.4519 1.7269 0
M  V30 7234 H 670.088 1.2991 0.869087 0
M  V30 7235 H 670.823 0.359831 3.22298 0
M  V30 7236 H 670.608 2.13299 3.29008 0
M  V30 7237 H 672.098 1.38549 3.93946 0
M  V30 7238 N 672.536 -0.895792 1.29666 0
M  V30 7239 C 673.764 -1.68001 1.20761 0
M  V30 7240 C 674.179 -1.87379 -0.231187 0
M  V30 7241 O 673.536 -1.41359 -1.15429 0
M  V30 7242 C 673.587 -3.06236 1.92098 0
M  V30 7243 O 673.308 -2.8774 3.30359 0
M  V30 7244 C 674.809 -4.00652 1.89717 0
M  V30 7245 H 672.029 -0.524591 0.418384 0
M  V30 7246 H 674.573 -1.11995 1.71106 0
M  V30 7247 H 672.728 -3.59007 1.45578 0
M  V30 7248 H 673.142 -3.75359 3.66342 0
M  V30 7249 H 674.616 -4.95051 2.44189 0
M  V30 7250 H 675.093 -4.30424 0.873595 0
M  V30 7251 H 675.699 -3.53815 2.35998 0
M  V30 7252 N 674.014 -1.12206 -1.10668 0
M  V30 7253 C 674.962 -0.782918 -2.19028 0
M  V30 7254 C 675.956 0.229175 -1.67843 0
M  V30 7255 O 677.162 0.0876295 -1.79787 0
M  V30 7256 H 673.537 -0.235339 -0.714227 0
M  V30 7257 H 675.508 -1.70527 -2.44874 0
M  V30 7258 C 674.257 -0.25116 -3.46792 0
M  V30 7259 H 673.58 -1.02123 -3.86537 0
M  V30 7260 H 675.02 -0.0521409 -4.23968 0
M  V30 7261 C 673.479 1.02037 -3.21076 0
M  V30 7262 O 674.009 2.09862 -3.42522 0
M  V30 7263 N 672.215 0.946348 -2.74759 0
M  V30 7264 H 671.762 0.068777 -2.57508 0
M  V30 7265 H 671.72 1.79775 -2.57931 0
M  V30 7266 N 675.492 1.28418 -0.913599 0
M  V30 7267 C 676.74 1.94596 -0.545594 0
M  V30 7268 C 677.061 1.7227 0.913668 0
M  V30 7269 O 676.331 1.06233 1.64595 0
M  V30 7270 H 674.911 0.720065 -0.198783 0
M  V30 7271 H 677.573 1.56404 -1.16292 0
M  V30 7272 H 676.669 3.03202 -0.739911 0
M  V30 7273 N 676.97 0.677563 1.42291 0
M  V30 7274 C 677.917 0.000947061 2.308 0
M  V30 7275 C 678.887 -0.789889 1.46116 0
M  V30 7276 O 680.072 -0.761578 1.74942 0
M  V30 7277 C 677.212 -0.942387 3.31984 0
M  V30 7278 C 676.325 -0.14508 4.31756 0
M  V30 7279 C 675.46 -1.08442 5.20013 0
M  V30 7280 C 674.499 -0.278958 6.11464 0
M  V30 7281 N 673.636 -1.17115 6.92263 0
M  V30 7282 H 678.476 0.761521 2.88106 0
M  V30 7283 H 676.013 0.38727 1.41911 0
M  V30 7284 H 677.971 -1.50317 3.89179 0
M  V30 7285 H 676.601 -1.66956 2.76271 0
M  V30 7286 H 675.653 0.532368 3.76656 0
M  V30 7287 H 676.965 0.48015 4.96484 0
M  V30 7288 H 676.119 -1.71504 5.81955 0
M  V30 7289 H 674.858 -1.74353 4.55469 0
M  V30 7290 H 673.863 0.364856 5.48588 0
M  V30 7291 H 675.088 0.376099 6.78058 0
M  V30 7292 H 673.034 -1.81661 6.30345 0
M  V30 7293 H 672.951 -0.601063 7.53607 0
M  V30 7294 H 674.219 -1.78915 7.58689 0
M  V30 7295 N 678.448 -1.51871 0.421078 0
M  V30 7296 C 679.673 -2.0684 -0.152371 0
M  V30 7297 C 680.098 -1.28802 -1.37083 0
M  V30 7298 O 679.456 -0.321482 -1.78427 0
M  V30 7299 C 679.504 -3.57532 -0.469368 0
M  V30 7300 O 678.608 -3.81818 -1.55848 0
M  V30 7301 H 677.949 -0.663939 -0.00898586 0
M  V30 7302 H 680.479 -1.95674 0.597724 0
M  V30 7303 H 680.489 -4.01515 -0.724553 0
M  V30 7304 H 679.164 -4.13761 0.421276 0
M  V30 7305 H 677.741 -3.49709 -1.29453 0
M  V30 7306 N 679.926 -0.151884 -1.56866 0
M  V30 7307 C 680.836 0.798876 -2.20579 0
M  V30 7308 C 681.852 1.268 -1.19154 0
M  V30 7309 O 683.028 1.32418 -1.51748 0
M  V30 7310 C 680.093 2.01861 -2.81874 0
M  V30 7311 C 679.154 1.59825 -3.9844 0
M  V30 7312 C 678.387 2.75984 -4.56802 0
M  V30 7313 O 678.61 3.92331 -4.14044 0
M  V30 7314 O 677.544 2.51175 -5.46987 0
M  V30 7315 H 681.37 0.2865 -3.02346 0
M  V30 7316 H 678.955 0.0753806 -1.4921 0
M  V30 7317 H 680.837 2.73235 -3.20813 0
M  V30 7318 H 679.512 2.52042 -2.03117 0
M  V30 7319 H 678.419 0.854601 -3.64208 0
M  V30 7320 H 679.752 1.14355 -4.78731 0
M  V30 7321 N 681.404 1.57128 0.121893 0
M  V30 7322 C 682.632 1.88883 0.844451 0
M  V30 7323 C 683.047 0.742824 1.73573 0
M  V30 7324 O 682.404 -0.286475 1.80238 0
M  V30 7325 C 682.455 3.20076 1.68029 0
M  V30 7326 O 682.176 4.30264 0.824898 0
M  V30 7327 C 683.677 3.65515 2.50826 0
M  V30 7328 H 680.897 0.62549 0.242907 0
M  V30 7329 H 683.441 2.04219 0.107151 0
M  V30 7330 H 681.596 3.06418 2.37038 0
M  V30 7331 H 682.01 5.05439 1.40113 0
M  V30 7332 H 683.484 4.60081 3.05008 0
M  V30 7333 H 683.961 2.92029 3.28048 0
M  V30 7334 H 684.567 3.81952 1.87064 0
M  V30 7335 N 682.882 -0.391992 1.52647 0
M  V30 7336 C 684.131 -1.13449 1.6677 0
M  V30 7337 C 684.444 -1.91203 0.412399 0
M  V30 7338 O 685.65 -2.68013 0.433707 0
M  V30 7339 C 684.106 -2.06577 2.9471 0
M  V30 7340 C 683.714 -1.3426 4.27409 0
M  V30 7341 C 685.458 -2.80981 3.18198 0
M  V30 7342 C 683.365 -2.26136 5.46458 0
M  V30 7343 H 682.295 -0.427211 0.621295 0
M  V30 7344 H 684.946 -0.397522 1.79142 0
M  V30 7345 H 683.328 -2.83898 2.76076 0
M  V30 7346 H 684.502 -0.621856 4.56585 0
M  V30 7347 H 682.817 -0.718279 4.10158 0
M  V30 7348 H 685.414 -3.49898 4.04321 0
M  V30 7349 H 685.757 -3.44891 2.33144 0
M  V30 7350 H 686.29 -2.10754 3.37383 0
M  V30 7351 H 683.029 -1.66846 6.33911 0
M  V30 7352 H 682.549 -2.96134 5.21598 0
M  V30 7353 H 684.228 -2.86286 5.80215 0
M  V30 7354 N 684.36 -1.4356 -0.65026 0
M  V30 7355 C 685.588 -1.48779 -1.43779 0
M  V30 7356 C 686.003 -0.106593 -1.88499 0
M  V30 7357 O 685.36 0.883766 -1.59674 0
M  V30 7358 C 685.411 -2.43618 -2.67081 0
M  V30 7359 O 685.132 -3.76367 -2.24231 0
M  V30 7360 C 686.633 -2.5811 -3.60409 0
M  V30 7361 H 683.853 -0.50521 -0.441593 0
M  V30 7362 H 686.397 -1.88332 -0.796941 0
M  V30 7363 H 684.552 -2.07253 -3.273 0
M  V30 7364 H 684.966 -4.27394 -3.0403 0
M  V30 7365 H 686.44 -3.28539 -4.43583 0
M  V30 7366 H 686.917 -1.627 -4.07953 0
M  V30 7367 H 687.523 -2.95298 -3.0607 0
M  V30 7368 N 685.838 0.888903 -1.30139 0
M  V30 7369 C 686.801 1.97576 -1.16174 0
M  V30 7370 C 687.801 1.60525 -0.094086 0
M  V30 7371 O 688.991 1.70812 -0.341889 0
M  V30 7372 C 686.123 3.3188 -0.778983 0
M  V30 7373 H 687.316 2.11393 -2.12728 0
M  V30 7374 H 684.869 1.0748 -1.1348 0
M  V30 7375 H 685.604 3.23765 0.186225 0
M  V30 7376 H 685.389 3.60141 -1.55051 0
M  V30 7377 H 686.879 4.11612 -0.704631 0
M  V30 7378 N 687.317 1.12792 1.10072 0
M  V30 7379 C 688.594 0.796867 1.78632 0
M  V30 7380 C 688.974 -0.712739 1.98704 0
M  V30 7381 O 688.322 -1.64773 1.5831 0
M  V30 7382 C 688.532 1.57622 3.11378 0
M  V30 7383 C 689.88 1.76463 3.86194 0
M  V30 7384 O 690.904 1.54165 3.2111 0
M  V30 7385 O 689.763 2.13623 5.03018 0
M  V30 7386 H 686.857 0.290248 0.774394 0
M  V30 7387 H 689.403 1.23215 1.16688 0
M  V30 7388 H 688.175 2.60246 2.92212 0
M  V30 7389 H 687.798 1.13543 3.81043 0
M  V30 7390 N 688.795 -1.27931 0.920396 0
M  V30 7391 C 690.041 -1.94977 0.557832 0
M  V30 7392 C 690.374 -1.72224 -0.897365 0
M  V30 7393 O 689.649 -1.04705 -1.63912 0
M  V30 7394 C 689.932 -3.49289 0.875741 0
M  V30 7395 C 689.785 -3.81416 2.38416 0
M  V30 7396 C 691.104 -4.38486 0.376517 0
M  V30 7397 H 688.223 -0.708164 0.20414 0
M  V30 7398 H 690.865 -1.5118 1.15085 0
M  V30 7399 H 689.015 -3.86724 0.371062 0
M  V30 7400 H 690.687 -3.53813 2.95997 0
M  V30 7401 H 688.93 -3.28225 2.83639 0
M  V30 7402 H 689.601 -4.89198 2.55713 0
M  V30 7403 H 692.077 -4.08161 0.808945 0
M  V30 7404 H 690.953 -5.45296 0.627976 0
M  V30 7405 H 691.214 -4.36143 -0.723293 0
M  V30 7406 N 690.273 -0.685099 -1.4193 0
M  V30 7407 C 691.221 -0.00165985 -2.326 0
M  V30 7408 C 692.215 0.779678 -1.50391 0
M  V30 7409 O 693.421 0.68648 -1.66395 0
M  V30 7410 H 689.796 0.0182616 -0.751778 0
M  V30 7411 H 691.767 -0.783592 -2.87928 0
M  V30 7412 C 690.516 0.928385 -3.35077 0
M  V30 7413 H 689.839 0.336578 -3.98381 0
M  V30 7414 H 691.279 1.37509 -4.01083 0
M  V30 7415 C 689.738 2.03964 -2.68142 0
M  V30 7416 O 690.268 3.12727 -2.5212 0
M  V30 7417 N 688.474 1.81433 -2.27003 0
M  V30 7418 H 688.021 0.929807 -2.40234 0
M  V30 7419 H 687.979 2.55973 -1.82552 0
M  V30 7420 N 691.751 1.51645 -0.429126 0
M  V30 7421 C 692.701 2.24388 0.404217 0
M  V30 7422 C 693.685 1.26294 0.996933 0
M  V30 7423 O 694.877 1.51428 0.916434 0
M  V30 7424 C 692.006 3.08338 1.50938 0
M  V30 7425 C 691.092 4.13857 0.926464 0
M  V30 7426 N 691.483 5.05749 0.0719732 0
M  V30 7427 C 689.781 4.29695 1.19491 0
M  V30 7428 C 690.482 5.81143 -0.254528 0
M  V30 7429 N 689.458 5.42408 0.359763 0
M  V30 7430 H 693.26 2.92794 -0.254697 0
M  V30 7431 H 690.774 1.60606 -0.240712 0
M  V30 7432 H 692.771 3.59022 2.11918 0
M  V30 7433 H 691.431 2.41475 2.17072 0
M  V30 7434 H 692.442 5.17066 -0.293854 0
M  V30 7435 H 689.119 3.74059 1.85434 0
M  V30 7436 H 690.509 6.65159 -0.949365 0
M  V30 7437 N 693.229 0.160201 1.56784 0
M  V30 7438 C 694.177 -0.791402 2.18723 0
M  V30 7439 C 695.171 -1.24567 1.14801 0
M  V30 7440 O 696.377 -1.21262 1.33025 0
M  V30 7441 H 692.752 -0.273458 0.700517 0
M  V30 7442 H 694.723 -0.244931 2.97393 0
M  V30 7443 C 693.472 -2.01509 2.83354 0
M  V30 7444 H 692.795 -1.67454 3.63041 0
M  V30 7445 H 694.235 -2.66006 3.30177 0
M  V30 7446 C 692.694 -2.83159 1.82545 0
M  V30 7447 O 693.224 -3.79944 1.30405 0
M  V30 7448 N 691.43 -2.47953 1.51552 0
M  V30 7449 H 690.977 -1.69309 1.94144 0
M  V30 7450 H 690.935 -3.02873 0.843519 0
M  V30 7451 N 694.707 -1.5719 -0.113559 0
M  V30 7452 C 695.637 -2.03772 -1.14013 0
M  V30 7453 C 696.618 -0.923176 -1.42869 0
M  V30 7454 O 697.803 -1.19325 -1.53216 0
M  V30 7455 C 694.933 -2.44663 -2.4649 0
M  V30 7456 C 693.887 -3.59612 -2.32085 0
M  V30 7457 C 693.213 -3.8642 -3.69573 0
M  V30 7458 C 694.513 -4.91149 -1.7768 0
M  V30 7459 H 696.207 -2.89785 -0.752665 0
M  V30 7460 H 693.753 -1.39412 -0.360609 0
M  V30 7461 H 695.706 -2.75857 -3.18561 0
M  V30 7462 H 694.43 -1.55628 -2.87137 0
M  V30 7463 H 693.089 -3.28636 -1.62461 0
M  V30 7464 H 692.737 -2.94581 -4.07715 0
M  V30 7465 H 692.437 -4.63797 -3.60786 0
M  V30 7466 H 693.961 -4.2007 -4.4314 0
M  V30 7467 H 695.375 -5.20843 -2.39574 0
M  V30 7468 H 693.772 -5.72562 -1.79701 0
M  V30 7469 H 694.842 -4.79301 -0.734776 0
M  V30 7470 N 696.185 0.383891 -1.52853 0
M  V30 7471 C 697.132 1.46924 -1.77995 0
M  V30 7472 C 698.102 1.53958 -0.623396 0
M  V30 7473 O 699.287 1.70134 -0.863657 0
M  V30 7474 C 696.427 2.84093 -1.95921 0
M  V30 7475 C 695.54 2.86171 -3.23621 0
M  V30 7476 C 694.675 4.14799 -3.31836 0
M  V30 7477 C 693.714 4.10948 -4.53639 0
M  V30 7478 N 692.851 5.31192 -4.59107 0
M  V30 7479 H 697.691 1.24786 -2.70615 0
M  V30 7480 H 695.228 0.605265 -1.34071 0
M  V30 7481 H 697.186 3.63755 -2.04299 0
M  V30 7482 H 695.816 3.04671 -1.06656 0
M  V30 7483 H 694.868 1.9885 -3.24288 0
M  V30 7484 H 696.18 2.79194 -4.13343 0
M  V30 7485 H 695.334 5.02867 -3.39425 0
M  V30 7486 H 694.073 4.24505 -2.40097 0
M  V30 7487 H 693.078 3.21268 -4.46169 0
M  V30 7488 H 694.303 4.0286 -5.467 0
M  V30 7489 H 692.249 5.41518 -3.70262 0
M  V30 7490 H 692.166 5.26311 -5.42708 0
M  V30 7491 H 693.434 6.21143 -4.70958 0
M  V30 7492 N 697.663 1.43903 0.642637 0
M  V30 7493 C 698.94 1.36556 1.40043 0
M  V30 7494 C 699.32 0.0185588 2.11092 0
M  V30 7495 O 698.668 -0.998438 2.05532 0
M  V30 7496 C 698.878 2.55596 2.37638 0
M  V30 7497 C 700.226 2.99153 3.01318 0
M  V30 7498 O 701.25 2.55719 2.47965 0
M  V30 7499 O 700.109 3.74427 3.98078 0
M  V30 7500 H 697.203 0.540189 0.626198 0
M  V30 7501 H 699.749 1.55971 0.668657 0
M  V30 7502 H 698.521 3.45256 1.84158 0
M  V30 7503 H 698.144 2.38334 3.18249 0
M  V30 7504 N 699.141 -0.881989 1.30609 0
M  V30 7505 C 700.104 -1.96957 1.1722 0
M  V30 7506 C 701.104 -1.60472 0.102598 0
M  V30 7507 O 702.294 -1.70628 0.350943 0
M  V30 7508 C 699.426 -3.31463 0.796572 0
M  V30 7509 H 700.619 -2.10262 2.13846 0
M  V30 7510 H 698.172 -1.06877 1.14048 0
M  V30 7511 H 698.907 -3.23859 -0.169053 0
M  V30 7512 H 698.692 -3.59314 1.56959 0
M  V30 7513 H 700.182 -4.11233 0.72645 0
M  V30 7514 N 700.619 -1.13374 -1.09472 0
M  V30 7515 C 701.567 -0.806105 -2.18185 0
M  V30 7516 C 702.561 0.21136 -1.68076 0
M  V30 7517 O 703.767 0.0685558 -1.79869 0
M  V30 7518 H 700.142 -0.242901 -0.71169 0
M  V30 7519 H 702.113 -1.73115 -2.43051 0
M  V30 7520 C 700.862 -0.287928 -3.46506 0
M  V30 7521 H 700.185 -1.06217 -3.85432 0
M  V30 7522 H 701.625 -0.0971054 -4.23889 0
M  V30 7523 C 700.084 0.986256 -3.22141 0
M  V30 7524 O 700.614 2.06217 -3.44728 0
M  V30 7525 N 698.82 0.917153 -2.75747 0
M  V30 7526 H 698.367 0.0414609 -2.57567 0
M  V30 7527 H 698.325 1.77029 -2.59823 0
M  V30 7528 N 702.098 1.27442 -0.927168 0
M  V30 7529 C 703.375 1.89473 -0.485742 0
M  V30 7530 C 703.755 1.83922 1.03614 0
M  V30 7531 O 703.103 1.28409 1.89007 0
M  V30 7532 C 703.313 3.33417 -1.03123 0
M  V30 7533 C 704.661 4.10333 -1.0914 0
M  V30 7534 O 705.685 3.4243 -0.98082 0
M  V30 7535 O 704.544 5.31737 -1.26165 0
M  V30 7536 H 701.638 0.812124 -0.156154 0
M  V30 7537 H 704.184 1.35713 -1.01882 0
M  V30 7538 H 702.956 3.31747 -2.07508 0
M  V30 7539 H 702.579 3.94695 -0.479767 0
M  V30 7540 N 703.576 0.692616 1.41565 0
M  V30 7541 C 704.822 0.222664 2.01574 0
M  V30 7542 C 705.155 -1.1737 1.54719 0
M  V30 7543 O 704.43 -1.79161 0.757084 0
M  V30 7544 C 704.713 0.277064 3.59033 0
M  V30 7545 C 704.566 1.71016 4.16021 0
M  V30 7546 C 705.885 -0.36479 4.38586 0
M  V30 7547 H 703.004 0.0823839 0.732381 0
M  V30 7548 H 705.646 0.880778 1.68352 0
M  V30 7549 H 703.796 -0.283288 3.87466 0
M  V30 7550 H 705.468 2.32413 3.98475 0
M  V30 7551 H 703.711 2.24525 3.71175 0
M  V30 7552 H 704.382 1.69978 5.25178 0
M  V30 7553 H 706.858 0.112404 4.15948 0
M  V30 7554 H 705.734 -0.296169 5.481 0
M  V30 7555 H 705.995 -1.44506 4.17816 0
M  V30 7556 N 705.054 -1.51416 0.437162 0
M  V30 7557 C 706.465 -1.86682 -0.0260005 0
M  V30 7558 C 706.816 -1.35432 -1.4196 0
M  V30 7559 O 705.941 -0.705055 -2.04592 0
M  V30 7560 C 706.536 -3.38757 -0.0539577 0
M  V30 7561 C 705.095 -3.7356 -0.461532 0
M  V30 7562 C 704.242 -2.75134 0.345924 0
M  V30 7563 H 707.193 -1.44642 0.653013 0
M  V30 7564 H 707.214 -3.70573 -0.863478 0
M  V30 7565 H 706.726 -3.76028 0.96045 0
M  V30 7566 H 704.827 -3.41878 -1.48155 0
M  V30 7567 H 704.94 -4.78737 -0.186451 0
M  V30 7568 H 703.304 -2.53947 -0.195739 0
M  V30 7569 H 704.087 -3.15247 1.35921 0
M  V30 7570 N 706.532 -0.168513 -1.56696 0
M  V30 7571 C 707.781 0.477233 -1.95973 0
M  V30 7572 C 708.094 1.64578 -1.05704 0
M  V30 7573 O 709.3 2.35758 -1.3465 0
M  V30 7574 C 707.756 0.900413 -3.48455 0
M  V30 7575 C 707.364 -0.242382 -4.47344 0
M  V30 7576 C 709.108 1.51474 -3.96555 0
M  V30 7577 C 707.015 0.200272 -5.91061 0
M  V30 7578 H 705.945 0.182061 -0.73169 0
M  V30 7579 H 708.596 -0.256297 -1.81701 0
M  V30 7580 H 706.978 1.68984 -3.58135 0
M  V30 7581 H 708.152 -1.01967 -4.49377 0
M  V30 7582 H 706.467 -0.766484 -4.09285 0
M  V30 7583 H 709.064 1.85792 -5.01384 0
M  V30 7584 H 709.407 2.41163 -3.39332 0
M  V30 7585 H 709.94 0.789802 -3.89881 0
M  V30 7586 H 706.679 -0.661775 -6.52151 0
M  V30 7587 H 706.199 0.942979 -5.92341 0
M  V30 7588 H 707.878 0.645088 -6.43776 0
M  V30 7589 N 708.01 1.57248 0.105221 0
M  V30 7590 C 708.942 1.98008 1.15436 0
M  V30 7591 C 709.955 0.881236 1.36887 0
M  V30 7592 O 711.144 1.15943 1.35718 0
M  V30 7593 C 708.244 2.27509 2.51183 0
M  V30 7594 C 707.417 3.58811 2.50147 0
M  V30 7595 C 706.476 3.76365 3.67745 0
M  V30 7596 O 705.502 4.48329 3.50699 0
M  V30 7597 N 706.704 3.16174 4.86841 0
M  V30 7598 H 709.469 2.88616 0.807519 0
M  V30 7599 H 707.03 1.59202 0.29433 0
M  V30 7600 H 709.022 2.36455 3.28438 0
M  V30 7601 H 707.592 1.42959 2.77995 0
M  V30 7602 H 706.812 3.60927 1.5851 0
M  V30 7603 H 708.1 4.45088 2.46524 0
M  V30 7604 H 707.498 2.57701 5.03594 0
M  V30 7605 H 706.055 3.30621 5.61723 0
M  V30 7606 N 709.488 -0.375779 1.53054 0
M  V30 7607 C 710.728 -1.12828 1.70438 0
M  V30 7608 C 711.092 -1.86854 0.441527 0
M  V30 7609 O 712.293 -2.64261 0.491908 0
M  V30 7610 C 710.564 -2.07009 2.91345 0
M  V30 7611 S 712.123 -2.89917 3.29383 0
M  V30 7612 H 708.941 -0.381736 0.599832 0
M  V30 7613 H 711.543 -0.4109 1.91133 0
M  V30 7614 H 710.247 -1.51371 3.81464 0
M  V30 7615 H 709.778 -2.83236 2.73022 0
M  V30 7616 H 711.793 -4.0924 2.80601 0
M  V30 7617 N 710.966 -1.44241 -0.634997 0
M  V30 7618 C 711.876 -1.53293 -1.77591 0
M  V30 7619 C 712.892 -0.418831 -1.68884 0
M  V30 7620 O 714.068 -0.675619 -1.8973 0
M  V30 7621 C 711.133 -1.47075 -3.13958 0
M  V30 7622 C 710.194 -2.69304 -3.34326 0
M  V30 7623 C 709.427 -2.63374 -4.64187 0
M  V30 7624 O 709.65 -1.69161 -5.44739 0
M  V30 7625 O 708.584 -3.54166 -4.86673 0
M  V30 7626 H 712.41 -2.49673 -1.72908 0
M  V30 7627 H 709.995 -1.26445 -0.795745 0
M  V30 7628 H 711.877 -1.46117 -3.95257 0
M  V30 7629 H 710.552 -0.538373 -3.19192 0
M  V30 7630 H 709.459 -2.75831 -2.52721 0
M  V30 7631 H 710.792 -3.61576 -3.33951 0
M  V30 7632 N 712.444 0.87505 -1.31075 0
M  V30 7633 C 713.693 1.62245 -1.19831 0
M  V30 7634 C 714.006 1.94078 0.24357 0
M  V30 7635 O 715.212 2.67265 0.477646 0
M  V30 7636 C 713.668 2.92464 -2.09744 0
M  V30 7637 C 713.276 2.68134 -3.58898 0
M  V30 7638 C 715.02 3.70449 -2.07287 0
M  V30 7639 C 712.927 3.9423 -4.40836 0
M  V30 7640 H 711.857 0.608741 -0.444916 0
M  V30 7641 H 714.508 0.967947 -1.55894 0
M  V30 7642 H 712.89 3.59262 -1.66574 0
M  V30 7643 H 714.064 2.09776 -4.10281 0
M  V30 7644 H 712.379 2.03511 -3.6328 0
M  V30 7645 H 714.976 4.63983 -2.65752 0
M  V30 7646 H 715.319 4.02611 -1.05876 0
M  V30 7647 H 715.852 3.10528 -2.48631 0
M  V30 7648 H 712.591 3.67221 -5.42982 0
M  V30 7649 H 712.111 4.52058 -3.94213 0
M  V30 7650 H 713.79 4.62162 -4.52786 0
M  V30 7651 N 713.922 1.13953 1.08869 0
M  V30 7652 C 715.147 0.928559 1.85452 0
M  V30 7653 C 715.572 -0.517642 1.80837 0
M  V30 7654 O 714.93 -1.36779 1.19001 0
M  V30 7655 C 714.978 1.42814 3.31114 0
M  V30 7656 O 714.082 0.617129 4.07756 0
M  V30 7657 H 713.423 0.33235 0.574839 0
M  V30 7658 H 715.953 1.5156 1.37443 0
M  V30 7659 H 715.963 1.43425 3.8196 0
M  V30 7660 H 714.638 2.48109 3.33788 0
M  V30 7661 H 713.215 0.679365 3.66659 0
M  V30 7662 N 715.4 -1.26948 0.933913 0
M  V30 7663 C 716.811 -1.76058 0.621324 0
M  V30 7664 C 717.162 -1.76175 -0.863522 0
M  V30 7665 O 716.287 -1.36921 -1.67576 0
M  V30 7666 C 716.882 -3.19713 1.12111 0
M  V30 7667 C 715.441 -3.66465 0.859074 0
M  V30 7668 C 714.588 -2.46186 1.27624 0
M  V30 7669 H 717.539 -1.13127 1.11301 0
M  V30 7670 H 717.56 -3.77566 0.471608 0
M  V30 7671 H 717.072 -3.19596 2.20182 0
M  V30 7672 H 715.173 -3.72021 -0.207566 0
M  V30 7673 H 715.286 -4.55636 1.48098 0
M  V30 7674 H 713.65 -2.45042 0.694727 0
M  V30 7675 H 714.433 -2.48774 2.36572 0
M  V30 7676 N 716.879 -0.700114 -1.41195 0
M  V30 7677 C 717.809 -0.0521132 -2.33442 0
M  V30 7678 C 718.79 0.76228 -1.52063 0
M  V30 7679 O 719.975 0.714336 -1.80585 0
M  V30 7680 C 717.105 0.881693 -3.35922 0
M  V30 7681 C 716.059 0.174062 -4.27646 0
M  V30 7682 C 715.385 1.22254 -5.20536 0
M  V30 7683 C 716.685 -0.962396 -5.13357 0
M  V30 7684 H 718.379 -0.822574 -2.87879 0
M  V30 7685 H 715.925 -0.397011 -1.38419 0
M  V30 7686 H 717.878 1.34429 -3.99383 0
M  V30 7687 H 716.602 1.68387 -2.79845 0
M  V30 7688 H 715.261 -0.268551 -3.65615 0
M  V30 7689 H 714.909 2.01736 -4.60773 0
M  V30 7690 H 714.609 0.754038 -5.82742 0
M  V30 7691 H 716.133 1.68555 -5.86874 0
M  V30 7692 H 717.547 -0.579875 -5.7036 0
M  V30 7693 H 715.944 -1.35828 -5.84526 0
M  V30 7694 H 717.014 -1.80003 -4.50252 0
M  V30 7695 N 718.357 1.51182 -0.445186 0
M  V30 7696 C 719.606 2.01342 0.120189 0
M  V30 7697 C 719.919 1.33353 1.43095 0
M  V30 7698 O 721.125 1.74525 2.07974 0
M  V30 7699 C 719.581 3.58925 0.264732 0
M  V30 7700 C 719.189 4.35855 -1.03606 0
M  V30 7701 C 720.933 4.17208 0.783455 0
M  V30 7702 C 718.84 5.85162 -0.856731 0
M  V30 7703 H 717.77 0.752426 0.0486922 0
M  V30 7704 H 720.421 1.74221 -0.576143 0
M  V30 7705 H 718.803 3.82525 1.02425 0
M  V30 7706 H 719.977 4.23997 -1.80452 0
M  V30 7707 H 718.292 3.89062 -1.48391 0
M  V30 7708 H 720.889 5.26475 0.934239 0
M  V30 7709 H 721.232 3.76892 1.768 0
M  V30 7710 H 721.765 3.97715 0.0820346 0
M  V30 7711 H 718.504 6.29904 -1.81388 0
M  V30 7712 H 718.024 5.99663 -0.128206 0
M  V30 7713 H 719.703 6.44963 -0.513027 0
M  V30 7714 N 719.835 0.176821 1.56605 0
M  V30 7715 C 721.06 -0.47599 2.01864 0
M  V30 7716 C 721.485 -1.55645 1.05623 0
M  V30 7717 O 720.843 -1.81263 0.0366729 0
M  V30 7718 C 720.891 -1.02619 3.4569 0
M  V30 7719 O 719.995 -2.13996 3.52533 0
M  V30 7720 H 719.336 -0.113363 0.654251 0
M  V30 7721 H 721.866 0.28233 2.02643 0
M  V30 7722 H 721.876 -1.34742 3.85109 0
M  V30 7723 H 720.551 -0.235138 4.15235 0
M  V30 7724 H 719.128 -1.82876 3.24978 0
M  V30 7725 N 721.313 -1.57302 -0.09688 0
M  V30 7726 C 722.543 -1.89926 -0.813114 0
M  V30 7727 C 722.951 -0.76852 -1.72888 0
M  V30 7728 O 722.294 0.268549 -1.81726 0
M  V30 7729 C 722.356 -3.17787 -1.68082 0
M  V30 7730 C 722.02 -4.4729 -0.937061 0
M  V30 7731 C 723.017 -5.1921 -0.267687 0
M  V30 7732 C 720.702 -4.93957 -0.911671 0
M  V30 7733 C 722.696 -6.36034 0.417129 0
M  V30 7734 C 720.383 -6.10693 -0.223068 0
M  V30 7735 C 721.381 -6.8158 0.440155 0
M  V30 7736 O 721.069 -7.96092 1.11772 0
M  V30 7737 H 720.801 -0.632783 -0.237828 0
M  V30 7738 H 723.355 -2.05248 -0.0790818 0
M  V30 7739 H 721.585 -2.98607 -2.45705 0
M  V30 7740 H 723.274 -3.36257 -2.27346 0
M  V30 7741 H 724.04 -4.84198 -0.278774 0
M  V30 7742 H 719.919 -4.38671 -1.41734 0
M  V30 7743 H 723.463 -6.91301 0.93537 0
M  V30 7744 H 719.36 -6.45159 -0.209821 0
M  V30 7745 H 720.128 -8.12064 1.02443 0
M  V30 7746 N 722.791 0.367657 -1.53252 0
M  V30 7747 C 723.754 1.43308 -1.78873 0
M  V30 7748 C 724.754 1.46671 -0.659115 0
M  V30 7749 O 725.944 1.47468 -0.927306 0
M  V30 7750 C 723.076 2.82442 -1.90892 0
M  V30 7751 H 724.269 1.21864 -2.74024 0
M  V30 7752 H 721.822 0.600668 -1.44297 0
M  V30 7753 H 722.557 3.09202 -0.978 0
M  V30 7754 H 722.342 2.81399 -2.73051 0
M  V30 7755 H 723.832 3.59601 -2.12314 0
M  V30 7756 N 724.269 1.44576 0.627338 0
M  V30 7757 C 725.517 1.47267 1.38408 0
M  V30 7758 C 725.838 0.107971 1.94701 0
M  V30 7759 O 725.108 -0.860206 1.76004 0
M  V30 7760 H 723.688 0.542276 0.513756 0
M  V30 7761 H 726.35 1.80383 0.738099 0
M  V30 7762 H 725.446 2.20025 2.21349 0
M  V30 7763 N 725.747 -0.868086 1.31537 0
M  V30 7764 C 726.657 -2.00801 1.21311 0
M  V30 7765 C 727.673 -1.73518 0.129431 0
M  V30 7766 O 728.849 -1.98378 0.347588 0
M  V30 7767 C 725.914 -3.3419 0.922935 0
M  V30 7768 C 724.975 -3.74783 2.0937 0
M  V30 7769 C 724.208 -5.01807 1.81728 0
M  V30 7770 O 724.431 -5.65404 0.753313 0
M  V30 7771 O 723.365 -5.39213 2.67457 0
M  V30 7772 H 727.191 -2.12361 2.17109 0
M  V30 7773 H 724.776 -0.996684 1.11295 0
M  V30 7774 H 726.658 -4.14174 0.777033 0
M  V30 7775 H 725.333 -3.237 -0.00500301 0
M  V30 7776 H 724.24 -2.95432 2.29501 0
M  V30 7777 H 725.573 -3.89902 3.00396 0
M  V30 7778 N 727.225 -1.14528 -1.08264 0
M  V30 7779 C 728.473 -0.912599 -1.80322 0
M  V30 7780 C 728.794 0.562256 -1.86718 0
M  V30 7781 O 728.064 1.40869 -1.36135 0
M  V30 7782 H 726.644 -0.334645 -0.667849 0
M  V30 7783 H 729.306 -1.44415 -1.30883 0
M  V30 7784 H 728.402 -1.31384 -2.83098 0
M  V30 7785 N 728.703 1.26451 -0.940633 0
M  V30 7786 C 729.633 2.28773 -0.467479 0
M  V30 7787 C 730.614 1.63218 0.478955 0
M  V30 7788 O 731.799 1.90427 0.380929 0
M  V30 7789 C 728.929 3.46259 0.268656 0
M  V30 7790 C 727.883 4.23898 -0.591171 0
M  V30 7791 C 727.209 5.33993 0.274891 0
M  V30 7792 C 728.509 4.87974 -1.86223 0
M  V30 7793 H 730.203 2.68601 -1.32265 0
M  V30 7794 H 727.749 1.29123 -0.637436 0
M  V30 7795 H 729.702 4.16951 0.610696 0
M  V30 7796 H 728.426 3.05383 1.15796 0
M  V30 7797 H 727.085 3.54969 -0.916098 0
M  V30 7798 H 726.733 4.89358 1.16353 0
M  V30 7799 H 726.433 5.86849 -0.297006 0
M  V30 7800 H 727.957 6.07523 0.612213 0
M  V30 7801 H 729.371 5.50883 -1.58747 0
M  V30 7802 H 727.768 5.50945 -2.37866 0
M  V30 7803 H 728.838 4.10945 -2.57394 0
M  V30 7804 N 730.181 0.707592 1.40822 0
M  V30 7805 C 731.091 0.0507246 2.34545 0
M  V30 7806 C 732.107 -0.752727 1.56876 0
M  V30 7807 O 733.283 -0.687524 1.89302 0
M  V30 7808 C 730.348 -0.865731 3.35717 0
M  V30 7809 C 729.409 -0.0531313 4.29267 0
M  V30 7810 C 728.642 -0.925939 5.25606 0
M  V30 7811 O 728.865 -2.16531 5.27703 0
M  V30 7812 O 727.799 -0.369194 6.00767 0
M  V30 7813 H 731.625 0.823587 2.9232 0
M  V30 7814 H 729.21 0.46801 1.4188 0
M  V30 7815 H 731.092 -1.39091 3.97783 0
M  V30 7816 H 729.767 -1.61788 2.80368 0
M  V30 7817 H 728.674 0.516931 3.70511 0
M  V30 7818 H 730.007 0.660617 4.87747 0
M  V30 7819 N 731.66 -1.50943 0.453197 0
M  V30 7820 C 732.885 -2.07116 -0.108463 0
M  V30 7821 C 733.31 -1.31681 -1.3432 0
M  V30 7822 O 732.668 -0.359256 -1.77705 0
M  V30 7823 C 732.716 -3.58447 -0.393424 0
M  V30 7824 O 731.82 -3.85038 -1.47714 0
M  V30 7825 H 731.161 -0.66398 0.0050993 0
M  V30 7826 H 733.691 -1.94362 0.639095 0
M  V30 7827 H 733.701 -4.02961 -0.639222 0
M  V30 7828 H 732.376 -4.12774 0.508946 0
M  V30 7829 H 730.953 -3.52376 -1.22006 0
M  V30 7830 N 733.138 -0.185124 -1.56509 0
M  V30 7831 C 734.368 0.461469 -2.0138 0
M  V30 7832 C 734.776 1.56417 -1.06445 0
M  V30 7833 O 734.119 1.83603 -0.0597515 0
M  V30 7834 C 734.181 1.08731 -3.42663 0
M  V30 7835 C 733.845 0.124581 -4.5683 0
M  V30 7836 C 734.842 -0.662295 -5.15664 0
M  V30 7837 C 732.527 0.0163947 -5.02297 0
M  V30 7838 C 734.521 -1.54442 -6.18406 0
M  V30 7839 C 732.208 -0.869301 -6.04885 0
M  V30 7840 C 733.206 -1.64828 -6.62813 0
M  V30 7841 O 732.894 -2.51915 -7.63409 0
M  V30 7842 H 732.626 0.1212 -0.665046 0
M  V30 7843 H 735.18 -0.288119 -2.03369 0
M  V30 7844 H 733.41 1.8853 -3.37629 0
M  V30 7845 H 735.099 1.63753 -3.71403 0
M  V30 7846 H 735.865 -0.588963 -4.81411 0
M  V30 7847 H 731.744 0.61253 -4.56913 0
M  V30 7848 H 735.288 -2.15289 -6.63548 0
M  V30 7849 H 731.185 -0.943786 -6.38563 0
M  V30 7850 H 731.953 -2.45584 -7.80789 0
M  V30 7851 N 734.616 1.57351 0.0885366 0
M  V30 7852 C 735.862 1.86696 0.791996 0
M  V30 7853 C 736.195 0.775148 1.78059 0
M  V30 7854 O 735.47 -0.216247 1.93294 0
M  V30 7855 C 735.753 3.26684 1.51491 0
M  V30 7856 C 735.606 4.465 0.543858 0
M  V30 7857 C 736.925 3.64664 2.46391 0
M  V30 7858 H 734.044 0.679049 0.286463 0
M  V30 7859 H 736.686 1.89919 0.0554866 0
M  V30 7860 H 734.836 3.24067 2.14273 0
M  V30 7861 H 736.508 4.61235 -0.0774597 0
M  V30 7862 H 734.751 4.33567 -0.142228 0
M  V30 7863 H 735.422 5.41192 1.08696 0
M  V30 7864 H 737.898 3.68267 1.93698 0
M  V30 7865 H 736.774 4.63534 2.93986 0
M  V30 7866 H 737.035 2.93698 3.30445 0
M  V30 7867 N 736.094 -0.359525 1.53444 0
M  V30 7868 C 737.057 -1.42357 1.7963 0
M  V30 7869 C 738.057 -1.46319 0.666884 0
M  V30 7870 O 739.247 -1.46974 0.935113 0
M  V30 7871 C 736.379 -2.81425 1.92387 0
M  V30 7872 H 737.572 -1.20409 2.74666 0
M  V30 7873 H 735.125 -0.593007 1.44614 0
M  V30 7874 H 735.86 -3.08679 0.994384 0
M  V30 7875 H 735.645 -2.79947 2.74539 0
M  V30 7876 H 737.135 -3.5847 2.14218 0
M  V30 7877 N 737.572 -1.44907 -0.619662 0
M  V30 7878 C 738.849 -1.38766 -1.37852 0
M  V30 7879 C 739.229 -0.0521393 -2.11036 0
M  V30 7880 O 738.577 0.965613 -2.07095 0
M  V30 7881 C 738.787 -2.59344 -2.33541 0
M  V30 7882 C 740.135 -3.03909 -2.96521 0
M  V30 7883 O 741.159 -2.59631 -2.43865 0
M  V30 7884 O 740.018 -3.80713 -3.92071 0
M  V30 7885 H 737.112 -0.550083 -0.617525 0
M  V30 7886 H 739.658 -1.57015 -0.643759 0
M  V30 7887 H 738.43 -3.48142 -1.78642 0
M  V30 7888 H 738.053 -2.43367 -3.14417 0
M  V30 7889 N 739.05 0.861098 -1.31996 0
M  V30 7890 C 739.997 1.96912 -1.20392 0
M  V30 7891 C 740.967 1.65869 -0.0875899 0
M  V30 7892 O 742.152 1.88992 -0.262011 0
M  V30 7893 C 739.292 3.32435 -0.926335 0
M  V30 7894 C 738.405 3.76018 -2.12684 0
M  V30 7895 C 737.54 5.00301 -1.78529 0
M  V30 7896 C 736.579 5.36357 -2.94937 0
M  V30 7897 N 735.716 6.51818 -2.60917 0
M  V30 7898 H 740.556 2.06169 -2.1517 0
M  V30 7899 H 738.093 1.00917 -1.07024 0
M  V30 7900 H 740.051 4.10478 -0.745917 0
M  V30 7901 H 738.681 3.22796 -0.0153578 0
M  V30 7902 H 737.733 2.93683 -2.41774 0
M  V30 7903 H 739.045 3.98664 -2.99781 0
M  V30 7904 H 738.199 5.86034 -1.57001 0
M  V30 7905 H 736.938 4.79578 -0.886356 0
M  V30 7906 H 735.943 4.49139 -3.17103 0
M  V30 7907 H 737.168 5.59041 -3.85552 0
M  V30 7908 H 735.114 6.32624 -1.73558 0
M  V30 7909 H 735.031 6.7445 -3.41544 0
M  V30 7910 H 736.299 7.4072 -2.42804 0
M  V30 7911 N 740.528 1.15101 1.07655 0
M  V30 7912 C 741.438 0.858869 2.18313 0
M  V30 7913 C 742.454 -0.163641 1.73229 0
M  V30 7914 O 743.63 0.00969541 2.01398 0
M  V30 7915 C 740.695 0.34893 3.4494 0
M  V30 7916 C 739.756 1.43495 4.04608 0
M  V30 7917 C 738.989 0.949253 5.2519 0
M  V30 7918 O 739.212 -0.20636 5.70027 0
M  V30 7919 O 738.146 1.73161 5.76454 0
M  V30 7920 H 741.972 1.78386 2.45788 0
M  V30 7921 H 739.557 0.929876 1.16934 0
M  V30 7922 H 741.439 0.070851 4.2134 0
M  V30 7923 H 740.114 -0.548237 3.19024 0
M  V30 7924 H 739.021 1.7666 3.29761 0
M  V30 7925 H 740.354 2.30692 4.3479 0
M  V30 7926 N 742.006 -1.2595 0.947325 0
M  V30 7927 C 743.253 -1.93463 0.598178 0
M  V30 7928 C 743.581 -1.74271 -0.863705 0
M  V30 7929 O 742.836 -1.07684 -1.63409 0
M  V30 7930 C 743.135 -3.46034 0.894158 0
M  V30 7931 C 742.801 -3.85373 2.3409 0
M  V30 7932 C 741.463 -3.95823 2.73637 0
M  V30 7933 C 743.815 -4.04986 3.2808 0
M  V30 7934 C 741.143 -4.23288 4.06257 0
M  V30 7935 C 743.495 -4.3394 4.60303 0
M  V30 7936 C 742.159 -4.42606 4.99656 0
M  V30 7937 H 741.429 -0.707933 0.218889 0
M  V30 7938 H 744.076 -1.4964 1.19499 0
M  V30 7939 H 742.381 -3.9121 0.214874 0
M  V30 7940 H 744.078 -3.96445 0.602698 0
M  V30 7941 H 740.668 -3.7779 2.02417 0
M  V30 7942 H 744.852 -3.96333 2.9872 0
M  V30 7943 H 740.108 -4.28211 4.36401 0
M  V30 7944 H 744.282 -4.48061 5.33118 0
M  V30 7945 H 741.909 -4.63641 6.02446 0
M  V30 7946 N 743.484 -0.715051 -1.40445 0
M  V30 7947 C 744.434 -0.038591 -2.27967 0
M  V30 7948 C 745.418 0.733099 -1.43229 0
M  V30 7949 O 746.61 0.605388 -1.66325 0
M  V30 7950 C 743.739 0.882801 -3.31755 0
M  V30 7951 C 742.825 0.106325 -4.23967 0
M  V30 7952 N 743.216 -0.910143 -4.97544 0
M  V30 7953 C 741.514 0.33896 -4.4471 0
M  V30 7954 C 742.215 -1.37665 -5.65175 0
M  V30 7955 N 741.191 -0.698905 -5.39088 0
M  V30 7956 H 744.993 -0.81765 -2.82297 0
M  V30 7957 H 742.507 -0.547591 -1.5289 0
M  V30 7958 H 744.504 1.38273 -3.93302 0
M  V30 7959 H 743.164 1.66124 -2.78985 0
M  V30 7960 H 744.175 -1.29097 -5.01552 0
M  V30 7961 H 740.852 1.09377 -4.02918 0
M  V30 7962 H 742.242 -2.22122 -6.34123 0
M  V30 7963 N 744.962 1.50701 -0.461195 0
M  V30 7964 C 745.925 2.2686 0.326679 0
M  V30 7965 C 746.925 1.31243 0.929085 0
M  V30 7966 O 748.115 1.54754 0.799807 0
M  V30 7967 C 745.247 3.07844 1.46441 0
M  V30 7968 H 746.44 2.97954 -0.341095 0
M  V30 7969 H 743.993 1.54814 -0.214984 0
M  V30 7970 H 744.728 2.41223 2.16753 0
M  V30 7971 H 744.513 3.78101 1.03836 0
M  V30 7972 H 746.003 3.65469 2.02044 0
M  V30 7973 N 746.441 0.193421 1.56409 0
M  V30 7974 C 747.852 -0.319471 1.83946 0
M  V30 7975 C 748.203 -1.61505 1.11403 0
M  V30 7976 O 747.328 -2.13139 0.374289 0
M  V30 7977 C 747.923 -0.586411 3.33686 0
M  V30 7978 C 746.482 -1.04368 3.61641 0
M  V30 7979 C 745.629 -0.0913834 2.77149 0
M  V30 7980 H 748.58 0.417242 1.53117 0
M  V30 7981 H 748.601 -1.43591 3.52366 0
M  V30 7982 H 748.113 0.356701 3.86457 0
M  V30 7983 H 746.214 -2.00113 3.14302 0
M  V30 7984 H 746.327 -0.937549 4.69837 0
M  V30 7985 H 744.691 -0.592954 2.47702 0
M  V30 7986 H 745.474 0.846142 3.32709 0
M  V30 7987 N 747.919 -1.57396 -0.0801906 0
M  V30 7988 C 748.849 -2.06145 -1.09665 0
M  V30 7989 C 749.83 -0.953273 -1.40878 0
M  V30 7990 O 751.015 -1.22548 -1.50651 0
M  V30 7991 C 748.145 -2.49836 -2.41245 0
M  V30 7992 C 747.099 -3.64454 -2.24405 0
M  V30 7993 C 746.425 -3.94172 -3.61293 0
M  V30 7994 C 747.725 -4.94807 -1.67223 0
M  V30 7995 H 749.419 -2.91316 -0.691028 0
M  V30 7996 H 746.965 -1.40145 -0.330957 0
M  V30 7997 H 748.918 -2.82552 -3.12638 0
M  V30 7998 H 747.642 -1.61683 -2.83771 0
M  V30 7999 H 746.301 -3.32008 -1.55454 0
M  V30 8000 H 745.949 -3.03163 -4.01374 0
M  V30 8001 H 745.649 -4.71345 -3.50867 0
M  V30 8002 H 747.173 -4.29376 -4.3413 0
M  V30 8003 H 748.587 -5.25807 -2.28472 0
M  V30 8004 H 746.984 -5.76245 -1.67515 0
M  V30 8005 H 748.054 -4.80751 -0.632944 0
M  V30 8006 N 749.397 0.351382 -1.53633 0
M  V30 8007 C 750.646 1.08988 -1.69719 0
M  V30 8008 C 750.959 1.90043 -0.462948 0
M  V30 8009 O 752.165 2.66769 -0.504613 0
M  V30 8010 C 750.621 1.98691 -3.00083 0
M  V30 8011 C 750.229 1.22881 -4.30818 0
M  V30 8012 C 751.973 2.72446 -3.25536 0
M  V30 8013 C 749.88 2.11568 -5.52262 0
M  V30 8014 H 748.81 0.410588 -0.632403 0
M  V30 8015 H 751.461 0.349886 -1.80133 0
M  V30 8016 H 749.843 2.76478 -2.83506 0
M  V30 8017 H 751.017 0.500582 -4.58073 0
M  V30 8018 H 749.332 0.60928 -4.11918 0
M  V30 8019 H 751.929 3.39055 -4.13456 0
M  V30 8020 H 752.272 3.38588 -2.42206 0
M  V30 8021 H 752.805 2.01735 -3.42852 0
M  V30 8022 H 749.544 1.4998 -6.38111 0
M  V30 8023 H 749.064 2.82201 -5.29266 0
M  V30 8024 H 750.743 2.70802 -5.87601 0
M  V30 8025 N 750.875 1.45233 0.611969 0
M  V30 8026 C 752.124 1.48296 1.36716 0
M  V30 8027 C 752.437 0.12706 1.95187 0
M  V30 8028 O 753.643 0.0353066 2.71477 0
M  V30 8029 C 752.099 2.61168 2.47627 0
M  V30 8030 C 751.707 4.03051 1.95587 0
M  V30 8031 C 753.451 2.73472 3.24674 0
M  V30 8032 C 751.358 5.07312 3.03954 0
M  V30 8033 H 750.288 0.5518 0.513841 0
M  V30 8034 H 752.939 1.7136 0.656359 0
M  V30 8035 H 751.321 2.31379 3.21372 0
M  V30 8036 H 752.495 4.42497 1.2858 0
M  V30 8037 H 750.81 3.95158 1.31298 0
M  V30 8038 H 753.407 3.48537 4.05494 0
M  V30 8039 H 753.75 1.79953 3.75397 0
M  V30 8040 H 754.283 3.02765 2.58028 0
M  V30 8041 H 751.022 6.02525 2.58154 0
M  V30 8042 H 750.542 4.7244 3.69541 0
M  V30 8043 H 752.221 5.31867 3.6841 0
M  V30 8044 N 752.353 -0.854086 1.3245 0
M  V30 8045 C 753.63 -1.59188 1.1366 0
M  V30 8046 C 754.01 -2.08917 -0.302807 0
M  V30 8047 O 753.358 -1.8795 -1.29951 0
M  V30 8048 C 753.568 -2.73757 2.16467 0
M  V30 8049 C 754.916 -3.43323 2.49829 0
M  V30 8050 O 755.94 -2.83983 2.15017 0
M  V30 8051 O 754.799 -4.50409 3.09506 0
M  V30 8052 H 751.893 -0.701092 0.438633 0
M  V30 8053 H 754.439 -0.898165 1.43983 0
M  V30 8054 H 753.211 -2.3454 3.1322 0
M  V30 8055 H 752.834 -3.50804 1.87142 0
M  V30 8056 N 753.831 -1.1567 -1.07043 0
M  V30 8057 C 754.741 -0.870435 -2.17855 0
M  V30 8058 C 755.757 0.154452 -1.73313 0
M  V30 8059 O 756.933 -0.0203759 -2.0139 0
M  V30 8060 C 753.998 -0.367219 -3.4475 0
M  V30 8061 C 753.059 -1.45639 -4.03841 0
M  V30 8062 C 752.292 -0.977092 -5.2468 0
M  V30 8063 O 752.515 0.176127 -5.70128 0
M  V30 8064 O 751.449 -1.76215 -5.75527 0
M  V30 8065 H 755.275 -1.79687 -2.44839 0
M  V30 8066 H 752.86 -0.936064 -1.1644 0
M  V30 8067 H 754.742 -0.0931947 -4.21297 0
M  V30 8068 H 753.417 0.53131 -3.1931 0
M  V30 8069 H 752.324 -1.78406 -3.28819 0
M  V30 8070 H 753.657 -2.32995 -4.3356 0
M  V30 8071 N 755.309 1.25446 -0.953992 0
M  V30 8072 C 756.257 2.27909 -0.46478 0
M  V30 8073 C 757.251 1.62904 0.464607 0
M  V30 8074 O 758.457 1.76733 0.341407 0
M  V30 8075 H 754.832 0.74036 -0.131798 0
M  V30 8076 H 756.803 2.66559 -1.34122 0
M  V30 8077 C 755.552 3.46853 0.242589 0
M  V30 8078 H 754.875 3.97105 -0.463418 0
M  V30 8079 H 756.315 4.20432 0.548919 0
M  V30 8080 C 754.774 3.03386 1.46487 0
M  V30 8081 O 755.304 3.09342 2.56262 0
M  V30 8082 N 753.51 2.58584 1.32599 0
M  V30 8083 H 753.057 2.53938 0.432834 0
M  V30 8084 H 753.015 2.29866 2.14497 0
M  V30 8085 N 756.787 0.722489 1.40064 0
M  V30 8086 C 758.035 0.264455 2.00362 0
M  V30 8087 C 758.356 -1.14847 1.57592 0
M  V30 8088 O 757.626 -1.77982 0.818477 0
M  V30 8089 H 756.206 0.0947846 0.740962 0
M  V30 8090 H 758.868 0.929659 1.71299 0
M  V30 8091 H 757.964 0.302977 3.10626 0
M  V30 8092 N 758.265 -1.50454 0.469181 0
M  V30 8093 C 759.511 -2.02615 -0.0865971 0
M  V30 8094 C 759.844 -1.35062 -1.39542 0
M  V30 8095 O 759.119 -0.475701 -1.88593 0
M  V30 8096 C 759.402 -3.59068 -0.272385 0
M  V30 8097 C 759.255 -4.37196 1.05733 0
M  V30 8098 C 760.574 -4.2793 -1.0278 0
M  V30 8099 H 757.693 -0.736389 -0.0299977 0
M  V30 8100 H 760.335 -1.79792 0.614399 0
M  V30 8101 H 758.485 -3.78646 -0.869471 0
M  V30 8102 H 760.157 -4.29195 1.69084 0
M  V30 8103 H 758.4 -4.01013 1.65442 0
M  V30 8104 H 759.071 -5.44924 0.880997 0
M  V30 8105 H 761.547 -4.12816 -0.521718 0
M  V30 8106 H 760.423 -5.37214 -1.12659 0
M  V30 8107 H 760.684 -3.90968 -2.0639 0
M  V30 8108 N 759.743 -0.201713 -1.56304 0
M  V30 8109 C 760.693 0.729444 -2.16016 0
M  V30 8110 C 761.677 1.17164 -1.10279 0
M  V30 8111 O 762.869 1.12893 -1.36324 0
M  V30 8112 C 759.998 1.94594 -2.82822 0
M  V30 8113 C 759.084 1.52434 -3.95758 0
M  V30 8114 N 759.475 0.814106 -4.99205 0
M  V30 8115 C 757.773 1.81314 -4.07481 0
M  V30 8116 C 758.474 0.601896 -5.78578 0
M  V30 8117 N 757.45 1.15263 -5.3124 0
M  V30 8118 H 761.252 0.178163 -2.93359 0
M  V30 8119 H 758.766 -0.00218038 -1.624 0
M  V30 8120 H 760.763 2.62357 -3.23998 0
M  V30 8121 H 759.423 2.50188 -2.06969 0
M  V30 8122 H 760.434 0.468872 -5.15773 0
M  V30 8123 H 757.111 2.3837 -3.42762 0
M  V30 8124 H 758.501 0.0380119 -6.71889 0
M  V30 8125 N 761.222 1.57436 0.0718424 0
M  V30 8126 C 762.132 2.07039 1.10326 0
M  V30 8127 C 763.148 0.999918 1.424 0
M  V30 8128 O 764.324 1.31462 1.52577 0
M  V30 8129 C 761.389 2.50439 2.39752 0
M  V30 8130 C 760.45 3.71784 2.14651 0
M  V30 8131 C 759.683 4.13104 3.37906 0
M  V30 8132 O 759.906 3.54298 4.47023 0
M  V30 8133 O 758.84 5.05894 3.26121 0
M  V30 8134 H 762.666 2.95239 0.711872 0
M  V30 8135 H 760.251 1.46638 0.28597 0
M  V30 8136 H 762.133 2.78876 3.15921 0
M  V30 8137 H 760.808 1.65368 2.78271 0
M  V30 8138 H 759.715 3.48431 1.36187 0
M  V30 8139 H 761.048 4.57707 1.81012 0
M  V30 8140 N 762.7 -0.34323 1.53817 0
M  V30 8141 C 763.63 -1.42709 1.84814 0
M  V30 8142 C 764.611 -1.5488 0.703297 0
M  V30 8143 O 765.796 -1.69082 0.955237 0
M  V30 8144 C 762.926 -2.79756 2.05801 0
M  V30 8145 C 761.88 -2.82392 3.21619 0
M  V30 8146 C 761.206 -4.22326 3.2794 0
M  V30 8147 C 762.506 -2.479 4.59721 0
M  V30 8148 H 764.2 -1.17018 2.75585 0
M  V30 8149 H 761.746 -0.561485 1.32602 0
M  V30 8150 H 763.699 -3.55627 2.26069 0
M  V30 8151 H 762.423 -3.06883 1.11761 0
M  V30 8152 H 761.082 -2.08974 3.01207 0
M  V30 8153 H 760.73 -4.46564 2.31494 0
M  V30 8154 H 760.43 -4.25001 4.05768 0
M  V30 8155 H 761.954 -5.00039 3.50419 0
M  V30 8156 H 763.368 -3.13484 4.80001 0
M  V30 8157 H 761.765 -2.61857 5.39954 0
M  V30 8158 H 762.835 -1.43087 4.63308 0
M  V30 8159 N 764.178 -1.45556 -0.604258 0
M  V30 8160 C 765.424 -1.49968 -1.36519 0
M  V30 8161 C 765.757 -0.142236 -1.93678 0
M  V30 8162 O 765.032 0.843717 -1.75247 0
M  V30 8163 C 765.315 -2.58146 -2.51063 0
M  V30 8164 C 765.168 -4.03346 -1.99078 0
M  V30 8165 C 766.487 -2.62581 -3.53184 0
M  V30 8166 H 763.606 -0.545993 -0.495036 0
M  V30 8167 H 766.248 -1.77382 -0.680845 0
M  V30 8168 H 764.398 -2.34901 -3.09441 0
M  V30 8169 H 766.07 -4.37811 -1.45323 0
M  V30 8170 H 764.313 -4.13845 -1.30055 0
M  V30 8171 H 764.984 -4.74731 -2.81664 0
M  V30 8172 H 767.46 -2.83419 -3.04652 0
M  V30 8173 H 766.336 -3.40131 -4.30816 0
M  V30 8174 H 766.597 -1.67798 -4.09019 0
M  V30 8175 N 765.656 0.84705 -1.32902 0
M  V30 8176 C 766.603 1.95624 -1.22473 0
M  V30 8177 C 767.573 1.65767 -0.105178 0
M  V30 8178 O 768.758 1.88704 -0.282042 0
M  V30 8179 C 765.898 3.31434 -0.961542 0
M  V30 8180 C 765.011 3.73741 -2.1666 0
M  V30 8181 C 764.146 4.98379 -1.83825 0
M  V30 8182 C 763.185 5.33199 -3.00609 0
M  V30 8183 N 762.322 6.49014 -2.67816 0
M  V30 8184 H 767.162 2.03875 -2.17345 0
M  V30 8185 H 764.699 0.997764 -1.08088 0
M  V30 8186 H 766.657 4.09663 -0.789411 0
M  V30 8187 H 765.287 3.22762 -0.0495938 0
M  V30 8188 H 764.339 2.91102 -2.44875 0
M  V30 8189 H 765.651 3.95462 -3.03993 0
M  V30 8190 H 764.805 5.84336 -1.63208 0
M  V30 8191 H 763.544 4.78611 -0.937172 0
M  V30 8192 H 762.549 4.4575 -3.21849 0
M  V30 8193 H 763.774 5.5492 -3.9146 0
M  V30 8194 H 761.72 6.30748 -1.80258 0
M  V30 8195 H 761.637 6.7079 -3.48679 0
M  V30 8196 H 762.905 7.38103 -2.50647 0
M  V30 8197 N 767.134 1.16236 1.06428 0
M  V30 8198 C 768.082 0.863669 2.15971 0
M  V30 8199 C 769.076 -0.166723 1.68578 0
M  V30 8200 O 770.282 -0.0208425 1.79988 0
M  V30 8201 H 766.657 0.261684 0.705 0
M  V30 8202 H 768.628 1.79498 2.38376 0
M  V30 8203 C 767.377 0.379697 3.45621 0
M  V30 8204 H 766.7 1.16399 3.82481 0
M  V30 8205 H 768.14 0.209458 4.23482 0
M  V30 8206 C 766.599 -0.900499 3.24642 0
M  V30 8207 O 767.129 -1.97004 3.50074 0
M  V30 8208 N 765.335 -0.843721 2.78082 0
M  V30 8209 H 764.882 0.0268429 2.57586 0
M  V30 8210 H 764.84 -1.70078 2.64425 0
M  V30 8211 N 768.612 -1.24939 0.960631 0
M  V30 8212 C 769.86 -1.92437 0.617441 0
M  V30 8213 C 770.181 -1.75543 -0.849101 0
M  V30 8214 O 769.451 -1.12269 -1.60538 0
M  V30 8215 H 768.031 -0.712192 0.225371 0
M  V30 8216 H 770.693 -1.5198 1.22017 0
M  V30 8217 H 769.789 -3.00247 0.851933 0
M  V30 8218 N 770.09 -0.729906 -1.39679 0
M  V30 8219 C 771.339 -0.272534 -1.9985 0
M  V30 8220 C 771.652 1.14519 -1.58571 0
M  V30 8221 O 772.858 1.70182 -2.11543 0
M  V30 8222 C 771.314 -0.436322 -3.57245 0
M  V30 8223 C 770.922 -1.86161 -4.0749 0
M  V30 8224 C 772.666 -0.0404679 -4.24481 0
M  V30 8225 C 770.573 -1.97522 -5.5744 0
M  V30 8226 H 769.503 -0.0981428 -0.747585 0
M  V30 8227 H 772.154 -0.903056 -1.59741 0
M  V30 8228 H 770.536 0.263015 -3.95126 0
M  V30 8229 H 771.71 -2.59248 -3.80955 0
M  V30 8230 H 770.025 -2.21021 -3.529 0
M  V30 8231 H 772.622 -0.104437 -5.34598 0
M  V30 8232 H 772.965 1.00357 -4.04023 0
M  V30 8233 H 773.498 -0.690774 -3.91757 0
M  V30 8234 H 770.237 -3.00096 -5.82771 0
M  V30 8235 H 769.757 -1.28864 -5.85794 0
M  V30 8236 H 771.436 -1.754 -6.22771 0
M  V30 8237 O 771.607 1.49168 -0.618974 0
M  V30 8238 H 772.298 1.93235 -0.134184 0
M  V30 END ATOM
M  V30 BEGIN BOND
M  V30 END BOND
M  V30 END CTAB
M  END
$$$$
