drugbank_target|Q16478 Glutamate receptor ionotropic, kainate 5 (DB00142; DB00237)
 OpenBabel12092119413D

  0  0  0     0  0            999 V3000
M  V30 BEGIN CTAB
M  V30 COUNTS 15390 15556 0 0 0
M  V30 BEGIN ATOM
M  V30 1 H -0.908 1.98254 -0.117106 0
M  V30 2 N 0 1.576 0 0
M  V30 3 C 0.933 2.03868 1.02534 0
M  V30 4 C 1.911 0.928543 1.3348 0
M  V30 5 O 3.095 1.19667 1.45644 0
M  V30 6 C 0.222 2.43627 2.35294 0
M  V30 7 C -0.732 3.65373 2.2001 0
M  V30 8 S 0.101 5.13292 1.52614 0
M  V30 9 C 1.257 5.56322 2.86805 0
M  V30 10 H 1.49 2.90518 0.631377 0
M  V30 11 H -0.977 1.52953 0.210867 0
M  V30 12 H 0.981 2.67203 3.11629 0
M  V30 13 H -0.358 1.57376 2.7183 0
M  V30 14 H -1.165 3.90944 3.18086 0
M  V30 15 H -1.563 3.418 1.51819 0
M  V30 16 H 0.729 5.58782 3.83104 0
M  V30 17 H 1.672 6.56266 2.65933 0
M  V30 18 H 2.08 4.83886 2.90714 0
M  V30 19 N 1.4781 -0.272755 1.55222 0
M  V30 20 C 2.8891 -0.84378 1.66545 0
M  V30 21 C 3.2401 -1.87035 0.592641 0
M  V30 22 O 2.3651 -2.14761 -0.265818 0
M  V30 23 C 2.9601 -1.53723 3.01918 0
M  V30 24 C 1.5191 -2.05628 3.15268 0
M  V30 25 C 0.6661 -0.898424 2.62343 0
M  V30 26 H 3.6171 -0.0490998 1.58624 0
M  V30 27 H 3.6381 -2.40421 2.94921 0
M  V30 28 H 3.1501 -0.78983 3.79978 0
M  V30 29 H 1.2511 -2.83329 2.41983 0
M  V30 30 H 1.3641 -2.27142 4.21833 0
M  V30 31 H -0.2719 -1.29186 2.19506 0
M  V30 32 H 0.5111 -0.164528 3.42906 0
M  V30 33 N 2.9562 -1.48159 -0.537278 0
M  V30 34 C 3.9192 -1.61665 -1.62472 0
M  V30 35 C 4.9192 -0.490395 -1.5314 0
M  V30 36 O 6.1092 -0.755998 -1.5694 0
M  V30 37 C 3.2412 -1.57997 -3.02076 0
M  V30 38 H 4.4342 -2.58621 -1.51839 0
M  V30 39 H 1.9872 -1.36647 -0.758771 0
M  V30 40 H 2.7222 -0.624913 -3.18222 0
M  V30 41 H 2.5072 -2.39755 -3.10258 0
M  V30 42 H 3.9972 -1.70627 -3.81151 0
M  V30 43 N 4.4343 0.785586 -1.36625 0
M  V30 44 C 5.3443 1.92964 -1.33425 0
M  V30 45 C 6.3603 1.72394 -0.235851 0
M  V30 46 O 7.5363 1.95866 -0.468878 0
M  V30 47 C 4.6013 3.27884 -1.12662 0
M  V30 48 C 3.6623 3.61204 -2.32013 0
M  V30 49 C 2.8953 4.89687 -2.12231 0
M  V30 50 O 3.1183 5.59704 -1.09945 0
M  V30 51 O 2.0523 5.21752 -3.00098 0
M  V30 52 H 5.8783 1.98613 -2.29753 0
M  V30 53 H 3.4633 0.926384 -1.17211 0
M  V30 54 H 5.3453 4.08614 -1.03016 0
M  V30 55 H 4.0203 3.23118 -0.193991 0
M  V30 56 H 2.9273 2.80765 -2.47228 0
M  V30 57 H 4.2603 3.70698 -3.23796 0
M  V30 58 N 5.9124 1.20967 1.01018 0
M  V30 59 C 6.8424 0.988272 2.11555 0
M  V30 60 C 7.8234 -0.0849778 1.69888 0
M  V30 61 O 9.0084 0.0738202 1.9406 0
M  V30 62 C 6.1384 0.546528 3.42973 0
M  V30 63 C 5.0924 1.56375 3.9841 0
M  V30 64 C 4.4184 0.97842 5.25672 0
M  V30 65 C 5.7184 2.94922 4.31066 0
M  V30 66 H 7.4124 1.91276 2.30334 0
M  V30 67 H 4.9584 0.921073 1.1069 0
M  V30 68 H 6.9114 0.378839 4.19694 0
M  V30 69 H 5.6354 -0.413598 3.23971 0
M  V30 70 H 4.2944 1.71891 3.23804 0
M  V30 71 H 3.9424 0.0101688 5.02999 0
M  V30 72 H 3.6424 1.65784 5.63728 0
M  V30 73 H 5.1664 0.821939 6.05043 0
M  V30 74 H 6.5804 2.8288 4.9865 0
M  V30 75 H 4.9774 3.5983 4.80253 0
M  V30 76 H 6.0474 3.4616 3.39561 0
M  V30 77 N 7.3905 -1.2043 1.01659 0
M  V30 78 C 8.3205 -2.25466 0.607226 0
M  V30 79 C 9.3015 -1.65853 -0.377716 0
M  V30 80 O 10.4865 -1.92409 -0.263149 0
M  V30 81 C 7.6165 -3.47256 -0.0552949 0
M  V30 82 C 6.5705 -4.19462 0.850632 0
M  V30 83 C 5.8965 -5.34673 0.0538859 0
M  V30 84 C 7.1965 -4.75603 2.15868 0
M  V30 85 H 8.8905 -2.59962 1.48526 0
M  V30 86 H 6.4365 -1.2496 0.715605 0
M  V30 87 H 8.3895 -4.19917 -0.353233 0
M  V30 88 H 7.1135 -3.11924 -0.968045 0
M  V30 89 H 5.7725 -3.48667 1.13257 0
M  V30 90 H 5.4205 -4.95585 -0.860514 0
M  V30 91 H 5.1205 -5.83913 0.657192 0
M  V30 92 H 6.6445 -6.10138 -0.237598 0
M  V30 93 H 8.0585 -5.40083 1.92311 0
M  V30 94 H 6.4555 -5.3528 2.71284 0
M  V30 95 H 7.5255 -3.94346 2.82169 0
M  V30 96 N 8.8686 -0.792821 -1.36206 0
M  V30 97 C 9.7986 -0.207853 -2.32573 0
M  V30 98 C 10.7796 0.659055 -1.56813 0
M  V30 99 O 11.9646 0.592176 -1.84951 0
M  V30 100 C 9.0946 0.655449 -3.41059 0
M  V30 101 C 8.0486 -0.111842 -4.27854 0
M  V30 102 C 7.3746 0.872274 -5.27537 0
M  V30 103 C 8.6746 -1.30299 -5.05786 0
M  V30 104 H 10.3686 -1.01294 -2.81744 0
M  V30 105 H 7.9146 -0.48854 -1.3546 0
M  V30 106 H 9.8676 1.07464 -4.07467 0
M  V30 107 H 8.5916 1.49328 -2.90463 0
M  V30 108 H 7.2506 -0.512053 -3.63006 0
M  V30 109 H 6.8986 1.70523 -4.73214 0
M  V30 110 H 6.5986 0.363291 -5.86476 0
M  V30 111 H 8.1226 1.28996 -5.96818 0
M  V30 112 H 9.5366 -0.959379 -5.65216 0
M  V30 113 H 7.9336 -1.7455 -5.74154 0
M  V30 114 H 9.0036 -2.09663 -4.37229 0
M  V30 115 N 10.3467 1.47872 -0.545128 0
M  V30 116 C 11.2767 2.32661 0.197793 0
M  V30 117 C 12.2577 1.43041 0.920504 0
M  V30 118 O 13.4427 1.71912 0.90333 0
M  V30 119 C 10.5727 3.24569 1.23582 0
M  V30 120 C 9.5267 4.23333 0.630323 0
M  V30 121 C 8.8527 5.0448 1.77211 0
M  V30 122 C 10.1527 5.20704 -0.407974 0
M  V30 123 H 11.8467 2.95024 -0.510045 0
M  V30 124 H 9.3927 1.4187 -0.246731 0
M  V30 125 H 11.3457 3.8272 1.76362 0
M  V30 126 H 10.0697 2.60236 1.97344 0
M  V30 127 H 8.7287 3.6639 0.123922 0
M  V30 128 H 8.3767 4.36561 2.49847 0
M  V30 129 H 8.0767 5.71339 1.37281 0
M  V30 130 H 9.6007 5.65487 2.3034 0
M  V30 131 H 11.0147 5.7329 0.033305 0
M  V30 132 H 9.4117 5.95699 -0.725486 0
M  V30 133 H 10.4817 4.66917 -1.30828 0
M  V30 134 N 11.8248 0.280983 1.55075 0
M  V30 135 C 12.7548 -0.597469 2.25727 0
M  V30 136 C 13.7358 -1.15417 1.24952 0
M  V30 137 O 14.9208 -1.18722 1.53684 0
M  V30 138 C 12.0508 -1.7789 2.98283 0
M  V30 139 C 11.0048 -1.35347 4.06036 0
M  V30 140 C 10.3308 -2.61846 4.66198 0
M  V30 141 C 11.6308 -0.499354 5.19907 0
M  V30 142 H 13.3248 -0.00824265 2.99399 0
M  V30 143 H 10.8708 -0.0025244 1.44 0
M  V30 144 H 12.8238 -2.39937 3.46422 0
M  V30 145 H 11.5478 -2.39405 2.22155 0
M  V30 146 H 10.2068 -0.756156 3.58717 0
M  V30 147 H 9.8548 -3.21632 3.86732 0
M  V30 148 H 9.5548 -2.3409 5.38958 0
M  V30 149 H 11.0788 -3.24732 5.1709 0
M  V30 150 H 12.4928 -1.02498 5.64063 0
M  V30 151 H 10.8898 -0.316424 5.99265 0
M  V30 152 H 11.9598 0.480459 4.82514 0
M  V30 153 N 13.3029 -1.57598 0.00835791 0
M  V30 154 C 14.5519 -1.90107 -0.673968 0
M  V30 155 C 14.8649 -0.884275 -1.7447 0
M  V30 156 O 16.0709 -1.09987 -2.48224 0
M  V30 157 C 14.5269 -3.37497 -1.24995 0
M  V30 158 C 14.1349 -4.47491 -0.2136 0
M  V30 159 C 15.8789 -3.79104 -1.90999 0
M  V30 160 C 13.7859 -5.85963 -0.80005 0
M  V30 161 H 12.7159 -0.709393 -0.255495 0
M  V30 162 H 15.3669 -1.83365 0.0702693 0
M  V30 163 H 13.7489 -3.39102 -2.04513 0
M  V30 164 H 14.9229 -4.57414 0.557596 0
M  V30 165 H 13.2379 -4.14956 0.346474 0
M  V30 166 H 15.8349 -4.79901 -2.35795 0
M  V30 167 H 16.1779 -3.1306 -2.74407 0
M  V30 168 H 16.7109 -3.79833 -1.18203 0
M  V30 169 H 13.4499 -6.555 -0.00456708 0
M  V30 170 H 12.9699 -5.79687 -1.54021 0
M  V30 171 H 14.6489 -6.33884 -1.29615 0
M  V30 172 N 14.781 0.264519 -1.55364 0
M  V30 173 C 16.027 0.99646 -1.76631 0
M  V30 174 C 16.36 1.85632 -0.570478 0
M  V30 175 O 15.635 1.89647 0.43175 0
M  V30 176 C 15.918 1.87187 -3.07625 0
M  V30 177 C 15.771 1.04138 -4.37579 0
M  V30 178 C 17.09 2.85749 -3.34717 0
M  V30 179 H 14.209 0.360841 -0.642622 0
M  V30 180 H 16.851 0.268218 -1.88097 0
M  V30 181 H 15.001 2.49279 -2.9798 0
M  V30 182 H 16.673 0.440517 -4.59192 0
M  V30 183 H 14.916 0.345115 -4.32425 0
M  V30 184 H 15.587 1.68729 -5.2558 0
M  V30 185 H 18.063 2.33793 -3.4421 0
M  V30 186 H 16.939 3.44136 -4.27623 0
M  V30 187 H 17.2 3.61311 -2.54768 0
M  V30 188 N 16.2591 1.48442 0.529413 0
M  V30 189 C 17.2221 1.62524 1.61612 0
M  V30 190 C 18.2221 0.498509 1.52877 0
M  V30 191 O 19.4121 0.76431 1.56537 0
M  V30 192 C 16.5441 1.59597 3.01233 0
M  V30 193 H 17.7371 2.59423 1.50465 0
M  V30 194 H 15.2901 1.37047 0.751514 0
M  V30 195 H 16.0251 0.641781 3.17886 0
M  V30 196 H 15.8101 2.41397 3.08982 0
M  V30 197 H 17.3001 1.72646 3.80241 0
M  V30 198 N 17.7372 -0.778329 1.37039 0
M  V30 199 C 18.9842 -1.53665 1.31884 0
M  V30 200 C 19.3122 -1.9425 -0.0986303 0
M  V30 201 O 18.5672 -1.63832 -1.07041 0
M  V30 202 C 18.8662 -2.81845 2.19768 0
M  V30 203 C 18.5322 -2.60345 3.68146 0
M  V30 204 C 17.1942 -2.5419 4.08584 0
M  V30 205 C 19.5462 -2.40923 4.62175 0
M  V30 206 C 16.8742 -2.26594 5.41177 0
M  V30 207 C 19.2262 -2.14852 5.94997 0
M  V30 208 C 17.8902 -2.07137 6.34547 0
M  V30 209 H 17.1602 -0.562299 0.482598 0
M  V30 210 H 19.8072 -0.897069 1.69189 0
M  V30 211 H 18.1122 -3.50328 1.75436 0
M  V30 212 H 19.8092 -3.39692 2.13097 0
M  V30 213 H 16.3992 -2.65996 3.36072 0
M  V30 214 H 20.5832 -2.44673 4.31797 0
M  V30 215 H 15.8392 -2.19111 5.70789 0
M  V30 216 H 20.0132 -1.98822 6.67415 0
M  V30 217 H 17.6402 -1.85518 7.37216 0
M  V30 218 N 19.2153 -1.21501 -1.00376 0
M  V30 219 C 20.1783 -0.976927 -2.07337 0
M  V30 220 C 21.1783 0.0525322 -1.60714 0
M  V30 221 O 22.3683 -0.184869 -1.73216 0
M  V30 222 C 19.5003 -0.473423 -3.37597 0
M  V30 223 H 20.6933 -1.92587 -2.29892 0
M  V30 224 H 18.2463 -1.03217 -1.17371 0
M  V30 225 H 18.9813 0.480379 -3.20722 0
M  V30 226 H 18.7663 -1.216 -3.72768 0
M  V30 227 H 20.2563 -0.32675 -4.1632 0
M  V30 228 N 20.6934 1.19889 -1.02296 0
M  V30 229 C 21.9184 1.9393 -0.735237 0
M  V30 230 C 22.3434 1.74639 0.698782 0
M  V30 231 O 21.7014 1.04481 1.48167 0
M  V30 232 C 21.7494 3.43916 -1.08417 0
M  V30 233 O 20.8534 4.11917 -0.199446 0
M  V30 234 H 20.1944 0.605645 -0.272196 0
M  V30 235 H 22.7244 1.52137 -1.36804 0
M  V30 236 H 22.7344 3.9456 -1.03856 0
M  V30 237 H 21.4094 3.5728 -2.12894 0
M  V30 238 H 19.9864 3.71666 -0.303136 0
M  V30 239 N 22.1715 0.800033 1.35784 0
M  V30 240 C 23.5825 0.439142 1.81462 0
M  V30 241 C 23.9335 -1.03813 1.66485 0
M  V30 242 O 23.0585 -1.80626 1.19177 0
M  V30 243 C 23.6535 0.790314 3.29453 0
M  V30 244 C 22.2125 0.482111 3.733 0
M  V30 245 C 21.3595 1.01938 2.57883 0
M  V30 246 H 24.3105 0.992254 1.23855 0
M  V30 247 H 24.3315 0.0853677 3.80404 0
M  V30 248 H 23.8435 1.86554 3.40322 0
M  V30 249 H 21.9445 -0.584652 3.67984 0
M  V30 250 H 22.0575 1.01015 4.6833 0
M  V30 251 H 20.4215 0.442043 2.50835 0
M  V30 252 H 21.2045 2.10059 2.71533 0
M  V30 253 N 23.6496 -1.47581 0.552962 0
M  V30 254 C 24.8746 -2.07378 0.0300593 0
M  V30 255 C 25.2996 -1.40355 -1.25229 0
M  V30 256 O 24.6576 -0.477099 -1.7491 0
M  V30 257 C 24.7056 -3.60274 -0.153231 0
M  V30 258 O 23.8096 -3.94041 -1.21678 0
M  V30 259 H 23.1506 -0.662158 0.0494182 0
M  V30 260 H 25.6806 -1.89662 0.767434 0
M  V30 261 H 25.6906 -4.0633 -0.368761 0
M  V30 262 H 24.3656 -4.08455 0.783397 0
M  V30 263 H 22.9426 -3.59735 -0.982079 0
M  V30 264 N 25.1277 -0.289203 -1.54924 0
M  V30 265 C 26.3677 0.324536 -2.01807 0
M  V30 266 C 26.7317 1.5199 -1.17316 0
M  V30 267 O 27.9327 2.20422 -1.53843 0
M  V30 268 C 26.2037 0.683578 -3.50802 0
M  V30 269 S 27.7627 1.28185 -4.19659 0
M  V30 270 H 24.5807 0.100236 -0.703899 0
M  V30 271 H 27.1827 -0.414325 -1.91059 0
M  V30 272 H 25.8867 -0.195073 -4.09936 0
M  V30 273 H 25.4177 1.45354 -3.65562 0
M  V30 274 H 27.4327 2.57006 -4.24456 0
M  V30 275 N 26.6058 1.57591 -0.0167156 0
M  V30 276 C 27.5378 2.06343 0.997753 0
M  V30 277 C 28.5508 0.984469 1.29661 0
M  V30 278 O 29.7398 1.26093 1.26344 0
M  V30 279 C 26.8398 2.46255 2.32834 0
M  V30 280 C 26.0128 3.77083 2.21646 0
M  V30 281 C 25.0718 4.0368 3.37534 0
M  V30 282 O 24.0978 4.7411 3.14973 0
M  V30 283 N 25.2998 3.52881 4.60929 0
M  V30 284 H 28.0648 2.93997 0.581875 0
M  V30 285 H 25.6258 1.61002 0.170316 0
M  V30 286 H 27.6178 2.61149 3.09166 0
M  V30 287 H 26.1878 1.64032 2.66106 0
M  V30 288 H 25.4078 3.72106 1.30119 0
M  V30 289 H 26.6958 4.62822 2.11361 0
M  V30 290 H 26.0938 2.95878 4.82154 0
M  V30 291 H 24.6508 3.73076 5.34469 0
M  V30 292 N 28.0839 -0.256276 1.55502 0
M  V30 293 C 29.3299 -0.987079 1.77157 0
M  V30 294 C 29.6629 -1.85327 0.580315 0
M  V30 295 O 28.9379 -1.89874 -0.421686 0
M  V30 296 C 29.2209 -1.85553 3.08613 0
M  V30 297 C 29.0739 -1.01816 4.38125 0
M  V30 298 C 30.3929 -2.8397 3.36228 0
M  V30 299 H 27.5119 -0.357428 0.644526 0
M  V30 300 H 30.1539 -0.258239 1.88237 0
M  V30 301 H 28.3039 -2.47695 2.99298 0
M  V30 302 H 29.9759 -0.416159 4.59419 0
M  V30 303 H 28.2189 -0.322178 4.32602 0
M  V30 304 H 28.8899 -1.65939 5.26468 0
M  V30 305 H 31.3659 -2.31964 3.45445 0
M  V30 306 H 30.2419 -3.41864 4.29442 0
M  V30 307 H 30.5029 -3.59955 2.56681 0
M  V30 308 N 29.562 -1.4872 -0.521534 0
M  V30 309 C 30.492 -1.66771 -1.63431 0
M  V30 310 C 31.473 -0.516499 -1.62069 0
M  V30 311 O 32.658 -0.750013 -1.79132 0
M  V30 312 C 29.788 -1.71515 -3.01993 0
M  V30 313 C 28.742 -2.86222 -3.18216 0
M  V30 314 C 28.068 -2.76061 -4.57924 0
M  V30 315 C 29.368 -4.27419 -3.00184 0
M  V30 316 H 31.062 -2.59932 -1.48579 0
M  V30 317 H 28.608 -1.25089 -0.713358 0
M  V30 318 H 30.561 -1.82731 -3.7972 0
M  V30 319 H 29.285 -0.749393 -3.17886 0
M  V30 320 H 27.944 -2.74575 -2.42908 0
M  V30 321 H 27.592 -1.77437 -4.70665 0
M  V30 322 H 27.292 -3.53037 -4.69722 0
M  V30 323 H 28.816 -2.89256 -5.37739 0
M  V30 324 H 30.23 -4.39855 -3.67697 0
M  V30 325 H 28.627 -5.05458 -3.2347 0
M  V30 326 H 29.697 -4.43293 -1.96518 0
M  V30 327 N 31.0401 0.771051 -1.3745 0
M  V30 328 C 32.2651 1.56529 -1.36065 0
M  V30 329 C 32.6901 1.88029 0.0515859 0
M  V30 330 O 32.0481 1.49282 1.02882 0
M  V30 331 C 32.0961 2.85187 -2.20683 0
M  V30 332 O 31.2001 3.79593 -1.61193 0
M  V30 333 H 30.5411 0.47411 -0.464883 0
M  V30 334 H 33.0711 0.954269 -1.80983 0
M  V30 335 H 33.0811 3.34283 -2.33921 0
M  V30 336 H 31.7561 2.61588 -3.23334 0
M  V30 337 H 30.3331 3.38239 -1.56999 0
M  V30 338 N 32.5182 1.22032 0.997298 0
M  V30 339 C 33.7432 1.06921 1.77715 0
M  V30 340 C 34.1682 -0.376226 1.84299 0
M  V30 341 O 33.5262 -1.27165 1.29223 0
M  V30 342 C 33.5742 1.67996 3.19076 0
M  V30 343 O 32.6782 0.930653 4.01762 0
M  V30 344 H 32.0192 0.375814 0.547412 0
M  V30 345 H 34.5492 1.61737 1.25309 0
M  V30 346 H 34.5592 1.72538 3.69723 0
M  V30 347 H 33.2342 2.73182 3.13599 0
M  V30 348 H 31.8112 0.960917 3.60307 0
M  V30 349 N 33.9963 -1.19345 1.0293 0
M  V30 350 C 34.9263 -2.2481 0.631105 0
M  V30 351 C 35.9073 -1.66245 -0.360104 0
M  V30 352 O 37.0923 -1.92677 -0.242726 0
M  V30 353 C 34.2223 -3.47295 -0.0184607 0
M  V30 354 C 33.1763 -4.18536 0.895073 0
M  V30 355 C 32.5023 -5.34586 0.110592 0
M  V30 356 C 33.8023 -4.73287 2.209 0
M  V30 357 H 35.4963 -2.58372 1.51275 0
M  V30 358 H 33.0423 -1.24194 0.728818 0
M  V30 359 H 34.9953 -4.20268 -0.308675 0
M  V30 360 H 33.7193 -3.12933 -0.934907 0
M  V30 361 H 32.3783 -3.47446 1.16949 0
M  V30 362 H 32.0263 -4.96469 -0.807902 0
M  V30 363 H 31.7263 -5.83183 0.719087 0
M  V30 364 H 33.2503 -6.10355 -0.172871 0
M  V30 365 H 34.6643 -5.38013 1.98028 0
M  V30 366 H 33.0613 -5.32373 2.76946 0
M  V30 367 H 34.1313 -3.91331 2.86336 0
M  V30 368 N 35.4744 -0.807222 -1.35358 0
M  V30 369 C 36.8904 -0.491038 -1.51858 0
M  V30 370 C 37.0904 0.987648 -1.75635 0
M  V30 371 O 36.1464 1.77265 -1.79815 0
M  V30 372 C 37.4594 -1.33695 -2.69344 0
M  V30 373 C 39.0074 -1.33246 -2.83222 0
M  V30 374 C 39.4824 -2.1625 -4.03733 0
M  V30 375 N 40.9734 -2.1379 -4.10911 0
M  V30 376 C 41.7084 -2.74772 -5.03277 0
M  V30 377 N 41.2044 -3.44684 -6.0097 0
M  V30 378 N 42.9974 -2.6441 -4.96028 0
M  V30 379 H 35.1484 -1.76485 -1.18181 0
M  V30 380 H 37.4114 -0.751199 -0.578276 0
M  V30 381 H 37.1174 -2.38634 -2.58354 0
M  V30 382 H 36.9914 -0.990618 -3.6396 0
M  V30 383 H 39.3784 -0.290911 -2.93663 0
M  V30 384 H 39.4594 -1.71866 -1.89461 0
M  V30 385 H 39.1034 -3.20445 -3.94052 0
M  V30 386 H 39.0334 -1.74989 -4.96675 0
M  V30 387 H 41.5244 -1.62923 -3.40976 0
M  V30 388 H 41.8374 -3.88501 -6.68047 0
M  V30 389 H 40.1824 -3.48788 -6.01142 0
M  V30 390 H 43.3734 -2.0938 -4.18662 0
M  V30 391 H 43.5464 -3.12225 -5.6782 0
M  V30 392 N 36.9525 1.47285 -0.560781 0
M  V30 393 C 37.8855 2.27009 0.232821 0
M  V30 394 C 38.8635 1.34273 0.917039 0
M  V30 395 O 40.0475 1.63659 0.935315 0
M  V30 396 C 37.1745 3.11406 1.33206 0
M  V30 397 C 36.2205 4.19746 0.756019 0
M  V30 398 S 37.0535 5.34003 -0.400165 0
M  V30 399 C 38.2095 6.21964 0.700805 0
M  V30 400 H 38.4425 2.93971 -0.443683 0
M  V30 401 H 35.9755 1.50446 -0.347181 0
M  V30 402 H 37.9335 3.60601 1.96156 0
M  V30 403 H 36.5945 2.438 1.98041 0
M  V30 404 H 35.7875 4.78541 1.5816 0
M  V30 405 H 35.3895 3.73451 0.202619 0
M  V30 406 H 37.6815 6.58529 1.59202 0
M  V30 407 H 38.6245 7.07941 0.150126 0
M  V30 408 H 39.0325 5.5566 0.995083 0
M  V30 409 N 38.4306 0.297415 1.54768 0
M  V30 410 C 39.3936 -0.567375 2.22066 0
M  V30 411 C 40.3936 -1.06409 1.20556 0
M  V30 412 O 41.5836 -0.960691 1.45315 0
M  V30 413 C 38.7156 -1.78517 2.90421 0
M  V30 414 H 39.9086 0.0205534 2.99893 0
M  V30 415 H 37.4616 0.0482163 1.56226 0
M  V30 416 H 38.1966 -2.41303 2.16664 0
M  V30 417 H 37.9816 -1.43669 3.64831 0
M  V30 418 H 39.4716 -2.39964 3.41771 0
M  V30 419 N 39.9087 -1.5758 0.0250728 0
M  V30 420 C 40.8717 -2.08896 -0.943139 0
M  V30 421 C 41.8717 -1.00321 -1.25668 0
M  V30 422 O 43.0617 -1.26495 -1.19769 0
M  V30 423 C 40.1937 -2.55143 -2.26086 0
M  V30 424 H 41.3867 -2.95723 -0.498775 0
M  V30 425 H 38.9397 -1.54703 -0.222888 0
M  V30 426 H 39.6747 -1.71633 -2.75159 0
M  V30 427 H 39.4597 -3.34461 -2.04641 0
M  V30 428 H 40.9497 -2.95083 -2.95492 0
M  V30 429 N 41.3868 0.248026 -1.55636 0
M  V30 430 C 42.6358 0.974134 -1.76617 0
M  V30 431 C 42.9488 1.86528 -0.588796 0
M  V30 432 O 44.1548 2.62805 -0.681594 0
M  V30 433 C 42.6108 1.78213 -3.12679 0
M  V30 434 C 42.2188 0.93843 -4.38061 0
M  V30 435 C 43.9628 2.50104 -3.42999 0
M  V30 436 C 41.8698 1.74225 -5.65155 0
M  V30 437 H 40.7998 0.36745 -0.658405 0
M  V30 438 H 43.4508 0.22884 -1.82067 0
M  V30 439 H 41.8328 2.56933 -3.01333 0
M  V30 440 H 43.0068 0.193635 -4.60393 0
M  V30 441 H 41.3218 0.332905 -4.15067 0
M  V30 442 H 43.9188 3.10694 -4.3517 0
M  V30 443 H 44.2618 3.21662 -2.64271 0
M  V30 444 H 44.7948 1.78395 -3.55556 0
M  V30 445 H 41.5338 1.07043 -6.46701 0
M  V30 446 H 41.0538 2.46235 -5.46926 0
M  V30 447 H 42.7328 2.30967 -6.0437 0
M  V30 448 N 42.8649 1.48995 0.513639 0
M  V30 449 C 43.7949 1.67636 1.62544 0
M  V30 450 C 44.7759 0.525087 1.61793 0
M  V30 451 O 45.9609 0.759502 1.78732 0
M  V30 452 C 43.0909 1.73114 3.01079 0
M  V30 453 C 42.0449 2.87905 3.16693 0
M  V30 454 C 41.3709 2.78486 4.56453 0
M  V30 455 C 42.6709 4.29005 2.97913 0
M  V30 456 H 44.3649 2.60716 1.47198 0
M  V30 457 H 41.9109 1.25465 0.706714 0
M  V30 458 H 43.8639 1.84742 3.78746 0
M  V30 459 H 42.5879 0.766241 3.17484 0
M  V30 460 H 41.2469 2.75859 2.41448 0
M  V30 461 H 40.8949 1.7993 4.69717 0
M  V30 462 H 40.5949 3.55523 4.67843 0
M  V30 463 H 42.1189 2.92104 5.36197 0
M  V30 464 H 43.5329 4.41798 3.65359 0
M  V30 465 H 41.9299 5.07166 3.20785 0
M  V30 466 H 42.9999 4.44329 1.94165 0
M  V30 467 N 44.343 -0.763751 1.37857 0
M  V30 468 C 45.62 -1.51244 1.24035 0
M  V30 469 C 46 -2.10472 -0.162649 0
M  V30 470 O 45.348 -1.96206 -1.17112 0
M  V30 471 C 45.558 -2.58694 2.34261 0
M  V30 472 C 46.906 -3.25878 2.72193 0
M  V30 473 O 47.93 -2.68993 2.33497 0
M  V30 474 O 46.789 -4.2874 3.38887 0
M  V30 475 H 43.883 -0.670243 0.484462 0
M  V30 476 H 46.429 -0.800031 1.49658 0
M  V30 477 H 45.201 -2.13105 3.2818 0
M  V30 478 H 44.824 -3.37527 2.10146 0
M  V30 479 N 45.8211 -1.22559 -0.990812 0
M  V30 480 C 47.0981 -0.959875 -1.70428 0
M  V30 481 C 47.4781 0.524455 -2.04481 0
M  V30 482 O 46.8261 1.49302 -1.72977 0
M  V30 483 C 47.0361 -1.85955 -2.95333 0
M  V30 484 C 48.3841 -2.11687 -3.68068 0
M  V30 485 O 49.4081 -1.8342 -3.05345 0
M  V30 486 O 48.2671 -2.59572 -4.80921 0
M  V30 487 H 45.3611 -0.361154 -0.743974 0
M  V30 488 H 47.9071 -1.33554 -1.04697 0
M  V30 489 H 46.6791 -2.86346 -2.66687 0
M  V30 490 H 46.3021 -1.4856 -3.68803 0
M  V30 491 N 47.2992 1.18797 -1.03562 0
M  V30 492 C 48.2312 2.21731 -0.580337 0
M  V30 493 C 49.2442 1.59051 0.347349 0
M  V30 494 O 50.4332 1.77929 0.142669 0
M  V30 495 C 47.5332 3.38459 0.172805 0
M  V30 496 C 46.7062 4.3072 -0.761496 0
M  V30 497 C 45.7652 5.26174 -0.0525547 0
M  V30 498 O 44.7912 5.65108 -0.681333 0
M  V30 499 N 45.9932 5.67624 1.21586 0
M  V30 500 H 48.7582 2.61417 -1.46565 0
M  V30 501 H 46.3192 1.33531 -0.915476 0
M  V30 502 H 48.3112 3.99335 0.656793 0
M  V30 503 H 46.8812 2.97507 0.959602 0
M  V30 504 H 46.1012 3.67525 -1.42544 0
M  V30 505 H 47.3892 4.89267 -1.39626 0
M  V30 506 H 46.7872 5.38038 1.74732 0
M  V30 507 H 45.3442 6.30721 1.64421 0
M  V30 508 N 48.7773 0.814389 1.34928 0
M  V30 509 C 50.0053 0.411136 2.02774 0
M  V30 510 C 50.4203 -0.980316 1.61354 0
M  V30 511 O 49.7773 -1.63299 0.814847 0
M  V30 512 C 49.8283 0.493865 3.58111 0
M  V30 513 O 49.5493 1.83047 3.98027 0
M  V30 514 C 51.0503 0.0844174 4.4322 0
M  V30 515 H 48.2703 0.166037 0.650133 0
M  V30 516 H 50.8143 1.10018 1.72384 0
M  V30 517 H 48.9693 -0.147006 3.87121 0
M  V30 518 H 49.3833 1.79872 4.92693 0
M  V30 519 H 50.8573 0.193404 5.51661 0
M  V30 520 H 51.3343 -0.97113 4.28329 0
M  V30 521 H 51.9403 0.69875 4.19521 0
M  V30 522 N 50.2554 -1.46986 0.568584 0
M  V30 523 C 51.5014 -2.02741 0.0488709 0
M  V30 524 C 51.8344 -1.44077 -1.30214 0
M  V30 525 O 51.1094 -0.600552 -1.84996 0
M  V30 526 C 51.3924 -3.60086 -0.032047 0
M  V30 527 C 51.2454 -4.29162 1.34686 0
M  V30 528 C 52.5644 -4.33838 -0.739798 0
M  V30 529 H 49.6834 -0.736749 0.0192338 0
M  V30 530 H 52.3254 -1.75289 0.733065 0
M  V30 531 H 50.4754 -3.83606 -0.61473 0
M  V30 532 H 52.1474 -4.16948 1.97362 0
M  V30 533 H 50.3904 -3.89073 1.91846 0
M  V30 534 H 51.0614 -5.37826 1.24285 0
M  V30 535 H 53.5374 -4.15378 -0.244939 0
M  V30 536 H 52.4134 -5.43537 -0.765406 0
M  V30 537 H 52.6744 -4.03875 -1.79827 0
M  V30 538 N 51.7335 -0.305618 -1.54608 0
M  V30 539 C 52.9735 0.303114 -2.0214 0
M  V30 540 C 53.3375 1.50737 -1.18921 0
M  V30 541 O 54.5385 2.18778 -1.56172 0
M  V30 542 C 52.8095 0.646332 -3.51507 0
M  V30 543 S 54.3685 1.23727 -4.20995 0
M  V30 544 H 51.1865 0.0927643 -0.704923 0
M  V30 545 H 53.7885 -0.434566 -1.90609 0
M  V30 546 H 52.4925 -0.238541 -4.09706 0
M  V30 547 H 52.0235 1.41468 -3.67084 0
M  V30 548 H 54.0385 2.52489 -4.27158 0
M  V30 549 N 53.2116 1.57565 -0.0334293 0
M  V30 550 C 54.4596 1.91598 0.642999 0
M  V30 551 C 54.7806 0.910847 1.7242 0
M  V30 552 O 54.0506 -0.0469931 1.95844 0
M  V30 553 H 52.6306 0.707228 0.240496 0
M  V30 554 H 55.2926 1.94726 -0.0822488 0
M  V30 555 H 54.3886 2.92336 1.09298 0
M  V30 556 N 54.6897 -0.239769 1.55765 0
M  V30 557 C 56.1057 -0.588624 1.48349 0
M  V30 558 C 56.3057 -1.88005 0.72502 0
M  V30 559 O 55.3617 -2.51186 0.257269 0
M  V30 560 C 56.6747 -0.68474 2.928 0
M  V30 561 C 58.2227 -0.77659 3.03213 0
M  V30 562 C 58.6977 -0.904207 4.48986 0
M  V30 563 N 60.1887 -0.968896 4.52953 0
M  V30 564 C 60.9237 -1.08703 5.63002 0
M  V30 565 N 60.4197 -1.17026 6.82845 0
M  V30 566 N 62.2127 -1.12074 5.50814 0
M  V30 567 H 54.3637 0.607911 2.03515 0
M  V30 568 H 56.6267 0.21083 0.924259 0
M  V30 569 H 56.3327 0.194284 3.51163 0
M  V30 570 H 56.2067 -1.55435 3.43686 0
M  V30 571 H 58.5937 -1.64606 2.44926 0
M  V30 572 H 58.6747 0.118315 2.55526 0
M  V30 573 H 58.3187 -0.0392633 5.07885 0
M  V30 574 H 58.2487 -1.81426 4.9436 0
M  V30 575 H 60.7397 -0.915633 3.6664 0
M  V30 576 H 61.0527 -1.25966 7.62465 0
M  V30 577 H 59.3977 -1.13971 6.85591 0
M  V30 578 H 62.5887 -1.05226 4.5612 0
M  V30 579 H 62.7617 -1.20936 6.36615 0
M  V30 580 N 56.1678 -1.49265 -0.50573 0
M  V30 581 C 57.4158 -1.582 -1.25766 0
M  V30 582 C 57.7368 -0.268482 -1.93143 0
M  V30 583 O 57.0068 0.711833 -1.8251 0
M  V30 584 H 55.5868 -0.582873 -0.467191 0
M  V30 585 H 58.2488 -1.85865 -0.586525 0
M  V30 586 H 57.3448 -2.37563 -2.02412 0
M  V30 587 N 57.6459 0.756429 -1.3826 0
M  V30 588 C 58.5559 1.9009 -1.37488 0
M  V30 589 C 59.5719 1.71855 -0.272366 0
M  V30 590 O 60.7479 1.94827 -0.510318 0
M  V30 591 C 57.8129 3.25421 -1.19592 0
M  V30 592 C 56.8739 3.56202 -2.39622 0
M  V30 593 C 56.1069 4.85075 -2.2257 0
M  V30 594 O 56.3299 5.57246 -1.21793 0
M  V30 595 O 55.2639 5.15269 -3.11098 0
M  V30 596 H 59.0899 1.93695 -2.33914 0
M  V30 597 H 56.6749 0.901313 -1.1915 0
M  V30 598 H 58.5569 4.06337 -1.11661 0
M  V30 599 H 57.2319 3.22634 -0.262486 0
M  V30 600 H 56.1389 2.75458 -2.53128 0
M  V30 601 H 57.4719 3.63747 -3.31586 0
M  V30 602 N 59.124 1.23083 0.984299 0
M  V30 603 C 60.54 0.992637 1.24975 0
M  V30 604 C 60.74 -0.308618 1.99123 0
M  V30 605 O 59.796 -1.02905 2.30579 0
M  V30 606 C 61.109 2.19698 2.05312 0
M  V30 607 C 62.657 2.24147 2.18465 0
M  V30 608 C 63.132 3.44157 3.02192 0
M  V30 609 N 64.623 3.44372 3.09777 0
M  V30 610 C 65.358 4.33886 3.74874 0
M  V30 611 N 64.854 5.3363 4.41827 0
M  V30 612 N 66.647 4.21639 3.71721 0
M  V30 613 H 58.798 2.06731 0.487453 0
M  V30 614 H 61.061 0.906339 0.277944 0
M  V30 615 H 60.767 3.1411 1.58201 0
M  V30 616 H 60.641 2.20465 3.06064 0
M  V30 617 H 63.028 1.30277 2.64786 0
M  V30 618 H 63.109 2.27415 1.17115 0
M  V30 619 H 62.753 4.38332 2.56568 0
M  V30 620 H 62.683 3.3813 4.03702 0
M  V30 621 H 65.174 2.72201 2.62135 0
M  V30 622 H 65.487 5.98196 4.89266 0
M  V30 623 H 63.832 5.37534 4.40548 0
M  V30 624 H 67.023 3.42962 3.18582 0
M  V30 625 H 67.196 4.91604 4.22173 0
M  V30 626 N 60.6021 -1.18246 1.0419 0
M  V30 627 C 61.5321 -2.24127 0.654914 0
M  V30 628 C 62.5131 -1.66617 -0.342451 0
M  V30 629 O 63.6981 -1.92924 -0.222277 0
M  V30 630 C 60.8281 -3.47295 0.0183757 0
M  V30 631 C 59.7821 -4.17563 0.939414 0
M  V30 632 C 59.1081 -5.34438 0.167286 0
M  V30 633 C 60.4081 -4.70917 2.25908 0
M  V30 634 H 62.1021 -2.56753 1.54007 0
M  V30 635 H 59.6481 -1.23414 0.74195 0
M  V30 636 H 61.6011 -4.20572 -0.264082 0
M  V30 637 H 60.3251 -3.13907 -0.901664 0
M  V30 638 H 58.9841 -3.46186 1.20628 0
M  V30 639 H 58.6321 -4.97298 -0.7552 0
M  V30 640 H 58.3321 -5.82388 0.780901 0
M  V30 641 H 59.8561 -6.10504 -0.108125 0
M  V30 642 H 61.2701 -5.35882 2.03724 0
M  V30 643 H 59.6671 -5.29406 2.82577 0
M  V30 644 H 60.7371 -3.88272 2.9047 0
M  V30 645 N 62.0802 -0.821533 -1.34494 0
M  V30 646 C 63.0432 -0.247847 -2.27856 0
M  V30 647 C 64.0432 0.573453 -1.50227 0
M  V30 648 O 65.2332 0.389759 -1.69784 0
M  V30 649 C 62.3652 0.652698 -3.34593 0
M  V30 650 H 63.5582 -1.07146 -2.80107 0
M  V30 651 H 61.1112 -0.593291 -1.44602 0
M  V30 652 H 61.8462 1.49943 -2.87555 0
M  V30 653 H 61.6312 0.065292 -3.92046 0
M  V30 654 H 63.1212 1.04793 -4.04238 0
M  V30 655 N 63.5583 1.46682 -0.576371 0
M  V30 656 C 64.4883 2.33028 0.148397 0
M  V30 657 C 65.4693 1.44961 0.889956 0
M  V30 658 O 66.6543 1.73789 0.866662 0
M  V30 659 C 63.7843 3.27117 1.1667 0
M  V30 660 C 62.7383 4.24575 0.540386 0
M  V30 661 C 62.0643 5.08126 1.6647 0
M  V30 662 C 63.3643 5.19722 -0.518331 0
M  V30 663 H 65.0583 2.93875 -0.572509 0
M  V30 664 H 62.6043 1.41315 -0.276768 0
M  V30 665 H 64.5573 3.86374 1.68204 0
M  V30 666 H 63.2813 2.64364 1.9178 0
M  V30 667 H 61.9403 3.66571 0.0461769 0
M  V30 668 H 61.5883 4.41762 2.40531 0
M  V30 669 H 61.2883 5.74122 1.25131 0
M  V30 670 H 62.8123 5.70246 2.18293 0
M  V30 671 H 64.2263 5.73232 -0.0883058 0
M  V30 672 H 62.6233 5.94026 -0.851679 0
M  V30 673 H 63.6933 4.64037 -1.40703 0
M  V30 674 N 65.0364 0.313813 1.54444 0
M  V30 675 C 65.9994 -0.54379 2.22656 0
M  V30 676 C 66.9994 -1.05124 1.21678 0
M  V30 677 O 68.1894 -0.945225 1.46325 0
M  V30 678 C 65.3214 -1.75427 2.92298 0
M  V30 679 H 66.5144 0.0523599 2.99854 0
M  V30 680 H 64.0674 0.0647834 1.56166 0
M  V30 681 H 64.8024 -2.38991 2.19211 0
M  V30 682 H 64.5874 -1.39791 3.66334 0
M  V30 683 H 66.0774 -2.36325 3.44297 0
M  V30 684 N 66.5145 -1.57545 0.0417849 0
M  V30 685 C 67.4445 -2.14009 -0.933929 0
M  V30 686 C 68.4255 -1.05938 -1.33083 0
M  V30 687 O 69.6105 -1.33833 -1.40721 0
M  V30 688 C 66.7405 -2.67747 -2.21199 0
M  V30 689 C 65.6945 -3.80718 -1.95544 0
M  V30 690 C 65.0205 -4.20935 -3.29724 0
M  V30 691 C 66.3205 -5.06258 -1.28452 0
M  V30 692 H 68.0145 -2.95788 -0.463645 0
M  V30 693 H 65.5605 -1.42285 -0.221573 0
M  V30 694 H 67.5135 -3.05886 -2.89848 0
M  V30 695 H 66.2375 -1.83147 -2.70416 0
M  V30 696 H 64.8965 -3.43037 -1.2931 0
M  V30 697 H 64.5445 -3.33298 -3.76724 0
M  V30 698 H 64.2445 -4.9707 -3.13361 0
M  V30 699 H 65.7685 -4.61666 -3.9962 0
M  V30 700 H 67.1825 -5.41903 -1.8712 0
M  V30 701 H 65.5795 -5.87475 -1.22445 0
M  V30 702 H 66.6495 -4.84207 -0.259219 0
M  V30 703 N 67.9926 0.231505 -1.5589 0
M  V30 704 C 68.9556 1.27028 -1.90779 0
M  V30 705 C 69.9556 1.40308 -0.785507 0
M  V30 706 O 71.1456 1.38744 -1.05336 0
M  V30 707 C 68.2776 2.64566 -2.14983 0
M  V30 708 H 69.4706 0.973017 -2.83677 0
M  V30 709 H 67.0236 0.471486 -1.49019 0
M  V30 710 H 67.7586 2.99406 -1.24604 0
M  V30 711 H 67.5436 2.56305 -2.96732 0
M  V30 712 H 69.0336 3.39543 -2.43105 0
M  V30 713 N 69.4707 1.49531 0.497807 0
M  V30 714 C 70.8867 1.36365 0.829266 0
M  V30 715 C 71.0867 0.399184 1.97506 0
M  V30 716 O 70.1427 -0.167977 2.51941 0
M  V30 717 C 71.4557 2.77153 1.16647 0
M  V30 718 C 73.0037 2.85877 1.27449 0
M  V30 719 C 73.4787 4.2744 1.64497 0
M  V30 720 N 74.9697 4.30265 1.7154 0
M  V30 721 C 75.7047 5.3677 2.01656 0
M  V30 722 N 75.2007 6.53516 2.29976 0
M  V30 723 N 76.9937 5.24189 2.02934 0
M  V30 724 H 69.1447 2.10831 -0.257703 0
M  V30 725 H 71.4077 0.946534 -0.0527091 0
M  V30 726 H 71.1137 3.49442 0.397872 0
M  V30 727 H 70.9877 3.12722 2.10915 0
M  V30 728 H 73.3747 2.13824 2.0338 0
M  V30 729 H 73.4557 2.53887 0.312244 0
M  V30 730 H 73.0997 5.00021 0.891151 0
M  V30 731 H 73.0297 4.56896 2.61827 0
M  V30 732 H 75.5207 3.4607 1.51802 0
M  V30 733 H 75.8337 7.30506 2.52153 0
M  V30 734 H 74.1787 6.56737 2.27425 0
M  V30 735 H 77.3697 4.31988 1.80289 0
M  V30 736 H 77.5427 6.07286 2.26071 0
M  V30 737 N 70.9488 -0.749086 1.3866 0
M  V30 738 C 71.8588 -1.89358 1.38494 0
M  V30 739 C 72.8748 -1.71708 0.281476 0
M  V30 740 O 74.0508 -1.94554 0.520643 0
M  V30 741 C 71.1158 -3.24782 1.21316 0
M  V30 742 C 70.1768 -3.54926 2.41508 0
M  V30 743 C 69.4098 -4.83888 2.2514 0
M  V30 744 O 69.6328 -5.56592 1.24746 0
M  V30 745 O 68.5668 -5.13612 3.13826 0
M  V30 746 H 72.3928 -1.92452 2.34938 0
M  V30 747 H 69.9778 -0.894981 1.19626 0
M  V30 748 H 71.8598 -4.05739 1.13814 0
M  V30 749 H 70.5348 -3.2249 0.279592 0
M  V30 750 H 69.4418 -2.74112 2.54585 0
M  V30 751 H 70.7748 -3.61983 3.3351 0
M  V30 752 N 72.4269 -1.23603 -0.977757 0
M  V30 753 C 73.3589 -0.977369 -2.07317 0
M  V30 754 C 74.3719 0.0495845 -1.62724 0
M  V30 755 O 75.5609 -0.186261 -1.77526 0
M  V30 756 C 72.6609 -0.451216 -3.35883 0
M  V30 757 C 71.8339 -1.53896 -4.09432 0
M  V30 758 C 70.8929 -1.01721 -5.16274 0
M  V30 759 O 69.9189 -1.70676 -5.43009 0
M  V30 760 N 71.1209 0.153594 -5.80297 0
M  V30 761 H 73.8859 -1.92047 -2.30082 0
M  V30 762 H 71.4469 -1.14497 -1.14465 0
M  V30 763 H 73.4389 -0.0871574 -4.04606 0
M  V30 764 H 72.0089 0.397368 -3.10064 0
M  V30 765 H 71.2289 -2.07566 -3.35127 0
M  V30 766 H 72.5169 -2.27037 -4.55337 0
M  V30 767 H 71.9149 0.730323 -5.60966 0
M  V30 768 H 70.4719 0.458892 -6.50183 0
M  V30 769 N 73.905 1.17692 -1.04816 0
M  V30 770 C 75.154 1.87192 -0.751132 0
M  V30 771 C 75.467 1.8169 0.724441 0
M  V30 772 O 76.673 2.46625 1.13527 0
M  V30 773 C 75.129 3.35857 -1.29338 0
M  V30 774 C 74.737 3.4987 -2.79812 0
M  V30 775 C 76.481 4.10709 -1.07322 0
M  V30 776 C 74.388 4.92536 -3.27356 0
M  V30 777 H 73.318 0.701162 -0.277288 0
M  V30 778 H 75.969 1.32932 -1.26496 0
M  V30 779 H 74.351 3.89631 -0.707376 0
M  V30 780 H 75.525 3.06332 -3.44235 0
M  V30 781 H 73.84 2.88433 -3.00325 0
M  V30 782 H 76.437 5.15952 -1.4035 0
M  V30 783 H 76.78 4.16299 -0.0108001 0
M  V30 784 H 77.313 3.6313 -1.62423 0
M  V30 785 H 74.052 4.92119 -4.33012 0
M  V30 786 H 73.572 5.3676 -2.67673 0
M  V30 787 H 75.251 5.61288 -3.21815 0
M  V30 788 N 75.3831 0.828654 1.34056 0
M  V30 789 C 76.3311 0.242973 2.31327 0
M  V30 790 C 77.3251 -0.61944 1.57668 0
M  V30 791 O 78.5311 -0.51014 1.7262 0
M  V30 792 H 74.9061 0.059834 0.749616 0
M  V30 793 H 76.8771 1.07809 2.78244 0
M  V30 794 C 75.6261 -0.575733 3.429 0
M  V30 795 H 74.9491 0.0785582 3.99723 0
M  V30 796 H 76.3891 -0.951547 4.13185 0
M  V30 797 C 74.8481 -1.75044 2.87856 0
M  V30 798 O 75.3781 -2.84882 2.83205 0
M  V30 799 N 73.5841 -1.56903 2.44602 0
M  V30 800 H 73.1311 -0.675547 2.48584 0
M  V30 801 H 73.0891 -2.35652 2.08124 0
M  V30 802 N 76.8612 -1.46375 0.584142 0
M  V30 803 C 78.1092 -2.01978 0.0701287 0
M  V30 804 C 78.4302 -1.4579 -1.295 0
M  V30 805 O 77.7002 -0.64314 -1.85042 0
M  V30 806 H 76.2802 -0.746648 0.0229345 0
M  V30 807 H 78.9422 -1.79461 0.760245 0
M  V30 808 H 78.0382 -3.121 0.0022064 0
M  V30 809 N 78.3393 -0.321999 -1.54275 0
M  V30 810 C 79.5883 0.281931 -1.9972 0
M  V30 811 C 79.9013 1.53369 -1.21397 0
M  V30 812 O 81.1073 2.21352 -1.57211 0
M  V30 813 C 79.5633 0.5529 -3.55628 0
M  V30 814 C 79.1713 -0.681721 -4.42783 0
M  V30 815 C 80.9153 1.11687 -4.09544 0
M  V30 816 C 78.8223 -0.382742 -5.9016 0
M  V30 817 H 77.7523 0.109124 -0.746062 0
M  V30 818 H 80.4033 -0.43398 -1.78294 0
M  V30 819 H 78.7853 1.32896 -3.73035 0
M  V30 820 H 79.9593 -1.45723 -4.37151 0
M  V30 821 H 78.2743 -1.1658 -3.99748 0
M  V30 822 H 80.8713 1.35515 -5.17242 0
M  V30 823 H 81.2143 2.06575 -3.61431 0
M  V30 824 H 81.7473 0.402032 -3.95763 0
M  V30 825 H 78.4863 -1.30076 -6.42464 0
M  V30 826 H 78.0063 0.355094 -5.98748 0
M  V30 827 H 79.6853 0.00800157 -6.47 0
M  V30 828 N 79.8174 1.5752 -0.0501392 0
M  V30 829 C 81.0664 1.91827 0.623328 0
M  V30 830 C 81.3794 0.930222 1.72065 0
M  V30 831 O 82.5854 1.1653 2.4522 0
M  V30 832 C 81.0414 3.40692 1.16003 0
M  V30 833 C 80.6494 4.479 0.0948811 0
M  V30 834 C 82.3934 3.84034 1.80881 0
M  V30 835 C 80.3004 5.87879 0.644411 0
M  V30 836 H 79.2304 0.715918 0.236596 0
M  V30 837 H 81.8814 1.83115 -0.118861 0
M  V30 838 H 80.2634 3.44405 1.9545 0
M  V30 839 H 81.4374 4.55775 -0.678675 0
M  V30 840 H 79.7524 4.13892 -0.45637 0
M  V30 841 H 82.3494 4.85984 2.22988 0
M  V30 842 H 82.6924 3.20225 2.6601 0
M  V30 843 H 83.2254 3.82833 1.0809 0
M  V30 844 H 79.9644 6.55282 -0.169229 0
M  V30 845 H 79.4844 5.83567 1.38598 0
M  V30 846 H 81.1634 6.37098 1.12763 0
M  V30 847 N 81.2955 -0.223234 1.56011 0
M  V30 848 C 82.2055 -1.29766 1.95443 0
M  V30 849 C 83.2215 -1.51373 0.858028 0
M  V30 850 O 84.3975 -1.64536 1.16146 0
M  V30 851 C 81.4625 -2.62772 2.26167 0
M  V30 852 C 80.5235 -2.49482 3.49367 0
M  V30 853 C 79.7565 -3.76145 3.78616 0
M  V30 854 O 79.9795 -4.79087 3.09568 0
M  V30 855 O 78.9135 -3.73358 4.72109 0
M  V30 856 H 82.7395 -0.99309 2.87004 0
M  V30 857 H 80.3245 -0.425958 1.43199 0
M  V30 858 H 82.2065 -3.41327 2.47131 0
M  V30 859 H 80.8815 -2.92913 1.37781 0
M  V30 860 H 79.7885 -1.69133 3.33684 0
M  V30 861 H 81.1215 -2.2428 4.38131 0
M  V30 862 N 82.7736 -1.49793 -0.48987 0
M  V30 863 C 84.0196 -1.60078 -1.24511 0
M  V30 864 C 84.3526 -0.291608 -1.91998 0
M  V30 865 O 83.6276 0.705647 -1.81248 0
M  V30 866 C 83.9106 -2.76791 -2.30345 0
M  V30 867 C 83.7636 -4.17535 -1.67286 0
M  V30 868 C 85.0826 -2.89111 -3.31817 0
M  V30 869 H 82.2016 -0.582645 -0.451324 0
M  V30 870 H 84.8436 -1.82117 -0.541612 0
M  V30 871 H 82.9936 -2.5813 -2.90346 0
M  V30 872 H 84.6656 -4.4774 -1.11026 0
M  V30 873 H 82.9086 -4.22665 -0.976577 0
M  V30 874 H 83.5796 -4.95094 -2.44103 0
M  V30 875 H 86.0556 -3.06133 -2.81819 0
M  V30 876 H 84.9316 -3.72433 -4.03219 0
M  V30 877 H 85.1926 -1.9893 -3.94815 0
M  V30 878 N 84.2517 0.741722 -1.39055 0
M  V30 879 C 85.6627 1.31966 -1.32068 0
M  V30 880 C 86.0137 1.96192 0.0180797 0
M  V30 881 O 85.1387 1.95861 0.920196 0
M  V30 882 C 85.7337 2.39954 -2.39181 0
M  V30 883 C 84.2927 2.93438 -2.35735 0
M  V30 884 C 83.4397 1.66936 -2.21422 0
M  V30 885 H 86.3907 0.539721 -1.4924 0
M  V30 886 H 86.4117 3.20182 -2.05581 0
M  V30 887 H 85.9237 1.9318 -3.36605 0
M  V30 888 H 84.0247 3.4451 -1.41929 0
M  V30 889 H 84.1377 3.4701 -3.30335 0
M  V30 890 H 82.5017 1.91016 -1.68478 0
M  V30 891 H 83.2847 1.22224 -3.20806 0
M  V30 892 N 85.7298 1.2412 0.971189 0
M  V30 893 C 86.6928 1.03156 2.04674 0
M  V30 894 C 87.6928 -0.00990322 1.60797 0
M  V30 895 O 88.8828 0.230729 1.72665 0
M  V30 896 C 86.0148 0.562765 3.36223 0
M  V30 897 H 87.2078 1.98614 2.24705 0
M  V30 898 H 84.7608 1.06293 1.14593 0
M  V30 899 H 85.4958 -0.395176 3.21883 0
M  V30 900 H 85.2808 1.31441 3.69413 0
M  V30 901 H 86.7708 0.437015 4.15307 0
M  V30 902 N 87.2079 -1.17134 1.05439 0
M  V30 903 C 88.1549 -2.21235 0.657539 0
M  V30 904 C 89.1249 -1.62551 -0.341543 0
M  V30 905 O 90.3099 -1.89379 -0.232393 0
M  V30 906 C 87.4499 -3.45076 0.0410575 0
M  V30 907 C 86.5629 -4.18042 1.08927 0
M  V30 908 C 85.6979 -5.29376 0.439848 0
M  V30 909 C 84.7369 -5.94132 1.4722 0
M  V30 910 N 83.8739 -6.96975 0.846756 0
M  V30 911 H 88.7139 -2.54534 1.54972 0
M  V30 912 H 86.2509 -1.25028 0.775006 0
M  V30 913 H 88.2089 -4.15862 -0.33383 0
M  V30 914 H 86.8389 -3.12353 -0.814568 0
M  V30 915 H 85.8909 -3.45945 1.58196 0
M  V30 916 H 87.2029 -4.62306 1.87282 0
M  V30 917 H 86.3569 -6.06699 0.0115125 0
M  V30 918 H 85.0959 -4.86251 -0.375656 0
M  V30 919 H 84.1009 -5.15538 1.91052 0
M  V30 920 H 85.3259 -6.39337 2.28965 0
M  V30 921 H 83.2719 -6.5598 0.0518075 0
M  V30 922 H 83.1889 -7.39565 1.5678 0
M  V30 923 H 84.4569 -7.78239 0.443277 0
M  V30 924 N 88.686 -0.835752 -1.33615 0
M  V30 925 C 89.649 -0.272 -2.2758 0
M  V30 926 C 90.649 0.557487 -1.50827 0
M  V30 927 O 91.839 0.37173 -1.70188 0
M  V30 928 C 88.971 0.617173 -3.35267 0
M  V30 929 H 90.164 -1.10111 -2.78954 0
M  V30 930 H 87.717 -0.608594 -1.43965 0
M  V30 931 H 88.452 1.46884 -2.89129 0
M  V30 932 H 88.237 0.0237066 -3.92093 0
M  V30 933 H 89.727 1.005 -4.05326 0
M  V30 934 N 90.1641 1.46063 -0.591896 0
M  V30 935 C 91.5801 1.57561 -0.254288 0
M  V30 936 C 91.7801 1.58565 1.24336 0
M  V30 937 O 90.8361 1.50753 2.02558 0
M  V30 938 C 92.1491 2.86549 -0.911611 0
M  V30 939 C 93.6971 3.00197 -0.886059 0
M  V30 940 C 94.1721 4.31933 -1.5231 0
M  V30 941 N 95.6631 4.38654 -1.48786 0
M  V30 942 C 96.3981 5.39222 -1.95006 0
M  V30 943 N 95.8941 6.46414 -2.49241 0
M  V30 944 N 97.6871 5.3048 -1.85868 0
M  V30 945 H 89.8381 1.43655 -1.56451 0
M  V30 946 H 92.1011 0.68583 -0.654478 0
M  V30 947 H 91.8071 2.91651 -1.96551 0
M  V30 948 H 91.6811 3.74794 -0.425368 0
M  V30 949 H 94.0681 2.9467 0.159246 0
M  V30 950 H 94.1491 2.13403 -1.41041 0
M  V30 951 H 93.7931 4.38217 -2.56765 0
M  V30 952 H 93.7231 5.17516 -0.973891 0
M  V30 953 H 96.2141 3.61793 -1.09151 0
M  V30 954 H 96.5271 7.19376 -2.82344 0
M  V30 955 H 94.8721 6.47208 -2.53272 0
M  V30 956 H 98.0631 4.45643 -1.43248 0
M  V30 957 H 98.2361 6.08711 -2.22204 0
M  V30 958 N 91.6422 0.330177 1.54103 0
M  V30 959 C 92.8882 -0.270806 2.00984 0
M  V30 960 C 93.2212 -1.51265 1.21789 0
M  V30 961 O 92.4962 -1.92142 0.301927 0
M  V30 962 C 92.7792 -0.598339 3.55094 0
M  V30 963 C 92.6322 0.654674 4.4501 0
M  V30 964 C 93.9512 -1.41334 4.16789 0
M  V30 965 H 91.0702 -0.0969531 0.730595 0
M  V30 966 H 93.7122 0.448066 1.84641 0
M  V30 967 H 91.8622 -1.21078 3.69151 0
M  V30 968 H 93.5342 1.29285 4.42813 0
M  V30 969 H 91.7772 1.28224 4.14416 0
M  V30 970 H 92.4482 0.380944 5.50684 0
M  V30 971 H 94.9242 -0.895597 4.06347 0
M  V30 972 H 93.8002 -1.61127 5.24718 0
M  V30 973 H 94.0612 -2.41146 3.70541 0
M  V30 974 N 93.1203 -1.57491 0.0584922 0
M  V30 975 C 94.0303 -2.15448 -0.928414 0
M  V30 976 C 95.0463 -1.11416 -1.3365 0
M  V30 977 O 96.2223 -1.4362 -1.41193 0
M  V30 978 C 93.2873 -2.69393 -2.18239 0
M  V30 979 C 92.3483 -3.88249 -1.83196 0
M  V30 980 C 91.5813 -4.39613 -3.02616 0
M  V30 981 O 91.8043 -3.90023 -4.16219 0
M  V30 982 O 90.7383 -5.31111 -2.83204 0
M  V30 983 H 94.5643 -3.00112 -0.465483 0
M  V30 984 H 92.1493 -1.48499 -0.163826 0
M  V30 985 H 94.0313 -3.04026 -2.91798 0
M  V30 986 H 92.7063 -1.87796 -2.63656 0
M  V30 987 H 91.6133 -3.58492 -1.06931 0
M  V30 988 H 92.9463 -4.71098 -1.42573 0
M  V30 989 N 94.5984 0.214957 -1.56127 0
M  V30 990 C 95.8444 0.939762 -1.79712 0
M  V30 991 C 96.1774 1.83723 -0.629247 0
M  V30 992 O 95.4524 1.90925 0.371197 0
M  V30 993 C 95.7354 1.77306 -3.13424 0
M  V30 994 C 95.5884 0.90164 -4.40671 0
M  V30 995 C 96.9074 2.74956 -3.43638 0
M  V30 996 H 94.0264 0.340214 -0.653776 0
M  V30 997 H 96.6684 0.20824 -1.88855 0
M  V30 998 H 94.8184 2.39673 -3.0576 0
M  V30 999 H 96.4904 0.294206 -4.60361 0
M  V30 1000 H 94.7334 0.207368 -4.33304 0
M  V30 1001 H 95.4044 1.51923 -5.30682 0
M  V30 1002 H 97.8804 2.22724 -3.51473 0
M  V30 1003 H 96.7564 3.30358 -4.38355 0
M  V30 1004 H 97.0174 3.53023 -2.66134 0
M  V30 1005 N 96.0765 1.50051 0.48192 0
M  V30 1006 C 97.3535 1.51009 1.2432 0
M  V30 1007 C 97.7335 0.248587 2.09631 0
M  V30 1008 O 97.0815 -0.768409 2.15192 0
M  V30 1009 C 97.2915 2.79981 2.08355 0
M  V30 1010 C 98.6395 3.3022 2.66908 0
M  V30 1011 O 99.6635 2.81228 2.18607 0
M  V30 1012 O 98.5225 4.15595 3.54884 0
M  V30 1013 H 95.6165 0.605239 0.563573 0
M  V30 1014 H 98.1625 1.62332 0.494627 0
M  V30 1015 H 96.9345 3.63275 1.45419 0
M  V30 1016 H 96.5575 2.7161 2.90368 0
M  V30 1017 N 97.5546 -0.734337 1.39446 0
M  V30 1018 C 98.8036 -1.48937 1.36017 0
M  V30 1019 C 99.1166 -1.95557 -0.0409005 0
M  V30 1020 O 100.323 -2.70779 -0.19778 0
M  V30 1021 C 98.7786 -2.69125 2.38955 0
M  V30 1022 C 98.3866 -2.29452 3.8478 0
M  V30 1023 C 100.131 -3.46944 2.44603 0
M  V30 1024 C 98.0376 -3.46366 4.79358 0
M  V30 1025 H 96.9676 -0.559296 0.505672 0
M  V30 1026 H 99.6186 -0.800983 1.65095 0
M  V30 1027 H 98.0006 -3.40041 2.02948 0
M  V30 1028 H 99.1746 -1.66077 4.29831 0
M  V30 1029 H 97.4896 -1.64723 3.82433 0
M  V30 1030 H 100.087 -4.33907 3.12456 0
M  V30 1031 H 100.43 -3.89454 1.47076 0
M  V30 1032 H 100.963 -2.83056 2.79507 0
M  V30 1033 H 97.7016 -3.08905 5.78151 0
M  V30 1034 H 97.2216 -4.08719 4.38986 0
M  V30 1035 H 98.9006 -4.12691 4.98292 0
M  V30 1036 N 99.0327 -1.24633 -0.964593 0
M  V30 1037 C 100.28 -1.08788 -1.70796 0
M  V30 1038 C 100.608 0.372783 -1.90894 0
M  V30 1039 O 99.8627 1.29167 -1.47018 0
M  V30 1040 C 100.162 -1.7763 -3.10133 0
M  V30 1041 C 99.8277 -3.27557 -3.09866 0
M  V30 1042 C 98.4897 -3.6846 -3.09501 0
M  V30 1043 C 100.842 -4.23389 -3.03959 0
M  V30 1044 C 98.1697 -5.03624 -3.00965 0
M  V30 1045 C 100.522 -5.58565 -2.96965 0
M  V30 1046 C 99.1857 -5.98809 -2.9493 0
M  V30 1047 H 98.4557 -0.398084 -0.624988 0
M  V30 1048 H 101.103 -1.54777 -1.12767 0
M  V30 1049 H 99.4077 -1.24044 -3.71645 0
M  V30 1050 H 101.105 -1.62832 -3.66451 0
M  V30 1051 H 97.6947 -2.95006 -3.10917 0
M  V30 1052 H 101.879 -3.92787 -3.03368 0
M  V30 1053 H 97.1347 -5.33998 -2.97752 0
M  V30 1054 H 101.309 -6.32523 -2.91354 0
M  V30 1055 H 98.9357 -7.03505 -2.88071 0
M  V30 1056 N 100.511 1.16574 -1.06058 0
M  V30 1057 C 101.421 2.2452 -0.680282 0
M  V30 1058 C 102.437 1.71348 0.302604 0
M  V30 1059 O 103.613 2.00822 0.152513 0
M  V30 1060 C 100.678 3.46629 -0.0700315 0
M  V30 1061 C 99.7388 4.14849 -1.10448 0
M  V30 1062 C 98.9718 5.31129 -0.523256 0
M  V30 1063 O 99.1948 5.66514 0.664709 0
M  V30 1064 O 98.1288 5.88526 -1.26179 0
M  V30 1065 H 101.955 2.59355 -1.58015 0
M  V30 1066 H 99.5398 1.24043 -0.832694 0
M  V30 1067 H 101.422 4.20543 0.268667 0
M  V30 1068 H 100.097 3.13573 0.803353 0
M  V30 1069 H 99.0038 3.42916 -1.49532 0
M  V30 1070 H 100.337 4.51954 -1.94931 0
M  V30 1071 N 101.989 0.842826 1.3317 0
M  V30 1072 C 102.919 0.294028 2.31641 0
M  V30 1073 C 103.9 -0.600401 1.59151 0
M  V30 1074 O 105.085 -0.523124 1.87022 0
M  V30 1075 C 102.215 -0.528416 3.43257 0
M  V30 1076 C 101.169 0.27056 4.27144 0
M  V30 1077 C 100.495 -0.675881 5.30411 0
M  V30 1078 C 101.795 1.48981 5.00602 0
M  V30 1079 H 103.489 1.11681 2.77791 0
M  V30 1080 H 101.035 0.538478 1.33553 0
M  V30 1081 H 102.988 -0.922674 4.11175 0
M  V30 1082 H 101.712 -1.38445 2.95805 0
M  V30 1083 H 100.371 0.646427 3.60856 0
M  V30 1084 H 100.019 -1.52842 4.79216 0
M  V30 1085 H 99.7189 -0.145374 5.8742 0
M  V30 1086 H 101.243 -1.06757 6.01195 0
M  V30 1087 H 102.657 1.16849 5.61266 0
M  V30 1088 H 101.054 1.95739 5.6728 0
M  V30 1089 H 102.124 2.25746 4.29147 0
M  V30 1090 N 103.467 -1.45747 0.599634 0
M  V30 1091 C 104.399 -2.28628 -0.161879 0
M  V30 1092 C 105.412 -1.39494 -0.839367 0
M  V30 1093 O 106.601 -1.63941 -0.706089 0
M  V30 1094 C 103.701 -3.15014 -1.24976 0
M  V30 1095 C 102.874 -4.32378 -0.660935 0
M  V30 1096 C 101.933 -5.00033 -1.63869 0
M  V30 1097 O 100.959 -5.57085 -1.1681 0
M  V30 1098 N 102.161 -4.98589 -2.97303 0
M  V30 1099 H 104.926 -2.94624 0.549265 0
M  V30 1100 H 102.487 -1.55847 0.438565 0
M  V30 1101 H 104.479 -3.5714 -1.9035 0
M  V30 1102 H 103.049 -2.5098 -1.86354 0
M  V30 1103 H 102.269 -3.9383 0.170688 0
M  V30 1104 H 103.557 -5.08197 -0.247619 0
M  V30 1105 H 102.955 -4.53514 -3.38145 0
M  V30 1106 H 101.512 -5.44603 -3.58121 0
M  V30 1107 N 104.945 -0.338344 -1.53925 0
M  V30 1108 C 106.361 0.0137736 -1.59594 0
M  V30 1109 C 106.561 1.49186 -1.35447 0
M  V30 1110 O 105.617 2.24987 -1.14616 0
M  V30 1111 C 106.93 -0.41773 -2.97784 0
M  V30 1112 C 108.478 -0.369633 -3.1081 0
M  V30 1113 C 108.953 -0.776524 -4.51369 0
M  V30 1114 N 110.444 -0.730506 -4.57403 0
M  V30 1115 C 111.179 -1.01736 -5.64303 0
M  V30 1116 N 110.675 -1.3721 -6.79077 0
M  V30 1117 N 112.468 -0.941942 -5.54151 0
M  V30 1118 H 104.619 -1.3012 -1.67876 0
M  V30 1119 H 106.882 -0.530082 -0.78595 0
M  V30 1120 H 106.588 -1.44811 -3.20504 0
M  V30 1121 H 106.462 0.209729 -3.76616 0
M  V30 1122 H 108.849 0.651568 -2.87817 0
M  V30 1123 H 108.93 -1.03223 -2.34049 0
M  V30 1124 H 108.574 -1.79571 -4.75096 0
M  V30 1125 H 108.504 -0.0914649 -5.26521 0
M  V30 1126 H 110.995 -0.468783 -3.74981 0
M  V30 1127 H 111.308 -1.57597 -7.5656 0
M  V30 1128 H 109.653 -1.4105 -6.80536 0
M  V30 1129 H 112.844 -0.664184 -4.63364 0
M  V30 1130 H 113.017 -1.16884 -6.37371 0
M  V30 1131 N 106.423 1.57458 -0.0668435 0
M  V30 1132 C 107.7 1.8469 0.644132 0
M  V30 1133 C 108.08 0.958343 1.88093 0
M  V30 1134 O 107.428 0.0233579 2.28488 0
M  V30 1135 C 107.638 3.34767 0.986509 0
M  V30 1136 C 108.986 4.02159 1.36212 0
M  V30 1137 O 110.01 3.39484 1.07839 0
M  V30 1138 O 108.869 5.12694 1.89227 0
M  V30 1139 H 105.963 0.762816 0.319437 0
M  V30 1140 H 108.509 1.6942 -0.0973986 0
M  V30 1141 H 107.281 3.91151 0.107883 0
M  V30 1142 H 106.904 3.55281 1.78497 0
M  V30 1143 N 107.901 -0.206675 1.56239 0
M  V30 1144 C 109.126 -0.949474 1.8439 0
M  V30 1145 C 109.551 -1.76549 0.649016 0
M  V30 1146 O 108.909 -1.76782 -0.402231 0
M  V30 1147 C 108.957 -1.83078 3.10668 0
M  V30 1148 O 108.061 -2.9281 2.90407 0
M  V30 1149 H 107.402 -0.268033 0.607499 0
M  V30 1150 H 109.932 -0.215488 2.03462 0
M  V30 1151 H 109.942 -2.2377 3.41161 0
M  V30 1152 H 108.617 -1.23112 3.97261 0
M  V30 1153 H 107.194 -2.55956 2.71184 0
M  V30 1154 N 109.379 -1.50304 -0.473955 0
M  V30 1155 C 110.311 -1.65109 -1.58971 0
M  V30 1156 C 111.324 -0.532676 -1.53839 0
M  V30 1157 O 112.513 -0.805751 -1.59279 0
M  V30 1158 C 109.613 -1.61684 -2.97845 0
M  V30 1159 C 108.786 -2.8951 -3.27876 0
M  V30 1160 C 107.845 -2.78768 -4.4629 0
M  V30 1161 O 106.871 -3.52722 -4.46739 0
M  V30 1162 N 108.073 -1.9213 -5.47783 0
M  V30 1163 H 110.838 -2.61347 -1.46689 0
M  V30 1164 H 108.399 -1.47732 -0.662324 0
M  V30 1165 H 110.391 -1.52114 -3.75024 0
M  V30 1166 H 108.961 -0.731925 -3.03911 0
M  V30 1167 H 108.181 -3.13228 -2.39336 0
M  V30 1168 H 109.469 -3.74199 -3.4475 0
M  V30 1169 H 108.867 -1.31353 -5.50239 0
M  V30 1170 H 107.424 -1.88466 -6.23958 0
M  V30 1171 N 110.857 0.726932 -1.39834 0
M  V30 1172 C 112.087 1.51393 -1.40583 0
M  V30 1173 C 112.495 1.892 -0.000740625 0
M  V30 1174 O 111.838 1.55189 0.982951 0
M  V30 1175 C 111.9 2.82588 -2.22226 0
M  V30 1176 C 111.564 2.67169 -3.70769 0
M  V30 1177 C 112.561 2.3518 -4.63666 0
M  V30 1178 C 110.246 2.83788 -4.14451 0
M  V30 1179 C 112.24 2.20002 -5.98229 0
M  V30 1180 C 109.927 2.68229 -5.49087 0
M  V30 1181 C 110.925 2.36382 -6.4079 0
M  V30 1182 O 110.613 2.2093 -7.72946 0
M  V30 1183 H 110.345 0.474168 -0.48181 0
M  V30 1184 H 112.899 0.905247 -1.84376 0
M  V30 1185 H 111.129 3.45746 -1.73195 0
M  V30 1186 H 112.818 3.44247 -2.15055 0
M  V30 1187 H 113.584 2.21984 -4.31217 0
M  V30 1188 H 109.463 3.07566 -3.43401 0
M  V30 1189 H 113.007 1.95067 -6.69772 0
M  V30 1190 H 108.904 2.81006 -5.81125 0
M  V30 1191 H 109.672 2.35937 -7.83757 0
M  V30 1192 N 112.336 1.25143 0.95797 0
M  V30 1193 C 113.246 1.06968 2.08794 0
M  V30 1194 C 114.262 0.00773911 1.73998 0
M  V30 1195 O 115.438 0.207972 2.00323 0
M  V30 1196 C 112.503 0.68691 3.39827 0
M  V30 1197 C 111.564 1.82641 3.88511 0
M  V30 1198 C 110.797 1.46181 5.1329 0
M  V30 1199 O 111.02 0.355971 5.69288 0
M  V30 1200 O 109.954 2.29085 5.566 0
M  V30 1201 H 113.78 2.01723 2.27027 0
M  V30 1202 H 111.365 1.04051 1.07209 0
M  V30 1203 H 113.247 0.485417 4.18595 0
M  V30 1204 H 111.922 -0.231417 3.22872 0
M  V30 1205 H 110.829 2.08274 3.10762 0
M  V30 1206 H 112.162 2.72386 4.09959 0
M  V30 1207 N 113.814 -1.1601 1.06675 0
M  V30 1208 C 115.042 -1.90527 0.806667 0
M  V30 1209 C 115.457 -1.77643 -0.639396 0
M  V30 1210 O 114.814 -1.12369 -1.43803 0
M  V30 1211 C 114.865 -3.41106 1.19705 0
M  V30 1212 O 114.586 -3.53608 2.58636 0
M  V30 1213 C 116.087 -4.32663 0.965266 0
M  V30 1214 H 113.307 -0.604053 0.292166 0
M  V30 1215 H 115.851 -1.47026 1.4214 0
M  V30 1216 H 114.006 -3.82296 0.626774 0
M  V30 1217 H 114.42 -4.47011 2.74375 0
M  V30 1218 H 115.894 -5.36763 1.288 0
M  V30 1219 H 116.371 -4.39089 -0.0987936 0
M  V30 1220 H 116.977 -3.97206 1.52011 0
M  V30 1221 N 115.292 -0.849877 -1.32721 0
M  V30 1222 C 116.52 -0.464754 -2.01613 0
M  V30 1223 C 116.935 0.937191 -1.63897 0
M  V30 1224 O 116.292 1.61081 -0.857856 0
M  V30 1225 C 116.343 -0.588638 -3.56675 0
M  V30 1226 O 116.064 -1.93535 -3.93034 0
M  V30 1227 C 117.565 -0.2019 -4.4284 0
M  V30 1228 H 114.785 -0.183215 -0.645502 0
M  V30 1229 H 117.329 -1.1455 -1.69407 0
M  V30 1230 H 115.484 0.0443159 -3.87375 0
M  V30 1231 H 115.898 -1.92871 -4.87751 0
M  V30 1232 H 117.372 -0.339599 -5.50954 0
M  V30 1233 H 117.849 0.857224 -4.30753 0
M  V30 1234 H 118.455 -0.809733 -4.17521 0
M  V30 1235 N 116.77 1.45427 -0.607355 0
M  V30 1236 C 118.047 1.9557 -0.0344566 0
M  V30 1237 C 118.427 1.54979 1.43334 0
M  V30 1238 O 117.775 0.812241 2.13576 0
M  V30 1239 C 117.985 3.48226 -0.232321 0
M  V30 1240 C 119.333 4.2445 -0.113001 0
M  V30 1241 O 120.357 3.55829 -0.162431 0
M  V30 1242 O 119.216 5.465 0.00209442 0
M  V30 1243 H 116.31 0.826222 0.0358667 0
M  V30 1244 H 118.856 1.55594 -0.6774 0
M  V30 1245 H 117.628 3.70739 -1.25174 0
M  V30 1246 H 117.251 3.95092 0.445896 0
M  V30 1247 N 118.248 0.346503 1.53744 0
M  V30 1248 C 119.476 -0.25041 2.05379 0
M  V30 1249 C 119.891 -1.43979 1.22129 0
M  V30 1250 O 119.248 -1.80677 0.257321 0
M  V30 1251 C 119.299 -0.662575 3.55376 0
M  V30 1252 O 119.02 0.479515 4.35468 0
M  V30 1253 C 120.521 -1.31989 4.23195 0
M  V30 1254 H 117.741 -0.0478198 0.669294 0
M  V30 1255 H 120.285 0.499346 1.9831 0
M  V30 1256 H 118.44 -1.36227 3.62658 0
M  V30 1257 H 118.854 0.15037 5.24284 0
M  V30 1258 H 120.328 -1.55902 5.29527 0
M  V30 1259 H 120.805 -2.27436 3.75725 0
M  V30 1260 H 121.411 -0.662154 4.20114 0
M  V30 1261 N 119.726 -1.57421 0.075193 0
M  V30 1262 C 120.659 -2.08528 -0.926904 0
M  V30 1263 C 121.637 -0.991171 -1.28898 0
M  V30 1264 O 122.821 -1.26479 -1.39769 0
M  V30 1265 C 119.948 -2.54576 -2.23402 0
M  V30 1266 C 118.994 -3.75454 -2.02327 0
M  V30 1267 S 119.827 -5.19989 -1.27951 0
M  V30 1268 C 120.983 -5.69372 -2.59935 0
M  V30 1269 H 121.216 -2.932 -0.492048 0
M  V30 1270 H 118.749 -1.53785 -0.137651 0
M  V30 1271 H 120.707 -2.81767 -2.98526 0
M  V30 1272 H 119.368 -1.70166 -2.64012 0
M  V30 1273 H 118.561 -4.05675 -2.99071 0
M  V30 1274 H 118.163 -3.48654 -1.35339 0
M  V30 1275 H 120.455 -5.76424 -3.56008 0
M  V30 1276 H 121.398 -6.68207 -2.34319 0
M  V30 1277 H 121.806 -4.97205 -2.67296 0
M  V30 1278 N 121.204 0.198386 -1.56346 0
M  V30 1279 C 122.444 0.92609 -1.82217 0
M  V30 1280 C 122.808 1.80584 -0.652195 0
M  V30 1281 O 124.009 2.56907 -0.790716 0
M  V30 1282 C 122.28 1.72354 -3.13096 0
M  V30 1283 S 123.839 2.50371 -3.6036 0
M  V30 1284 H 120.657 0.310677 -0.639532 0
M  V30 1285 H 123.259 0.189755 -1.94577 0
M  V30 1286 H 121.963 1.0678 -3.96265 0
M  V30 1287 H 121.494 2.50175 -3.03605 0
M  V30 1288 H 123.509 3.74488 -3.25535 0
M  V30 1289 N 122.682 1.50554 0.465978 0
M  V30 1290 C 123.614 1.65949 1.58093 0
M  V30 1291 C 124.627 0.540827 1.53554 0
M  V30 1292 O 125.816 0.814187 1.5885 0
M  V30 1293 C 122.916 1.63261 2.96983 0
M  V30 1294 C 122.089 2.91245 3.26336 0
M  V30 1295 C 121.148 2.8113 4.44806 0
M  V30 1296 O 120.174 3.55086 4.44862 0
M  V30 1297 N 121.376 1.95032 5.46756 0
M  V30 1298 H 124.141 2.62122 1.45301 0
M  V30 1299 H 121.702 1.48082 0.65448 0
M  V30 1300 H 123.694 1.54101 3.74212 0
M  V30 1301 H 122.264 0.748032 3.03518 0
M  V30 1302 H 121.484 3.14493 2.37672 0
M  V30 1303 H 122.772 3.76022 3.42761 0
M  V30 1304 H 122.17 1.3427 5.49534 0
M  V30 1305 H 120.727 1.91772 6.2295 0
M  V30 1306 N 124.16 -0.719506 1.40217 0
M  V30 1307 C 125.409 -1.47486 1.37589 0
M  V30 1308 C 125.722 -1.9559 -0.0201568 0
M  V30 1309 O 126.928 -2.70973 -0.169049 0
M  V30 1310 C 125.384 -2.66575 2.41796 0
M  V30 1311 C 124.992 -2.25358 3.87192 0
M  V30 1312 C 126.736 -3.4433 2.48269 0
M  V30 1313 C 124.643 -3.41262 4.83005 0
M  V30 1314 H 123.573 -0.553901 0.511576 0
M  V30 1315 H 126.224 -0.783427 1.65936 0
M  V30 1316 H 124.606 -3.3787 2.06543 0
M  V30 1317 H 125.78 -1.61509 4.31569 0
M  V30 1318 H 124.095 -1.60657 3.84159 0
M  V30 1319 H 126.692 -4.30569 3.17041 0
M  V30 1320 H 127.035 -3.87872 1.51198 0
M  V30 1321 H 127.568 -2.80076 2.82493 0
M  V30 1322 H 124.307 -3.02755 5.81394 0
M  V30 1323 H 123.827 -4.0404 4.43297 0
M  V30 1324 H 125.506 -4.07383 5.02641 0
M  V30 1325 N 125.638 -1.25649 -0.95132 0
M  V30 1326 C 126.568 -1.08808 -2.06599 0
M  V30 1327 C 127.549 0.00382547 -1.701 0
M  V30 1328 O 128.734 -0.166325 -1.93486 0
M  V30 1329 C 125.864 -0.709542 -3.39975 0
M  V30 1330 C 124.818 -1.75206 -3.90496 0
M  V30 1331 C 124.144 -1.22811 -5.20405 0
M  V30 1332 C 125.444 -3.15153 -4.16504 0
M  V30 1333 H 127.138 -2.02048 -2.20946 0
M  V30 1334 H 124.684 -0.972835 -1.06169 0
M  V30 1335 H 126.637 -0.578649 -4.17408 0
M  V30 1336 H 125.361 0.258556 -3.25575 0
M  V30 1337 H 124.02 -1.87145 -3.15234 0
M  V30 1338 H 123.668 -0.250145 -5.02378 0
M  V30 1339 H 123.368 -1.92492 -5.55176 0
M  V30 1340 H 124.892 -1.10968 -6.00432 0
M  V30 1341 H 126.306 -3.06349 -4.84586 0
M  V30 1342 H 124.703 -3.82333 -4.62538 0
M  V30 1343 H 125.773 -3.61966 -3.22658 0
M  V30 1344 N 127.117 1.15442 -1.07289 0
M  V30 1345 C 128.528 1.67803 -0.818475 0
M  V30 1346 C 128.879 1.8489 0.656507 0
M  V30 1347 O 128.004 1.55176 1.50829 0
M  V30 1348 C 128.599 3.04805 -1.47917 0
M  V30 1349 C 127.158 3.54245 -1.27229 0
M  V30 1350 C 126.305 2.29986 -1.54925 0
M  V30 1351 H 129.256 0.996646 -1.23502 0
M  V30 1352 H 129.277 3.69702 -0.90005 0
M  V30 1353 H 128.789 2.92336 -2.55267 0
M  V30 1354 H 126.89 3.71956 -0.21899 0
M  V30 1355 H 127.003 4.35723 -1.99203 0
M  V30 1356 H 125.367 2.35496 -0.970242 0
M  V30 1357 H 126.15 2.20105 -2.63455 0
M  V30 1358 N 128.595 0.856903 1.32268 0
M  V30 1359 C 129.542 0.301172 2.28827 0
M  V30 1360 C 130.512 -0.593104 1.5515 0
M  V30 1361 O 131.697 -0.527537 1.83362 0
M  V30 1362 C 128.837 -0.502523 3.41422 0
M  V30 1363 C 127.95 0.417797 4.29975 0
M  V30 1364 C 127.085 -0.398749 5.29701 0
M  V30 1365 C 126.124 0.518827 6.09897 0
M  V30 1366 N 125.261 -0.260674 7.01616 0
M  V30 1367 H 130.101 1.12983 2.75751 0
M  V30 1368 H 127.638 0.568582 1.35667 0
M  V30 1369 H 129.596 -0.984141 4.05426 0
M  V30 1370 H 128.226 -1.29599 2.95642 0
M  V30 1371 H 127.278 1.01781 3.66531 0
M  V30 1372 H 128.59 1.12191 4.86019 0
M  V30 1373 H 127.744 -0.943435 5.9932 0
M  V30 1374 H 126.483 -1.13622 4.7428 0
M  V30 1375 H 125.488 1.07538 5.39181 0
M  V30 1376 H 126.713 1.25495 6.67404 0
M  V30 1377 H 124.659 -0.981198 6.4862 0
M  V30 1378 H 124.576 0.384364 7.55022 0
M  V30 1379 H 125.844 -0.787014 7.75517 0
M  V30 1380 N 130.073 -1.45103 0.615059 0
M  V30 1381 C 131.321 -2.01784 0.112955 0
M  V30 1382 C 131.642 -1.48504 -1.26378 0
M  V30 1383 O 130.912 -0.682245 -1.83636 0
M  V30 1384 H 129.492 -0.745993 0.0387668 0
M  V30 1385 H 132.154 -1.77808 0.798141 0
M  V30 1386 H 131.25 -3.12025 0.0684069 0
M  V30 1387 N 131.551 -0.354651 -1.53558 0
M  V30 1388 C 132.797 0.238797 -2.01389 0
M  V30 1389 C 133.13 1.49309 -1.2418 0
M  V30 1390 O 132.405 1.91638 -0.332457 0
M  V30 1391 C 132.688 0.541771 -3.56001 0
M  V30 1392 C 132.541 -0.725388 -4.43912 0
M  V30 1393 C 133.86 1.34685 -4.18984 0
M  V30 1394 H 130.979 0.0853177 -0.732045 0
M  V30 1395 H 133.621 -0.477384 -1.83905 0
M  V30 1396 H 131.771 1.15189 -3.71031 0
M  V30 1397 H 133.443 -1.36313 -4.407 0
M  V30 1398 H 131.686 -1.34801 -4.12324 0
M  V30 1399 H 132.357 -0.468505 -5.50008 0
M  V30 1400 H 134.833 0.830837 -4.07721 0
M  V30 1401 H 133.709 1.52759 -5.27215 0
M  V30 1402 H 133.97 2.35221 -3.74331 0
M  V30 1403 N 133.029 1.57378 -0.0835403 0
M  V30 1404 C 134.275 1.94217 0.583733 0
M  V30 1405 C 134.608 0.964653 1.68547 0
M  V30 1406 O 133.883 -0.00422258 1.945 0
M  V30 1407 C 134.166 3.41253 1.14972 0
M  V30 1408 C 134.019 4.49768 0.0538277 0
M  V30 1409 C 135.338 3.89352 2.05166 0
M  V30 1410 H 132.457 0.706233 0.210724 0
M  V30 1411 H 135.099 1.89392 -0.1519 0
M  V30 1412 H 133.249 3.45496 1.77665 0
M  V30 1413 H 134.921 4.57641 -0.579851 0
M  V30 1414 H 133.164 4.29432 -0.614068 0
M  V30 1415 H 133.835 5.49817 0.490452 0
M  V30 1416 H 136.311 3.87189 1.52393 0
M  V30 1417 H 135.187 4.92822 2.41698 0
M  V30 1418 H 135.448 3.27973 2.96456 0
M  V30 1419 N 134.507 -0.190092 1.56449 0
M  V30 1420 C 135.732 -0.929864 1.85387 0
M  V30 1421 C 136.157 -1.7585 0.667704 0
M  V30 1422 O 135.515 -1.77198 -0.383459 0
M  V30 1423 C 135.563 -1.79773 3.12593 0
M  V30 1424 O 134.667 -2.89713 2.93496 0
M  V30 1425 H 134.008 -0.261574 0.610307 0
M  V30 1426 H 136.538 -0.193896 2.03679 0
M  V30 1427 H 136.548 -2.20139 3.43515 0
M  V30 1428 H 135.223 -1.18892 3.98544 0
M  V30 1429 H 133.8 -2.53065 2.73884 0
M  V30 1430 N 135.985 -1.50799 -0.457987 0
M  V30 1431 C 137.231 -1.62683 -1.21088 0
M  V30 1432 C 137.564 -0.332268 -1.91336 0
M  V30 1433 O 136.839 0.667043 -1.82704 0
M  V30 1434 C 137.122 -2.81615 -2.24422 0
M  V30 1435 C 136.975 -4.20989 -1.58392 0
M  V30 1436 C 138.294 -2.96085 -3.2561 0
M  V30 1437 H 135.413 -0.592087 -0.438864 0
M  V30 1438 H 138.055 -1.83225 -0.50286 0
M  V30 1439 H 136.205 -2.64231 -2.84806 0
M  V30 1440 H 137.877 -4.49994 -1.01504 0
M  V30 1441 H 136.12 -4.24641 -0.886704 0
M  V30 1442 H 136.791 -5.0016 -2.33547 0
M  V30 1443 H 139.267 -3.12042 -2.75262 0
M  V30 1444 H 138.143 -3.80902 -3.95228 0
M  V30 1445 H 138.404 -2.0726 -3.90507 0
M  V30 1446 N 137.463 0.71206 -1.40597 0
M  V30 1447 C 138.393 1.83889 -1.43899 0
M  V30 1448 C 139.374 1.67442 -0.299504 0
M  V30 1449 O 140.559 1.87421 -0.508624 0
M  V30 1450 C 137.689 3.21877 -1.30431 0
M  V30 1451 C 136.643 3.53002 -2.42019 0
M  V30 1452 C 135.969 4.90172 -2.13626 0
M  V30 1453 C 137.269 3.53643 -3.84362 0
M  V30 1454 H 138.963 1.81383 -2.38203 0
M  V30 1455 H 136.509 0.871237 -1.14654 0
M  V30 1456 H 138.462 4.00404 -1.31357 0
M  V30 1457 H 137.186 3.24968 -0.326049 0
M  V30 1458 H 135.845 2.76818 -2.40349 0
M  V30 1459 H 135.493 4.89869 -1.14182 0
M  V30 1460 H 135.193 5.11962 -2.88389 0
M  V30 1461 H 136.717 5.71028 -2.1624 0
M  V30 1462 H 138.131 4.22203 -3.87837 0
M  V30 1463 H 136.528 3.86961 -4.58673 0
M  V30 1464 H 137.598 2.52954 -4.13693 0
M  V30 1465 N 138.941 1.26152 0.944643 0
M  V30 1466 C 140.189 1.11271 1.6871 0
M  V30 1467 C 140.51 -0.345166 1.91921 0
M  V30 1468 O 139.78 -1.24387 1.51343 0
M  V30 1469 H 138.36 0.408783 0.625224 0
M  V30 1470 H 141.022 1.58427 1.1352 0
M  V30 1471 H 140.118 1.62879 2.66227 0
M  V30 1472 N 140.419 -1.14872 1.07899 0
M  V30 1473 C 141.83 -1.67367 0.827363 0
M  V30 1474 C 142.181 -1.85236 -0.646693 0
M  V30 1475 O 141.306 -1.55974 -1.50004 0
M  V30 1476 C 141.901 -3.04016 1.49532 0
M  V30 1477 C 140.46 -3.53566 1.29106 0
M  V30 1478 C 139.607 -2.29161 1.56143 0
M  V30 1479 H 142.558 -0.990083 1.24028 0
M  V30 1480 H 142.579 -3.69219 0.919643 0
M  V30 1481 H 142.091 -2.90978 2.56814 0
M  V30 1482 H 140.192 -3.71835 0.238713 0
M  V30 1483 H 140.305 -4.34661 2.01511 0
M  V30 1484 H 138.669 -2.34978 0.982717 0
M  V30 1485 H 139.452 -2.18705 2.64619 0
M  V30 1486 N 141.898 -0.863906 -1.31812 0
M  V30 1487 C 143.123 -0.48527 -2.01643 0
M  V30 1488 C 143.548 0.913058 -1.64453 0
M  V30 1489 O 142.906 1.6014 -0.849985 0
M  V30 1490 C 142.954 -0.642625 -3.54828 0
M  V30 1491 O 142.058 0.320659 -4.11151 0
M  V30 1492 H 141.399 -0.193793 -0.635091 0
M  V30 1493 H 143.929 -1.16565 -1.68148 0
M  V30 1494 H 143.939 -0.533628 -4.04495 0
M  V30 1495 H 142.614 -1.66227 -3.81237 0
M  V30 1496 H 141.191 0.167126 -3.72525 0
M  V30 1497 N 143.376 1.44774 -0.622745 0
M  V30 1498 C 144.601 2.06999 -0.128968 0
M  V30 1499 C 145.026 1.4617 1.1839 0
M  V30 1500 O 144.384 0.560007 1.72434 0
M  V30 1501 C 144.432 3.60595 -0.0188351 0
M  V30 1502 O 143.536 3.99398 1.02739 0
M  V30 1503 H 142.877 0.659047 -0.0809544 0
M  V30 1504 H 145.407 1.85784 -0.85705 0
M  V30 1505 H 145.417 4.07627 0.174476 0
M  V30 1506 H 144.092 4.04252 -0.977384 0
M  V30 1507 H 142.669 3.64011 0.809326 0
M  V30 1508 N 144.854 0.36279 1.53368 0
M  V30 1509 C 146.079 -0.231226 2.06107 0
M  V30 1510 C 146.504 -1.419 1.23474 0
M  V30 1511 O 145.862 -1.79524 0.253128 0
M  V30 1512 C 145.91 -0.605523 3.5548 0
M  V30 1513 O 145.014 -1.70312 3.7559 0
M  V30 1514 H 144.355 -0.034327 0.663112 0
M  V30 1515 H 146.885 0.522584 1.97814 0
M  V30 1516 H 146.895 -0.877314 3.98456 0
M  V30 1517 H 145.57 0.263004 4.15068 0
M  V30 1518 H 144.147 -1.4271 3.44512 0
M  V30 1519 N 146.332 -1.57332 0.0918853 0
M  V30 1520 C 147.743 -1.81496 -0.437739 0
M  V30 1521 C 148.094 -1.00727 -1.6837 0
M  V30 1522 O 147.219 -0.235694 -2.15113 0
M  V30 1523 C 147.814 -3.29197 -0.800939 0
M  V30 1524 C 146.373 -3.54136 -1.27532 0
M  V30 1525 C 145.52 -2.75979 -0.270392 0
M  V30 1526 H 148.471 -1.55494 0.317366 0
M  V30 1527 H 148.492 -3.42344 -1.66074 0
M  V30 1528 H 148.004 -3.87955 0.106078 0
M  V30 1529 H 146.105 -3.00705 -2.20016 0
M  V30 1530 H 146.218 -4.62792 -1.23938 0
M  V30 1531 H 144.582 -2.43349 -0.751872 0
M  V30 1532 H 145.365 -3.37484 0.629248 0
M  V30 1533 N 147.81 0.181792 -1.56548 0
M  V30 1534 C 148.773 1.20894 -1.94724 0
M  V30 1535 C 149.773 1.37738 -0.829747 0
M  V30 1536 O 150.963 1.35323 -1.09697 0
M  V30 1537 C 148.095 2.57593 -2.23291 0
M  V30 1538 H 149.288 0.882275 -2.86629 0
M  V30 1539 H 146.841 0.423838 -1.50444 0
M  V30 1540 H 147.576 2.95291 -1.34067 0
M  V30 1541 H 147.361 2.46735 -3.04736 0
M  V30 1542 H 148.851 3.31637 -2.53785 0
M  V30 1543 N 149.288 1.51039 0.449983 0
M  V30 1544 C 150.513 1.6715 1.22783 0
M  V30 1545 C 150.938 0.363081 1.84563 0
M  V30 1546 O 150.296 -0.675433 1.68249 0
M  V30 1547 C 150.344 2.77985 2.29689 0
M  V30 1548 O 149.448 2.40707 3.34864 0
M  V30 1549 H 148.789 0.557746 0.360299 0
M  V30 1550 H 151.319 1.97535 0.533005 0
M  V30 1551 H 151.329 3.01693 2.74673 0
M  V30 1552 H 150.004 3.72935 1.84098 0
M  V30 1553 H 148.581 2.27523 2.95445 0
M  V30 1554 N 150.766 -0.704594 1.40972 0
M  V30 1555 C 151.729 -1.80035 1.41845 0
M  V30 1556 C 152.729 -1.57774 0.310474 0
M  V30 1557 O 153.919 -1.64613 0.56992 0
M  V30 1558 C 151.051 -3.18284 1.22098 0
M  V30 1559 H 152.244 -1.80658 2.3938 0
M  V30 1560 H 149.797 -0.911329 1.26982 0
M  V30 1561 H 150.532 -3.23306 0.253672 0
M  V30 1562 H 150.317 -3.35843 2.02366 0
M  V30 1563 H 151.807 -3.98289 1.25522 0
M  V30 1564 N 152.244 -1.26651 -0.937939 0
M  V30 1565 C 153.469 -1.15279 -1.72411 0
M  V30 1566 C 153.894 0.287866 -1.85884 0
M  V30 1567 O 153.252 1.20855 -1.35143 0
M  V30 1568 C 153.3 -1.83028 -3.10698 0
M  V30 1569 O 152.404 -1.12128 -3.96864 0
M  V30 1570 H 151.745 -0.401504 -0.528858 0
M  V30 1571 H 154.275 -1.67531 -1.1745 0
M  V30 1572 H 154.285 -1.89981 -3.6107 0
M  V30 1573 H 152.96 -2.87833 -3.00208 0
M  V30 1574 H 151.537 -1.13173 -3.55312 0
M  V30 1575 N 153.722 1.14298 -1.08507 0
M  V30 1576 C 154.95 1.89219 -0.836876 0
M  V30 1577 C 155.365 1.78638 0.611054 0
M  V30 1578 O 154.722 1.14643 1.41998 0
M  V30 1579 C 154.773 3.39158 -1.25116 0
M  V30 1580 O 154.494 3.49449 -2.64229 0
M  V30 1581 C 155.995 4.31073 -1.03398 0
M  V30 1582 H 153.215 0.599328 -0.301739 0
M  V30 1583 H 155.759 1.44746 -1.44461 0
M  V30 1584 H 153.914 3.81251 -0.687514 0
M  V30 1585 H 154.328 4.42589 -2.81452 0
M  V30 1586 H 155.802 5.34646 -1.37323 0
M  V30 1587 H 156.279 4.3919 0.0289259 0
M  V30 1588 H 156.885 3.94738 -1.58311 0
M  V30 1589 N 155.201 0.870884 1.31352 0
M  V30 1590 C 156.447 0.482987 1.96965 0
M  V30 1591 C 156.78 -0.962462 1.68672 0
M  V30 1592 O 156.055 -1.6779 0.98371 0
M  V30 1593 C 156.338 0.741752 3.52378 0
M  V30 1594 C 156.191 2.2368 3.9024 0
M  V30 1595 C 157.51 0.208838 4.39604 0
M  V30 1596 H 154.629 0.176955 0.715441 0
M  V30 1597 H 157.271 1.09229 1.55464 0
M  V30 1598 H 155.421 0.223149 3.87859 0
M  V30 1599 H 157.093 2.82273 3.64856 0
M  V30 1600 H 155.336 2.70901 3.38814 0
M  V30 1601 H 156.007 2.3685 4.98604 0
M  V30 1602 H 158.483 0.652529 4.10952 0
M  V30 1603 H 157.359 0.419336 5.47296 0
M  V30 1604 H 157.62 -0.889275 4.33064 0
M  V30 1605 N 156.679 -1.44442 0.630414 0
M  V30 1606 C 157.904 -2.06927 0.139944 0
M  V30 1607 C 158.329 -1.46795 -1.17613 0
M  V30 1608 O 157.687 -0.569144 -1.72135 0
M  V30 1609 C 157.735 -3.6058 0.0379581 0
M  V30 1610 O 156.839 -3.99937 -1.0062 0
M  V30 1611 H 156.18 -0.658608 0.0844483 0
M  V30 1612 H 158.71 -1.85327 0.866891 0
M  V30 1613 H 158.72 -4.07714 -0.152856 0
M  V30 1614 H 157.395 -4.03728 0.998809 0
M  V30 1615 H 155.972 -3.64436 -0.79001 0
M  V30 1616 N 158.157 -0.370918 -1.53173 0
M  V30 1617 C 159.107 0.489588 -2.22681 0
M  V30 1618 C 160.091 1.04442 -1.22395 0
M  V30 1619 O 161.283 0.973578 -1.47819 0
M  V30 1620 C 158.412 1.626 -3.02351 0
M  V30 1621 C 157.498 1.08379 -4.10018 0
M  V30 1622 N 157.889 0.265004 -5.05105 0
M  V30 1623 C 156.187 1.35809 -4.2482 0
M  V30 1624 C 156.888 -0.0324755 -5.81691 0
M  V30 1625 N 155.864 0.566581 -5.40639 0
M  V30 1626 H 159.666 -0.142729 -2.93553 0
M  V30 1627 H 157.18 -0.179221 -1.61408 0
M  V30 1628 H 159.177 2.2547 -3.50669 0
M  V30 1629 H 157.837 2.26132 -2.33011 0
M  V30 1630 H 158.848 -0.0962352 -5.17811 0
M  V30 1631 H 155.525 1.9958 -3.66707 0
M  V30 1632 H 156.915 -0.69473 -6.68299 0
M  V30 1633 N 159.635 1.57281 -0.100228 0
M  V30 1634 C 160.884 1.93713 0.561984 0
M  V30 1635 C 161.197 0.984492 1.69018 0
M  V30 1636 O 162.403 1.24273 2.41389 0
M  V30 1637 C 160.859 3.4421 1.05106 0
M  V30 1638 C 160.467 4.47975 -0.0476628 0
M  V30 1639 C 162.211 3.89595 1.68571 0
M  V30 1640 C 160.118 5.89631 0.457055 0
M  V30 1641 H 159.048 0.723082 0.2137 0
M  V30 1642 H 161.699 1.82644 -0.177057 0
M  V30 1643 H 160.081 3.50449 1.84395 0
M  V30 1644 H 161.255 4.53385 -0.823333 0
M  V30 1645 H 159.57 4.1223 -0.587816 0
M  V30 1646 H 162.167 4.92832 2.07414 0
M  V30 1647 H 162.51 3.28526 2.55688 0
M  V30 1648 H 163.043 3.86078 0.958562 0
M  V30 1649 H 159.782 6.54411 -0.377616 0
M  V30 1650 H 159.302 5.87681 1.19962 0
M  V30 1651 H 160.981 6.40363 0.92437 0
M  V30 1652 N 161.113 -0.173488 1.56642 0
M  V30 1653 C 162.353 -0.896984 1.83667 0
M  V30 1654 C 162.717 -1.79523 0.680842 0
M  V30 1655 O 163.918 -2.55616 0.831488 0
M  V30 1656 C 162.189 -1.67351 3.15798 0
M  V30 1657 S 163.748 -2.44607 3.64298 0
M  V30 1658 H 160.566 -0.300464 0.644393 0
M  V30 1659 H 163.168 -0.158775 1.94854 0
M  V30 1660 H 161.872 -1.00462 3.97914 0
M  V30 1661 H 161.403 -2.45313 3.07546 0
M  V30 1662 H 163.418 -3.69261 3.31452 0
M  V30 1663 N 162.591 -1.51276 -0.441967 0
M  V30 1664 C 163.839 -1.63392 -1.18943 0
M  V30 1665 C 164.16 -0.350159 -1.9183 0
M  V30 1666 O 163.43 0.633784 -1.85364 0
M  V30 1667 H 162.01 -0.602164 -0.442049 0
M  V30 1668 H 164.672 -1.88186 -0.507165 0
M  V30 1669 H 163.768 -2.45934 -1.92154 0
M  V30 1670 N 164.069 0.697108 -1.41344 0
M  V30 1671 C 164.979 1.84088 -1.45427 0
M  V30 1672 C 165.995 1.70545 -0.34501 0
M  V30 1673 O 167.171 1.92488 -0.592492 0
M  V30 1674 C 164.236 3.20056 -1.33286 0
M  V30 1675 C 163.297 3.45718 -2.54514 0
M  V30 1676 C 162.53 4.75199 -2.42944 0
M  V30 1677 O 162.753 5.51579 -1.45318 0
M  V30 1678 O 161.687 5.0161 -3.32672 0
M  V30 1679 H 165.513 1.836 -2.41919 0
M  V30 1680 H 163.098 0.849966 -1.22866 0
M  V30 1681 H 164.98 4.01236 -1.28794 0
M  V30 1682 H 163.655 3.2123 -0.39909 0
M  V30 1683 H 162.562 2.64474 -2.64583 0
M  V30 1684 H 163.895 3.49356 -3.46715 0
M  V30 1685 N 165.547 1.27147 0.931209 0
M  V30 1686 C 166.494 1.09568 2.03134 0
M  V30 1687 C 167.464 -0.00222433 1.661 0
M  V30 1688 O 168.649 0.159439 1.90133 0
M  V30 1689 C 165.789 0.745231 3.36957 0
M  V30 1690 C 164.902 1.92041 3.86968 0
M  V30 1691 C 164.037 1.51216 5.09222 0
M  V30 1692 C 163.076 2.65504 5.5152 0
M  V30 1693 N 162.213 2.25291 6.64972 0
M  V30 1694 H 167.053 2.03708 2.17502 0
M  V30 1695 H 164.59 1.01411 1.06556 0
M  V30 1696 H 166.548 0.522878 4.1391 0
M  V30 1697 H 165.178 -0.159202 3.22407 0
M  V30 1698 H 164.23 2.25541 3.06326 0
M  V30 1699 H 165.542 2.77787 4.1429 0
M  V30 1700 H 164.696 1.25084 5.93666 0
M  V30 1701 H 163.435 0.625749 4.83669 0
M  V30 1702 H 162.44 2.92354 4.65628 0
M  V30 1703 H 163.665 3.54761 5.7907 0
M  V30 1704 H 161.611 1.39098 6.41083 0
M  V30 1705 H 161.528 3.04577 6.91931 0
M  V30 1706 H 162.796 2.02398 7.52765 0
M  V30 1707 N 167.025 -1.13721 1.09112 0
M  V30 1708 C 167.935 -2.22638 0.73957 0
M  V30 1709 C 168.951 -1.72091 -0.257068 0
M  V30 1710 O 170.127 -2.01155 -0.0992154 0
M  V30 1711 C 167.192 -3.46322 0.16191 0
M  V30 1712 C 166.253 -4.11775 1.21408 0
M  V30 1713 C 165.486 -5.29555 0.663891 0
M  V30 1714 O 165.709 -5.68077 -0.514274 0
M  V30 1715 O 164.643 -5.84973 1.41738 0
M  V30 1716 H 168.469 -2.55074 1.64836 0
M  V30 1717 H 166.054 -1.21791 0.865289 0
M  V30 1718 H 167.936 -4.21107 -0.157073 0
M  V30 1719 H 166.611 -3.15593 -0.719932 0
M  V30 1720 H 165.518 -3.3883 1.58571 0
M  V30 1721 H 166.851 -4.46627 2.06845 0
M  V30 1722 N 168.503 -0.877838 -1.30888 0
M  V30 1723 C 169.752 -0.488793 -1.95688 0
M  V30 1724 C 170.065 0.965485 -1.70111 0
M  V30 1725 O 171.271 1.46104 -2.28836 0
M  V30 1726 C 169.727 -0.823201 -3.50359 0
M  V30 1727 C 169.335 -2.29477 -3.84765 0
M  V30 1728 C 171.079 -0.503009 -4.21509 0
M  V30 1729 C 168.986 -2.57118 -5.32583 0
M  V30 1730 H 167.916 -0.179062 -0.732429 0
M  V30 1731 H 170.567 -1.07183 -1.48943 0
M  V30 1732 H 168.949 -0.169331 -3.95638 0
M  V30 1733 H 170.123 -2.99236 -3.5042 0
M  V30 1734 H 168.438 -2.58178 -3.267 0
M  V30 1735 H 171.035 -0.68665 -5.30273 0
M  V30 1736 H 171.378 0.557109 -4.12555 0
M  V30 1737 H 171.911 -1.11376 -3.8189 0
M  V30 1738 H 168.65 -3.61843 -5.4658 0
M  V30 1739 H 168.17 -1.91961 -5.68253 0
M  V30 1740 H 169.849 -2.42251 -5.99936 0
M  V30 1741 N 169.982 1.44106 -0.638065 0
M  V30 1742 C 171.393 1.85316 -0.226894 0
M  V30 1743 C 171.744 1.53399 1.22324 0
M  V30 1744 O 170.869 0.975463 1.93167 0
M  V30 1745 C 171.464 3.3637 -0.405013 0
M  V30 1746 C 170.023 3.76369 -0.0482902 0
M  V30 1747 C 169.17 2.67921 -0.715108 0
M  V30 1748 H 172.121 1.34474 -0.842764 0
M  V30 1749 H 172.142 3.7885 0.354 0
M  V30 1750 H 171.654 3.59569 -1.46053 0
M  V30 1751 H 169.755 3.58784 1.00522 0
M  V30 1752 H 169.868 4.76856 -0.463187 0
M  V30 1753 H 168.232 2.54259 -0.149753 0
M  V30 1754 H 169.015 2.93951 -1.77335 0
M  V30 1755 N 171.46 0.379036 1.52974 0
M  V30 1756 C 172.41 -0.477772 2.22938 0
M  V30 1757 C 173.394 -1.03792 1.22948 0
M  V30 1758 O 174.586 -0.965725 1.48333 0
M  V30 1759 C 171.715 -1.60994 3.03209 0
M  V30 1760 C 170.801 -1.06203 4.10587 0
M  V30 1761 N 171.192 -0.238214 5.05239 0
M  V30 1762 C 169.49 -1.33554 4.25534 0
M  V30 1763 C 170.191 0.0633235 5.81666 0
M  V30 1764 N 169.167 -0.537901 5.40932 0
M  V30 1765 H 172.969 0.158295 2.93473 0
M  V30 1766 H 170.483 0.187778 1.61311 0
M  V30 1767 H 172.48 -2.23607 3.5186 0
M  V30 1768 H 171.14 -2.24893 2.34207 0
M  V30 1769 H 172.151 0.123695 5.17752 0
M  V30 1770 H 168.828 -1.97632 3.6776 0
M  V30 1771 H 170.218 0.730161 6.67921 0
M  V30 1772 N 172.938 -1.57226 0.108567 0
M  V30 1773 C 174.187 -1.94008 -0.551703 0
M  V30 1774 C 174.5 -0.993442 -1.68494 0
M  V30 1775 O 175.706 -1.25551 -2.40726 0
M  V30 1776 C 174.162 -3.44763 -1.03279 0
M  V30 1777 C 173.77 -4.47943 0.0714193 0
M  V30 1778 C 175.514 -3.90483 -1.66503 0
M  V30 1779 C 173.421 -5.89865 -0.425779 0
M  V30 1780 H 172.351 -0.724206 -0.209863 0
M  V30 1781 H 175.002 -1.82547 0.186741 0
M  V30 1782 H 173.384 -3.51422 -1.82533 0
M  V30 1783 H 174.558 -4.52942 0.847365 0
M  V30 1784 H 172.873 -4.11913 0.609669 0
M  V30 1785 H 175.47 -4.93925 -2.04798 0
M  V30 1786 H 175.813 -3.29877 -2.53942 0
M  V30 1787 H 176.346 -3.86581 -0.938074 0
M  V30 1788 H 173.085 -6.54202 0.412316 0
M  V30 1789 H 172.605 -5.88309 -1.16843 0
M  V30 1790 H 174.284 -6.40844 -0.890397 0
M  V30 1791 N 174.416 0.165178 -1.56732 0
M  V30 1792 C 175.363 1.2044 -1.96883 0
M  V30 1793 C 176.333 1.43664 -0.833657 0
M  V30 1794 O 177.518 1.56302 -1.09427 0
M  V30 1795 C 174.658 2.53727 -2.33916 0
M  V30 1796 C 173.771 2.3783 -3.6064 0
M  V30 1797 C 172.906 3.64026 -3.86857 0
M  V30 1798 C 171.945 3.43088 -5.06909 0
M  V30 1799 N 171.082 4.61369 -5.29229 0
M  V30 1800 H 175.922 0.854996 -2.85471 0
M  V30 1801 H 173.459 0.41076 -1.41249 0
M  V30 1802 H 175.417 3.31419 -2.53411 0
M  V30 1803 H 174.047 2.8665 -1.48431 0
M  V30 1804 H 173.099 1.51282 -3.49024 0
M  V30 1805 H 174.411 2.18308 -4.4849 0
M  V30 1806 H 173.565 4.50152 -4.06753 0
M  V30 1807 H 172.304 3.86533 -2.97394 0
M  V30 1808 H 171.309 2.55349 -4.86906 0
M  V30 1809 H 172.534 3.21997 -5.97909 0
M  V30 1810 H 170.48 4.84084 -4.42718 0
M  V30 1811 H 170.397 4.44783 -6.11313 0
M  V30 1812 H 171.665 5.48761 -5.53608 0
M  V30 1813 N 175.894 1.51508 0.433938 0
M  V30 1814 C 177.14 1.64588 1.18484 0
M  V30 1815 C 177.473 0.362666 1.90784 0
M  V30 1816 O 176.748 -0.637892 1.83742 0
M  V30 1817 C 177.031 2.85149 2.19913 0
M  V30 1818 C 176.884 4.23456 1.51674 0
M  V30 1819 C 178.203 3.01227 3.20858 0
M  V30 1820 H 175.322 0.598994 0.429389 0
M  V30 1821 H 177.964 1.84002 0.473647 0
M  V30 1822 H 176.114 2.68729 2.80566 0
M  V30 1823 H 177.786 4.51552 0.943322 0
M  V30 1824 H 176.029 4.25998 0.819035 0
M  V30 1825 H 176.7 5.03812 2.2556 0
M  V30 1826 H 179.176 3.16382 2.70263 0
M  V30 1827 H 178.052 3.87141 3.89118 0
M  V30 1828 H 178.313 2.13447 3.8716 0
M  V30 1829 N 177.372 -0.689602 1.41712 0
M  V30 1830 C 178.62 -1.4468 1.4111 0
M  V30 1831 C 178.941 -1.94986 0.0232196 0
M  V30 1832 O 178.211 -1.72097 -0.935913 0
M  V30 1833 H 176.791 -0.536847 0.519427 0
M  V30 1834 H 179.453 -0.815825 1.77004 0
M  V30 1835 H 178.549 -2.30706 2.10193 0
M  V30 1836 N 178.85 -1.27639 -0.924453 0
M  V30 1837 C 180.261 -1.12834 -1.48746 0
M  V30 1838 C 180.612 0.285505 -1.94112 0
M  V30 1839 O 179.737 1.17874 -1.81479 0
M  V30 1840 C 180.332 -2.04217 -2.70334 0
M  V30 1841 C 178.891 -1.93509 -3.22848 0
M  V30 1842 C 178.038 -1.96583 -1.95577 0
M  V30 1843 H 180.989 -1.40484 -0.738233 0
M  V30 1844 H 181.01 -1.59989 -3.4523 0
M  V30 1845 H 180.522 -3.07111 -2.37285 0
M  V30 1846 H 178.623 -0.936131 -3.60649 0
M  V30 1847 H 178.736 -2.79917 -3.88823 0
M  V30 1848 H 177.1 -1.4085 -2.12211 0
M  V30 1849 H 177.883 -3.01137 -1.64837 0
M  V30 1850 N 180.328 1.1314 -1.09713 0
M  V30 1851 C 181.238 2.22242 -0.751367 0
M  V30 1852 C 182.254 1.72224 0.247938 0
M  V30 1853 O 183.43 2.01205 0.0885463 0
M  V30 1854 C 180.495 3.46231 -0.180274 0
M  V30 1855 C 179.556 4.11125 -1.2359 0
M  V30 1856 C 178.789 5.29195 -0.691966 0
M  V30 1857 O 179.012 5.68342 0.48414 0
M  V30 1858 O 177.946 5.84214 -1.44838 0
M  V30 1859 H 181.772 2.54197 -1.66186 0
M  V30 1860 H 179.357 1.21331 -0.871735 0
M  V30 1861 H 181.239 4.21185 0.134739 0
M  V30 1862 H 179.914 3.1597 0.703185 0
M  V30 1863 H 178.821 3.37985 -1.60366 0
M  V30 1864 H 180.154 4.45524 -2.09211 0
M  V30 1865 N 181.806 0.884767 1.30421 0
M  V30 1866 C 182.716 0.355398 2.31892 0
M  V30 1867 C 183.732 -0.542261 1.65335 0
M  V30 1868 O 184.908 -0.435432 1.96637 0
M  V30 1869 C 181.973 -0.421661 3.44126 0
M  V30 1870 C 181.034 0.505727 4.26311 0
M  V30 1871 C 180.267 -0.234343 5.33185 0
M  V30 1872 O 180.49 -1.46045 5.51386 0
M  V30 1873 O 179.424 0.415443 6.00465 0
M  V30 1874 H 183.25 1.19685 2.79122 0
M  V30 1875 H 180.835 0.648596 1.34587 0
M  V30 1876 H 182.717 -0.861641 4.12497 0
M  V30 1877 H 181.392 -1.23942 2.99032 0
M  V30 1878 H 180.299 0.994513 3.60639 0
M  V30 1879 H 181.632 1.28948 4.75009 0
M  V30 1880 N 183.284 -1.43765 0.645699 0
M  V30 1881 C 184.512 -2.06253 0.163556 0
M  V30 1882 C 184.927 -1.48352 -1.16778 0
M  V30 1883 O 184.284 -0.611932 -1.71935 0
M  V30 1884 C 184.335 -3.61453 0.0583186 0
M  V30 1885 O 184.056 -4.172 1.33702 0
M  V30 1886 C 185.557 -4.41002 -0.450795 0
M  V30 1887 H 182.777 -0.665413 0.0864077 0
M  V30 1888 H 185.321 -1.84396 0.884222 0
M  V30 1889 H 183.476 -3.82522 -0.612865 0
M  V30 1890 H 183.89 -5.10791 1.19131 0
M  V30 1891 H 185.364 -5.49966 -0.473403 0
M  V30 1892 H 185.841 -4.13488 -1.48068 0
M  V30 1893 H 186.447 -4.24886 0.187637 0
M  V30 1894 N 184.763 -0.387143 -1.52771 0
M  V30 1895 C 186.174 0.0873634 -1.86495 0
M  V30 1896 C 186.525 1.46336 -1.30691 0
M  V30 1897 O 185.65 2.068 -0.637409 0
M  V30 1898 C 186.245 0.165305 -3.38396 0
M  V30 1899 C 184.804 0.584101 -3.7184 0
M  V30 1900 C 183.951 -0.255279 -2.76122 0
M  V30 1901 H 186.902 -0.605104 -1.46711 0
M  V30 1902 H 186.923 0.984848 -3.67534 0
M  V30 1903 H 186.435 -0.836301 -3.78982 0
M  V30 1904 H 184.536 1.59315 -3.36823 0
M  V30 1905 H 184.649 0.343749 -4.77865 0
M  V30 1906 H 183.013 0.279126 -2.53166 0
M  V30 1907 H 183.796 -1.25482 -3.19545 0
M  V30 1908 N 186.241 1.57166 -0.116904 0
M  V30 1909 C 187.657 1.5779 0.239693 0
M  V30 1910 C 187.857 1.1295 1.66867 0
M  V30 1911 O 186.913 0.81592 2.38954 0
M  V30 1912 C 188.226 3.00699 0.00828202 0
M  V30 1913 C 189.774 3.12912 0.0743438 0
M  V30 1914 C 190.249 4.57817 -0.129348 0
M  V30 1915 N 191.74 4.63139 -0.075247 0
M  V30 1916 C 192.475 5.73023 -0.207788 0
M  V30 1917 N 191.971 6.91665 -0.396382 0
M  V30 1918 N 193.764 5.61906 -0.14751 0
M  V30 1919 H 185.915 1.84615 -1.05029 0
M  V30 1920 H 188.178 0.85311 -0.41341 0
M  V30 1921 H 187.884 3.37784 -0.979531 0
M  V30 1922 H 187.758 3.69848 0.741077 0
M  V30 1923 H 190.145 2.75686 1.05268 0
M  V30 1924 H 190.226 2.4631 -0.690297 0
M  V30 1925 H 189.87 4.95742 -1.10465 0
M  V30 1926 H 189.8 5.22507 0.655253 0
M  V30 1927 H 192.291 3.7784 0.0670898 0
M  V30 1928 H 192.604 7.71255 -0.488437 0
M  V30 1929 H 190.949 6.93654 -0.432329 0
M  V30 1930 H 194.14 4.681 -0.00115036 0
M  V30 1931 H 194.313 6.47501 -0.254247 0
M  V30 1932 N 187.719 -0.156864 1.56817 0
M  V30 1933 C 188.649 -1.19589 2.00551 0
M  V30 1934 C 189.63 -1.4536 0.883426 0
M  V30 1935 O 190.815 -1.56449 1.15054 0
M  V30 1936 C 187.945 -2.53143 2.37773 0
M  V30 1937 C 186.899 -2.41913 3.53075 0
M  V30 1938 C 186.225 -3.80088 3.76081 0
M  V30 1939 C 187.525 -1.91157 4.86062 0
M  V30 1940 H 189.219 -0.832293 2.87599 0
M  V30 1941 H 186.765 -0.398918 1.38364 0
M  V30 1942 H 188.718 -3.26047 2.66967 0
M  V30 1943 H 187.442 -2.91319 1.4765 0
M  V30 1944 H 186.101 -1.71462 3.24031 0
M  V30 1945 H 185.749 -4.15683 2.83225 0
M  V30 1946 H 185.449 -3.73439 4.53671 0
M  V30 1947 H 186.973 -4.54556 4.0769 0
M  V30 1948 H 188.387 -2.53846 5.14038 0
M  V30 1949 H 186.784 -1.95422 5.67389 0
M  V30 1950 H 187.854 -0.866673 4.77092 0
M  V30 1951 N 189.197 -1.51736 -0.425897 0
M  V30 1952 C 190.129 -1.70083 -1.53638 0
M  V30 1953 C 191.142 -0.581349 -1.52066 0
M  V30 1954 O 192.331 -0.856017 -1.56635 0
M  V30 1955 C 189.431 -1.71078 -2.9255 0
M  V30 1956 C 188.604 -2.99795 -3.185 0
M  V30 1957 C 187.663 -2.92825 -4.37196 0
M  V30 1958 O 186.689 -3.66756 -4.35291 0
M  V30 1959 N 187.891 -2.0946 -5.41393 0
M  V30 1960 H 190.656 -2.65882 -1.383 0
M  V30 1961 H 188.217 -1.49765 -0.614988 0
M  V30 1962 H 190.209 -1.63969 -3.69995 0
M  V30 1963 H 188.779 -0.828242 -3.01428 0
M  V30 1964 H 187.999 -3.20684 -2.2925 0
M  V30 1965 H 189.287 -3.84977 -3.32671 0
M  V30 1966 H 188.685 -1.48792 -5.45781 0
M  V30 1967 H 187.242 -2.08221 -6.17647 0
M  V30 1968 N 190.675 0.682077 -1.42076 0
M  V30 1969 C 191.905 1.46844 -1.45329 0
M  V30 1970 C 192.313 1.89102 -0.0609328 0
M  V30 1971 O 191.656 1.58238 0.933082 0
M  V30 1972 C 191.718 2.75375 -2.31104 0
M  V30 1973 C 191.382 2.55238 -3.79081 0
M  V30 1974 C 192.379 2.20309 -4.70914 0
M  V30 1975 C 190.064 2.70459 -4.2327 0
M  V30 1976 C 192.058 2.00859 -6.04925 0
M  V30 1977 C 189.745 2.50624 -5.57343 0
M  V30 1978 C 190.743 2.15876 -6.47986 0
M  V30 1979 O 190.431 1.96227 -7.79583 0
M  V30 1980 H 190.163 0.4586 -0.496651 0
M  V30 1981 H 192.717 0.846131 -1.87162 0
M  V30 1982 H 190.947 3.40061 -1.84107 0
M  V30 1983 H 192.636 3.37231 -2.25898 0
M  V30 1984 H 193.402 2.08153 -4.38061 0
M  V30 1985 H 189.281 2.96485 -3.53012 0
M  V30 1986 H 192.825 1.7366 -6.75639 0
M  V30 1987 H 188.722 2.62375 -5.89771 0
M  V30 1988 H 189.49 2.10883 -7.90867 0
M  V30 1989 N 192.153 1.28127 0.917671 0
M  V30 1990 C 193.083 1.14248 2.03641 0
M  V30 1991 C 194.064 0.0412748 1.7005 0
M  V30 1992 O 195.249 0.217566 1.92977 0
M  V30 1993 C 192.379 0.799431 3.37974 0
M  V30 1994 C 191.333 1.85497 3.85713 0
M  V30 1995 C 190.659 1.36565 5.16966 0
M  V30 1996 C 191.959 3.26085 4.08002 0
M  V30 1997 H 193.653 2.07835 2.15511 0
M  V30 1998 H 191.199 1.00064 1.03553 0
M  V30 1999 H 193.152 0.689114 4.15727 0
M  V30 2000 H 191.876 -0.172145 3.26146 0
M  V30 2001 H 190.535 1.95437 3.10161 0
M  V30 2002 H 190.183 0.383253 5.01538 0
M  V30 2003 H 189.883 2.07143 5.49878 0
M  V30 2004 H 191.407 1.26848 5.97279 0
M  V30 2005 H 192.821 3.19089 4.76293 0
M  V30 2006 H 191.218 3.94462 4.52238 0
M  V30 2007 H 192.288 3.70394 3.12948 0
M  V30 2008 N 193.631 -1.12557 1.10312 0
M  V30 2009 C 195.047 -1.36036 0.834649 0
M  V30 2010 C 195.247 -1.93946 -0.546539 0
M  V30 2011 O 194.303 -2.16484 -1.29966 0
M  V30 2012 C 195.616 -2.30312 1.9333 0
M  V30 2013 C 197.164 -2.43906 1.9616 0
M  V30 2014 C 197.639 -3.41496 3.05195 0
M  V30 2015 N 199.13 -3.49053 3.04494 0
M  V30 2016 C 199.865 -4.24471 3.85502 0
M  V30 2017 N 199.361 -5.02966 4.76442 0
M  V30 2018 N 201.154 -4.19864 3.73725 0
M  V30 2019 H 193.305 -0.733246 1.99342 0
M  V30 2020 H 195.568 -0.385234 0.866198 0
M  V30 2021 H 195.274 -1.94933 2.92735 0
M  V30 2022 H 195.148 -3.30421 1.81939 0
M  V30 2023 H 197.535 -2.78567 0.973886 0
M  V30 2024 H 197.616 -1.4369 2.11629 0
M  V30 2025 H 197.26 -3.07565 4.04186 0
M  V30 2026 H 197.19 -4.41539 2.86968 0
M  V30 2027 H 199.681 -2.93053 2.38596 0
M  V30 2028 H 199.994 -5.57846 5.34815 0
M  V30 2029 H 198.339 -5.02167 4.80472 0
M  V30 2030 H 201.53 -3.57623 3.02032 0
M  V30 2031 H 201.703 -4.78386 4.37093 0
M  V30 2032 N 195.109 -0.891671 -1.2995 0
M  V30 2033 C 196.356 -0.513501 -1.95881 0
M  V30 2034 C 196.684 0.938655 -1.70351 0
M  V30 2035 O 195.939 1.67936 -1.00478 0
M  V30 2036 C 196.238 -0.742868 -3.49594 0
M  V30 2037 C 195.904 -2.17114 -3.95186 0
M  V30 2038 C 194.566 -2.56169 -4.07346 0
M  V30 2039 C 196.918 -3.10162 -4.18866 0
M  V30 2040 C 194.246 -3.87469 -4.4055 0
M  V30 2041 C 196.598 -4.41001 -4.53542 0
M  V30 2042 C 195.262 -4.79941 -4.63911 0
M  V30 2043 H 194.532 -0.187903 -0.71678 0
M  V30 2044 H 197.179 -1.1288 -1.54694 0
M  V30 2045 H 195.484 -0.044586 -3.91775 0
M  V30 2046 H 197.181 -0.429767 -3.9869 0
M  V30 2047 H 193.771 -1.85801 -3.86233 0
M  V30 2048 H 197.955 -2.81206 -4.08946 0
M  V30 2049 H 193.211 -4.17371 -4.46779 0
M  V30 2050 H 197.385 -5.13133 -4.70815 0
M  V30 2051 H 195.012 -5.81719 -4.89395 0
M  V30 2052 N 196.587 1.43421 -0.653314 0
M  V30 2053 C 197.55 2.29182 0.0287951 0
M  V30 2054 C 198.55 1.42213 0.750465 0
M  V30 2055 O 199.74 1.63843 0.591701 0
M  V30 2056 C 196.872 3.24278 1.05151 0
M  V30 2057 H 198.065 2.90985 -0.725786 0
M  V30 2058 H 195.618 1.50702 -0.414545 0
M  V30 2059 H 196.353 2.6737 1.83532 0
M  V30 2060 H 196.138 3.88396 0.537687 0
M  V30 2061 H 197.628 3.88647 1.52786 0
M  V30 2062 N 198.065 0.39524 1.52563 0
M  V30 2063 C 199.29 -0.187456 2.06551 0
M  V30 2064 C 199.715 -1.39249 1.26457 0
M  V30 2065 O 199.073 -1.78947 0.291151 0
M  V30 2066 C 199.121 -0.529985 3.56684 0
M  V30 2067 O 198.225 -1.62307 3.79118 0
M  V30 2068 H 197.566 -0.0202537 0.663691 0
M  V30 2069 H 200.096 0.564426 1.96661 0
M  V30 2070 H 200.106 -0.792598 4.00227 0
M  V30 2071 H 198.781 0.350987 4.14416 0
M  V30 2072 H 197.358 -1.3537 3.47461 0
M  V30 2073 N 199.544 -1.57102 0.125237 0
M  V30 2074 C 200.79 -1.95697 -0.532035 0
M  V30 2075 C 201.123 -1.009 -1.6593 0
M  V30 2076 O 200.398 -0.047347 -1.94442 0
M  V30 2077 C 200.681 -3.44181 -1.05884 0
M  V30 2078 C 200.534 -4.49752 0.0654392 0
M  V30 2079 C 201.853 -3.94655 -1.9477 0
M  V30 2080 H 198.972 -0.711571 -0.191925 0
M  V30 2081 H 201.614 -1.88923 0.20206 0
M  V30 2082 H 199.764 -3.50085 -1.68442 0
M  V30 2083 H 201.436 -4.55943 0.700982 0
M  V30 2084 H 199.679 -4.27653 0.727709 0
M  V30 2085 H 200.35 -5.50924 -0.344505 0
M  V30 2086 H 202.826 -3.91094 -1.42074 0
M  V30 2087 H 201.702 -4.99057 -2.28546 0
M  V30 2088 H 201.963 -3.35718 -2.87656 0
M  V30 2089 N 201.022 0.148545 -1.56898 0
M  V30 2090 C 202.247 0.880385 -1.87787 0
M  V30 2091 C 202.672 1.74018 -0.714093 0
M  V30 2092 O 202.03 1.78153 0.336343 0
M  V30 2093 C 202.078 1.71422 -3.17249 0
M  V30 2094 O 201.182 2.8183 -3.01074 0
M  V30 2095 H 200.523 0.245301 -0.617028 0
M  V30 2096 H 203.053 0.139826 -2.04122 0
M  V30 2097 H 203.063 2.10954 -3.49231 0
M  V30 2098 H 201.738 1.08284 -4.01556 0
M  V30 2099 H 200.315 2.45715 -2.80497 0
M  V30 2100 N 202.5 1.5196 0.417844 0
M  V30 2101 C 203.43 1.77634 1.51554 0
M  V30 2102 C 204.411 0.626918 1.58126 0
M  V30 2103 O 205.596 0.871632 1.7354 0
M  V30 2104 C 202.726 1.91911 2.8946 0
M  V30 2105 C 201.68 3.07463 2.97743 0
M  V30 2106 C 201.006 3.06951 4.37819 0
M  V30 2107 C 202.306 4.47082 2.70027 0
M  V30 2108 H 204 2.6955 1.3032 0
M  V30 2109 H 201.546 1.29706 0.625492 0
M  V30 2110 H 203.499 2.08455 3.6623 0
M  V30 2111 H 202.223 0.966598 3.11969 0
M  V30 2112 H 200.882 2.90656 2.23416 0
M  V30 2113 H 200.53 2.09438 4.57323 0
M  V30 2114 H 200.23 3.84556 4.44286 0
M  V30 2115 H 201.754 3.25613 5.16535 0
M  V30 2116 H 203.168 4.6414 3.36522 0
M  V30 2117 H 201.565 5.2654 2.87881 0
M  V30 2118 H 202.635 4.55777 1.65514 0
M  V30 2119 N 203.978 -0.674533 1.42435 0
M  V30 2120 C 205.208 -1.46071 1.46105 0
M  V30 2121 C 205.616 -1.89067 0.0709605 0
M  V30 2122 O 204.959 -1.58731 -0.924677 0
M  V30 2123 C 205.021 -2.74145 2.32561 0
M  V30 2124 C 204.685 -2.53224 3.8043 0
M  V30 2125 C 205.682 -2.17809 4.72075 0
M  V30 2126 C 203.367 -2.6821 4.24698 0
M  V30 2127 C 205.361 -1.97648 6.05982 0
M  V30 2128 C 203.048 -2.47665 5.58664 0
M  V30 2129 C 204.046 -2.12437 6.49122 0
M  V30 2130 O 203.734 -1.9209 7.80613 0
M  V30 2131 H 203.466 -0.455959 0.499076 0
M  V30 2132 H 206.02 -0.836193 1.87609 0
M  V30 2133 H 204.25 -3.3908 1.85908 0
M  V30 2134 H 205.939 -3.36028 2.27683 0
M  V30 2135 H 206.705 -2.05826 4.39159 0
M  V30 2136 H 202.584 -2.94609 3.54579 0
M  V30 2137 H 206.128 -1.70075 6.7655 0
M  V30 2138 H 202.025 -2.59244 5.91154 0
M  V30 2139 H 202.793 -2.06686 7.91974 0
M  V30 2140 N 205.456 -1.28612 -0.910864 0
M  V30 2141 C 206.867 -1.14406 -1.47541 0
M  V30 2142 C 207.218 0.264901 -1.94403 0
M  V30 2143 O 206.343 1.15942 -1.82719 0
M  V30 2144 C 206.938 -2.07073 -2.68153 0
M  V30 2145 C 205.497 -1.96923 -3.20778 0
M  V30 2146 C 204.644 -1.98646 -1.93481 0
M  V30 2147 H 207.595 -1.41259 -0.723291 0
M  V30 2148 H 207.616 -1.63642 -3.43514 0
M  V30 2149 H 207.128 -3.09611 -2.34015 0
M  V30 2150 H 205.229 -0.97433 -3.59635 0
M  V30 2151 H 205.342 -2.84026 -3.85832 0
M  V30 2152 H 203.706 -1.43093 -2.10705 0
M  V30 2153 H 204.489 -3.02868 -1.61634 0
M  V30 2154 N 206.934 1.1197 -1.10907 0
M  V30 2155 C 208.159 1.87942 -0.877064 0
M  V30 2156 C 208.584 1.79341 0.567314 0
M  V30 2157 O 207.942 1.15184 1.40009 0
M  V30 2158 C 207.99 3.34926 -1.33629 0
M  V30 2159 O 207.094 4.09303 -0.504447 0
M  V30 2160 H 206.435 0.583785 -0.316371 0
M  V30 2161 H 208.965 1.4157 -1.47712 0
M  V30 2162 H 208.975 3.8577 -1.32837 0
M  V30 2163 H 207.65 3.40504 -2.3881 0
M  V30 2164 H 206.227 3.68393 -0.577993 0
M  V30 2165 N 208.412 0.89855 1.29475 0
M  V30 2166 C 209.36 0.365253 2.29714 0
M  V30 2167 C 210.354 -0.534993 1.6073 0
M  V30 2168 O 211.56 -0.417921 1.75081 0
M  V30 2169 H 207.935 0.0994853 0.74539 0
M  V30 2170 H 209.906 1.22406 2.72138 0
M  V30 2171 C 208.655 -0.393159 3.4547 0
M  V30 2172 H 207.978 0.290332 3.98744 0
M  V30 2173 H 209.418 -0.731189 4.17648 0
M  V30 2174 C 207.877 -1.59539 2.9673 0
M  V30 2175 O 208.407 -2.69469 2.97908 0
M  V30 2176 N 206.613 -1.43716 2.52575 0
M  V30 2177 H 206.16 -0.542828 2.51816 0
M  V30 2178 H 206.118 -2.24288 2.20323 0
M  V30 2179 N 209.89 -1.43072 0.660911 0
M  V30 2180 C 210.8 -2.34585 -0.0264163 0
M  V30 2181 C 211.816 -1.54316 -0.803898 0
M  V30 2182 O 212.992 -1.86939 -0.749391 0
M  V30 2183 C 210.057 -3.32689 -0.975639 0
M  V30 2184 C 209.118 -4.2886 -0.194236 0
M  V30 2185 C 208.351 -5.22278 -1.09825 0
M  V30 2186 O 208.574 -5.20299 -2.33763 0
M  V30 2187 O 207.508 -5.99228 -0.566513 0
M  V30 2188 H 211.334 -2.94869 0.727034 0
M  V30 2189 H 208.919 -1.43342 0.42111 0
M  V30 2190 H 210.801 -3.92995 -1.52094 0
M  V30 2191 H 209.476 -2.74898 -1.70918 0
M  V30 2192 H 208.383 -3.72011 0.394835 0
M  V30 2193 H 209.716 -4.89655 0.499899 0
M  V30 2194 N 211.368 -0.403325 -1.52352 0
M  V30 2195 C 212.645 0.232611 -1.94212 0
M  V30 2196 C 213.025 1.63133 -1.33981 0
M  V30 2197 O 212.373 2.22659 -0.513344 0
M  V30 2198 C 212.583 0.244811 -3.4814 0
M  V30 2199 C 213.931 0.46698 -4.22024 0
M  V30 2200 O 214.955 0.324419 -3.5472 0
M  V30 2201 O 213.814 0.74747 -5.41364 0
M  V30 2202 H 210.908 0.148223 -0.813609 0
M  V30 2203 H 213.454 -0.458848 -1.63379 0
M  V30 2204 H 212.226 -0.734378 -3.84347 0
M  V30 2205 H 211.849 0.980611 -3.85318 0
M  V30 2206 N 212.846 1.57033 -0.133567 0
M  V30 2207 C 214.092 1.95976 0.521649 0
M  V30 2208 C 214.425 1.01779 1.65393 0
M  V30 2209 O 213.7 0.0576581 1.94415 0
M  V30 2210 C 213.983 3.44738 1.04057 0
M  V30 2211 C 213.836 4.49711 -0.0892897 0
M  V30 2212 C 215.155 3.95682 1.92675 0
M  V30 2213 H 212.274 0.712579 0.188149 0
M  V30 2214 H 214.916 1.88813 -0.212076 0
M  V30 2215 H 213.066 3.50973 1.66583 0
M  V30 2216 H 214.738 4.55565 -0.725152 0
M  V30 2217 H 212.981 4.27261 -0.750378 0
M  V30 2218 H 213.652 5.51099 0.315284 0
M  V30 2219 H 216.128 3.91841 1.39998 0
M  V30 2220 H 215.004 5.00262 2.25897 0
M  V30 2221 H 215.265 3.37239 2.85872 0
M  V30 2222 N 214.325 -0.140222 1.56975 0
M  V30 2223 C 215.55 -0.870414 1.88251 0
M  V30 2224 C 215.975 -1.73637 0.723312 0
M  V30 2225 O 215.333 -1.78329 -0.32689 0
M  V30 2226 C 215.381 -1.69737 3.18154 0
M  V30 2227 O 214.485 -2.80229 3.02565 0
M  V30 2228 H 213.826 -0.242025 0.61832 0
M  V30 2229 H 216.356 -0.128999 2.04193 0
M  V30 2230 H 216.366 -2.09099 3.50345 0
M  V30 2231 H 215.041 -1.06152 4.02125 0
M  V30 2232 H 213.618 -2.44224 2.81796 0
M  V30 2233 N 215.803 -1.52179 -0.40978 0
M  V30 2234 C 216.733 -1.78435 -1.5061 0
M  V30 2235 C 217.714 -0.635295 -1.57791 0
M  V30 2236 O 218.899 -0.880823 -1.73076 0
M  V30 2237 C 216.029 -1.93444 -2.88439 0
M  V30 2238 C 214.983 -3.09038 -2.96108 0
M  V30 2239 C 214.309 -3.09268 -4.36185 0
M  V30 2240 C 215.609 -4.48508 -2.67652 0
M  V30 2241 H 217.303 -2.70237 -1.28889 0
M  V30 2242 H 214.849 -1.30036 -0.618605 0
M  V30 2243 H 216.802 -2.10394 -3.65119 0
M  V30 2244 H 215.526 -0.983129 -3.11452 0
M  V30 2245 H 214.185 -2.91837 -2.21872 0
M  V30 2246 H 213.833 -2.11861 -4.56206 0
M  V30 2247 H 213.533 -3.86907 -4.42241 0
M  V30 2248 H 215.057 -3.28348 -5.14801 0
M  V30 2249 H 216.471 -4.65918 -3.34056 0
M  V30 2250 H 214.868 -5.28059 -2.85085 0
M  V30 2251 H 215.938 -4.56649 -1.63095 0
M  V30 2252 N 217.281 0.66697 -1.42791 0
M  V30 2253 C 218.244 1.76211 -1.46568 0
M  V30 2254 C 219.244 1.56896 -0.352196 0
M  V30 2255 O 220.434 1.63044 -0.613364 0
M  V30 2256 C 217.566 3.14935 -1.30494 0
M  V30 2257 H 218.759 1.74247 -2.44086 0
M  V30 2258 H 216.312 0.877342 -1.29354 0
M  V30 2259 H 217.047 3.2252 -0.339301 0
M  V30 2260 H 216.832 3.30359 -2.11199 0
M  V30 2261 H 218.322 3.94821 -1.36038 0
M  V30 2262 N 218.759 1.29093 0.90403 0
M  V30 2263 C 220.005 1.16986 1.65656 0
M  V30 2264 C 220.338 -0.278925 1.92186 0
M  V30 2265 O 219.613 -1.2019 1.5292 0
M  V30 2266 C 219.896 1.97908 3.0084 0
M  V30 2267 C 219.749 3.50903 2.81403 0
M  V30 2268 C 221.068 1.80208 4.01513 0
M  V30 2269 H 218.187 0.426346 0.601164 0
M  V30 2270 H 220.829 1.58518 1.04747 0
M  V30 2271 H 218.979 1.62616 3.52829 0
M  V30 2272 H 220.651 3.96153 2.36348 0
M  V30 2273 H 218.894 3.76045 2.1627 0
M  V30 2274 H 219.565 4.02791 3.77443 0
M  V30 2275 H 222.041 2.11025 3.58619 0
M  V30 2276 H 220.917 2.39184 4.94047 0
M  V30 2277 H 221.178 0.756119 4.35586 0
M  V30 2278 N 220.237 -1.11381 1.11499 0
M  V30 2279 C 221.462 -1.87475 0.887019 0
M  V30 2280 C 221.887 -1.79639 -0.557796 0
M  V30 2281 O 221.245 -1.15924 -1.39396 0
M  V30 2282 C 221.293 -3.34213 1.35403 0
M  V30 2283 O 220.397 -4.0903 0.526146 0
M  V30 2284 H 219.738 -0.582099 0.319463 0
M  V30 2285 H 222.268 -1.40785 1.48461 0
M  V30 2286 H 222.278 -3.8506 1.34881 0
M  V30 2287 H 220.953 -3.39232 2.40612 0
M  V30 2288 H 219.53 -3.68082 0.597522 0
M  V30 2289 N 221.715 -0.905404 -1.28997 0
M  V30 2290 C 223.131 -0.60233 -1.47798 0
M  V30 2291 C 223.331 0.854645 -1.82478 0
M  V30 2292 O 222.387 1.63439 -1.92468 0
M  V30 2293 C 223.7 -1.53306 -2.58685 0
M  V30 2294 C 225.248 -1.53887 -2.72558 0
M  V30 2295 C 225.723 -2.45602 -3.86579 0
M  V30 2296 N 227.214 -2.43681 -3.93921 0
M  V30 2297 C 227.949 -3.11347 -4.81509 0
M  V30 2298 N 227.445 -3.88313 -5.73746 0
M  V30 2299 N 229.238 -3.00476 -4.75048 0
M  V30 2300 H 221.389 -1.84765 -1.04764 0
M  V30 2301 H 223.652 -0.792025 -0.520961 0
M  V30 2302 H 223.358 -2.57141 -2.39941 0
M  V30 2303 H 223.232 -1.25787 -3.55609 0
M  V30 2304 H 225.619 -0.507941 -2.90696 0
M  V30 2305 H 225.7 -1.85447 -1.76191 0
M  V30 2306 H 225.344 -3.48792 -3.69197 0
M  V30 2307 H 225.274 -2.11349 -4.82327 0
M  V30 2308 H 227.765 -1.87767 -3.27951 0
M  V30 2309 H 228.078 -4.36985 -6.37389 0
M  V30 2310 H 226.423 -3.92419 -5.73614 0
M  V30 2311 H 229.614 -2.39858 -4.01977 0
M  V30 2312 H 229.787 -3.53485 -5.43095 0
M  V30 2313 N 223.193 1.4272 -0.668489 0
M  V30 2314 C 224.442 2.00846 -0.185389 0
M  V30 2315 C 224.755 1.53442 1.21305 0
M  V30 2316 O 225.961 2.03944 1.79218 0
M  V30 2317 C 224.417 3.58805 -0.280591 0
M  V30 2318 C 224.025 4.15198 -1.68268 0
M  V30 2319 C 225.769 4.24255 0.14412 0
M  V30 2320 C 223.676 5.655 -1.73099 0
M  V30 2321 H 222.606 0.751145 -0.0655475 0
M  V30 2322 H 225.257 1.63516 -0.832752 0
M  V30 2323 H 223.639 3.93608 0.434553 0
M  V30 2324 H 224.813 3.91866 -2.42441 0
M  V30 2325 H 223.128 3.62176 -2.05469 0
M  V30 2326 H 225.725 5.34547 0.128086 0
M  V30 2327 H 226.068 3.99277 1.17827 0
M  V30 2328 H 226.601 3.94389 -0.519798 0
M  V30 2329 H 223.34 5.95268 -2.74475 0
M  V30 2330 H 222.86 5.90842 -1.03274 0
M  V30 2331 H 224.539 6.29808 -1.48158 0
M  V30 2332 N 224.671 0.411399 1.52136 0
M  V30 2333 C 225.601 -0.404015 2.29978 0
M  V30 2334 C 226.582 -1.04412 1.34284 0
M  V30 2335 O 227.767 -1.0527 1.63192 0
M  V30 2336 C 224.897 -1.5197 3.12286 0
M  V30 2337 C 223.851 -1.00448 4.16046 0
M  V30 2338 C 223.177 -2.21393 4.86712 0
M  V30 2339 C 224.477 -0.0569336 5.22269 0
M  V30 2340 H 226.171 0.245529 2.98392 0
M  V30 2341 H 223.717 0.119525 1.43503 0
M  V30 2342 H 225.67 -2.09715 3.6551 0
M  V30 2343 H 224.394 -2.19716 2.41646 0
M  V30 2344 H 223.053 -0.449421 3.63835 0
M  V30 2345 H 222.701 -2.87699 4.12599 0
M  V30 2346 H 222.401 -1.87571 5.56858 0
M  V30 2347 H 223.925 -2.7974 5.4275 0
M  V30 2348 H 225.339 -0.54325 5.7072 0
M  V30 2349 H 223.736 0.192594 5.99791 0
M  V30 2350 H 224.806 0.887663 4.76706 0
M  V30 2351 N 226.149 -1.5696 0.141893 0
M  V30 2352 C 227.096 -2.16501 -0.799737 0
M  V30 2353 C 228.066 -1.09643 -1.24771 0
M  V30 2354 O 229.251 -1.3766 -1.32115 0
M  V30 2355 C 226.391 -2.78679 -2.03549 0
M  V30 2356 C 225.504 -3.99914 -1.6338 0
M  V30 2357 C 224.639 -4.50106 -2.82096 0
M  V30 2358 C 223.678 -5.63819 -2.38275 0
M  V30 2359 N 222.815 -6.08651 -3.49983 0
M  V30 2360 H 227.655 -2.96632 -0.285179 0
M  V30 2361 H 225.192 -1.46533 -0.129053 0
M  V30 2362 H 227.15 -3.1287 -2.75986 0
M  V30 2363 H 225.78 -2.012 -2.52425 0
M  V30 2364 H 224.832 -3.71735 -0.807279 0
M  V30 2365 H 226.144 -4.82311 -1.27192 0
M  V30 2366 H 225.298 -4.86325 -3.62729 0
M  V30 2367 H 224.037 -3.66706 -3.21525 0
M  V30 2368 H 223.042 -5.2718 -1.56081 0
M  V30 2369 H 224.267 -6.49 -1.99938 0
M  V30 2370 H 222.213 -5.28188 -3.89042 0
M  V30 2371 H 222.13 -6.85961 -3.17794 0
M  V30 2372 H 223.398 -6.49515 -4.30988 0
M  V30 2373 N 227.627 0.131896 -1.57047 0
M  V30 2374 C 228.852 0.860418 -1.8871 0
M  V30 2375 C 229.277 1.73251 -0.73251 0
M  V30 2376 O 228.635 1.785 0.317429 0
M  V30 2377 C 228.683 1.68047 -3.19049 0
M  V30 2378 O 227.787 2.7862 -3.04047 0
M  V30 2379 H 227.128 0.238743 -0.619595 0
M  V30 2380 H 229.658 0.118169 -2.04258 0
M  V30 2381 H 229.668 2.07238 -3.51449 0
M  V30 2382 H 228.343 1.04018 -4.02682 0
M  V30 2383 H 226.92 2.42726 -2.83088 0
M  V30 2384 N 229.106 1.52395 0.401703 0
M  V30 2385 C 230.353 1.66817 1.14796 0
M  V30 2386 C 230.681 0.401772 1.90305 0
M  V30 2387 O 229.936 -0.615487 1.85769 0
M  V30 2388 C 230.235 2.84578 2.16217 0
M  V30 2389 C 229.901 4.22513 1.5746 0
M  V30 2390 C 228.563 4.60029 1.41161 0
M  V30 2391 C 230.915 5.0844 1.14622 0
M  V30 2392 C 228.243 5.81144 0.80552 0
M  V30 2393 C 230.595 6.30167 0.55428 0
M  V30 2394 C 229.259 6.66426 0.378482 0
M  V30 2395 H 228.529 0.610428 0.420069 0
M  V30 2396 H 231.176 1.86512 0.434212 0
M  V30 2397 H 229.481 2.59248 2.93764 0
M  V30 2398 H 231.178 2.92933 2.73845 0
M  V30 2399 H 227.768 3.92953 1.71132 0
M  V30 2400 H 231.952 4.80034 1.26021 0
M  V30 2401 H 227.208 6.07855 0.657399 0
M  V30 2402 H 231.382 6.96071 0.213983 0
M  V30 2403 H 229.009 7.60143 -0.0932606 0
M  V30 2404 N 230.584 -0.659388 1.43143 0
M  V30 2405 C 231.532 -1.79374 1.4808 0
M  V30 2406 C 232.526 -1.65639 0.354988 0
M  V30 2407 O 233.732 -1.7206 0.528704 0
M  V30 2408 H 230.107 -0.591705 0.4641 0
M  V30 2409 H 232.078 -1.72329 2.43609 0
M  V30 2410 C 230.827 -3.17606 1.41499 0
M  V30 2411 H 230.15 -3.28809 2.27431 0
M  V30 2412 H 231.59 -3.96951 1.49015 0
M  V30 2413 C 230.049 -3.36642 0.131765 0
M  V30 2414 O 230.579 -3.93461 -0.809386 0
M  V30 2415 N 228.785 -2.90567 0.0439396 0
M  V30 2416 H 228.332 -2.44513 0.810619 0
M  V30 2417 H 228.29 -3.03681 -0.813969 0
M  V30 2418 N 232.062 -1.29571 -0.897171 0
M  V30 2419 C 233.292 -1.20408 -1.67886 0
M  V30 2420 C 233.7 0.237429 -1.87704 0
M  V30 2421 O 233.043 1.17048 -1.41582 0
M  V30 2422 C 233.105 -1.84887 -3.08314 0
M  V30 2423 C 232.769 -3.34189 -3.11716 0
M  V30 2424 C 233.766 -4.30374 -2.91675 0
M  V30 2425 C 231.451 -3.75431 -3.33701 0
M  V30 2426 C 233.445 -5.65776 -2.93557 0
M  V30 2427 C 231.132 -5.10955 -3.35214 0
M  V30 2428 C 232.13 -6.05938 -3.15164 0
M  V30 2429 O 231.818 -7.38987 -3.1647 0
M  V30 2430 H 231.55 -0.418289 -0.531046 0
M  V30 2431 H 234.104 -1.71514 -1.13014 0
M  V30 2432 H 232.334 -1.28295 -3.64798 0
M  V30 2433 H 234.023 -1.70011 -3.6858 0
M  V30 2434 H 234.789 -3.99844 -2.74499 0
M  V30 2435 H 230.668 -3.01953 -3.48347 0
M  V30 2436 H 234.212 -6.39889 -2.77826 0
M  V30 2437 H 230.109 -5.4113 -3.51922 0
M  V30 2438 H 230.877 -7.47823 -3.3272 0
M  V30 2439 N 233.54 1.10788 -1.12088 0
M  V30 2440 C 234.951 1.64181 -0.88891 0
M  V30 2441 C 235.302 1.87508 0.577498 0
M  V30 2442 O 234.427 1.61434 1.44112 0
M  V30 2443 C 235.022 2.98257 -1.60712 0
M  V30 2444 C 233.581 3.4853 -1.42139 0
M  V30 2445 C 232.728 2.23208 -1.6454 0
M  V30 2446 H 235.679 0.943368 -1.27618 0
M  V30 2447 H 235.7 3.65552 -1.05604 0
M  V30 2448 H 235.212 2.81246 -2.67436 0
M  V30 2449 H 233.313 3.70692 -0.376552 0
M  V30 2450 H 233.426 4.26882 -2.17505 0
M  V30 2451 H 231.79 2.31169 -1.06925 0
M  V30 2452 H 232.573 2.08733 -2.72554 0
M  V30 2453 N 235.018 0.912232 1.28515 0
M  V30 2454 C 236.243 0.559774 1.99703 0
M  V30 2455 C 236.668 -0.851393 1.67729 0
M  V30 2456 O 236.026 -1.56875 0.908834 0
M  V30 2457 C 236.074 0.773874 3.52198 0
M  V30 2458 O 235.178 -0.167842 4.12058 0
M  V30 2459 H 234.519 0.21723 0.627461 0
M  V30 2460 H 237.049 1.22725 1.63706 0
M  V30 2461 H 237.059 0.683386 4.02236 0
M  V30 2462 H 235.734 1.80261 3.74805 0
M  V30 2463 H 234.311 -0.0287509 3.72889 0
M  V30 2464 N 236.496 -1.42363 0.676048 0
M  V30 2465 C 237.459 -2.29199 0.00766941 0
M  V30 2466 C 238.459 -1.43389 -0.727745 0
M  V30 2467 O 239.649 -1.64764 -0.56556 0
M  V30 2468 C 236.781 -3.2591 -0.999785 0
M  V30 2469 H 237.974 -2.89794 0.771988 0
M  V30 2470 H 235.527 -1.50024 0.438468 0
M  V30 2471 H 236.262 -2.70256 -1.79255 0
M  V30 2472 H 236.047 -3.89202 -0.475829 0
M  V30 2473 H 237.537 -3.91028 -1.46583 0
M  V30 2474 N 237.974 -0.419461 -1.51915 0
M  V30 2475 C 239.199 0.154572 -2.06823 0
M  V30 2476 C 239.624 1.3722 -1.28656 0
M  V30 2477 O 238.982 1.78461 -0.319583 0
M  V30 2478 C 239.03 0.473172 -3.57482 0
M  V30 2479 O 238.134 1.56255 -3.81652 0
M  V30 2480 H 237.475 0.0096924 -0.663929 0
M  V30 2481 H 240.005 -0.595642 -1.95738 0
M  V30 2482 H 240.015 0.728825 -4.01438 0
M  V30 2483 H 238.69 -0.416873 -4.13805 0
M  V30 2484 H 237.267 1.29825 -3.49571 0
M  V30 2485 N 239.452 1.56882 -0.150215 0
M  V30 2486 C 240.382 2.19935 0.784284 0
M  V30 2487 C 241.363 1.14854 1.25469 0
M  V30 2488 O 242.548 1.43209 1.31168 0
M  V30 2489 C 239.678 2.82349 2.02229 0
M  V30 2490 C 238.632 3.93285 1.68853 0
M  V30 2491 C 237.958 4.42649 2.99944 0
M  V30 2492 C 239.258 5.13904 0.932714 0
M  V30 2493 H 240.952 2.9828 0.258781 0
M  V30 2494 H 238.498 1.43473 0.123029 0
M  V30 2495 H 240.451 3.25126 2.68088 0
M  V30 2496 H 239.175 2.0134 2.57157 0
M  V30 2497 H 237.834 3.5113 1.05371 0
M  V30 2498 H 237.482 3.58458 3.52869 0
M  V30 2499 H 237.182 5.17476 2.78374 0
M  V30 2500 H 238.706 4.88099 3.66868 0
M  V30 2501 H 240.12 5.53506 1.49345 0
M  V30 2502 H 238.517 5.94515 0.81684 0
M  V30 2503 H 239.587 4.84842 -0.0749568 0
M  V30 2504 N 240.93 -0.123565 1.57115 0
M  V30 2505 C 242.179 -0.830704 1.83799 0
M  V30 2506 C 242.492 -1.81259 0.735158 0
M  V30 2507 O 243.698 -2.56558 0.888278 0
M  V30 2508 C 242.154 -1.52802 3.25852 0
M  V30 2509 C 241.762 -0.587356 4.44133 0
M  V30 2510 C 243.506 -2.22056 3.61789 0
M  V30 2511 C 241.413 -1.28764 5.77212 0
M  V30 2512 H 240.343 -0.313967 0.685522 0
M  V30 2513 H 242.994 -0.0834359 1.8331 0
M  V30 2514 H 241.376 -2.32175 3.20797 0
M  V30 2515 H 242.55 0.172829 4.60476 0
M  V30 2516 H 240.865 -0.00201892 4.164 0
M  V30 2517 H 243.462 -2.75131 4.58483 0
M  V30 2518 H 243.805 -2.99644 2.88997 0
M  V30 2519 H 244.338 -1.49576 3.68608 0
M  V30 2520 H 241.077 -0.55314 6.53162 0
M  V30 2521 H 240.597 -2.01995 5.64764 0
M  V30 2522 H 242.276 -1.8221 6.20813 0
M  V30 2523 N 242.408 -1.52605 -0.393616 0
M  V30 2524 C 243.648 -1.6911 -1.1481 0
M  V30 2525 C 244.012 -0.41969 -1.87357 0
M  V30 2526 O 245.213 -0.461034 -2.64817 0
M  V30 2527 C 243.484 -2.88909 -2.10395 0
M  V30 2528 S 245.043 -3.25977 -2.93742 0
M  V30 2529 H 241.861 -0.595337 -0.38871 0
M  V30 2530 H 244.463 -1.90641 -0.433178 0
M  V30 2531 H 243.167 -3.79672 -1.55812 0
M  V30 2532 H 242.698 -2.69698 -2.86403 0
M  V30 2533 H 244.713 -2.75806 -4.12487 0
M  V30 2534 N 243.887 0.651787 -1.4349 0
M  V30 2535 C 244.85 1.74647 -1.48429 0
M  V30 2536 C 245.85 1.56513 -0.368817 0
M  V30 2537 O 247.04 1.62385 -0.630623 0
M  V30 2538 C 244.172 3.13533 -1.33827 0
M  V30 2539 H 245.365 1.71649 -2.4592 0
M  V30 2540 H 242.918 0.863573 -1.30277 0
M  V30 2541 H 243.653 3.22142 -0.37349 0
M  V30 2542 H 243.438 3.28101 -2.14691 0
M  V30 2543 H 244.928 3.93356 -1.40218 0
M  V30 2544 N 245.365 1.30045 0.890287 0
M  V30 2545 C 246.312 1.15976 1.99545 0
M  V30 2546 C 247.282 0.0506202 1.66023 0
M  V30 2547 O 248.467 0.219847 1.89529 0
M  V30 2548 C 245.607 0.852054 3.34416 0
M  V30 2549 C 244.72 2.04255 3.80662 0
M  V30 2550 C 243.855 1.6734 5.04154 0
M  V30 2551 C 242.894 2.82916 5.42794 0
M  V30 2552 N 242.031 2.46333 6.57468 0
M  V30 2553 H 246.871 2.10524 2.10911 0
M  V30 2554 H 244.408 1.04749 1.03276 0
M  V30 2555 H 246.366 0.654296 4.12037 0
M  V30 2556 H 244.996 -0.0565502 3.2275 0
M  V30 2557 H 244.048 2.35172 2.98995 0
M  V30 2558 H 245.36 2.90826 4.05242 0
M  V30 2559 H 244.514 1.43908 5.89386 0
M  V30 2560 H 243.253 0.779308 4.81433 0
M  V30 2561 H 242.258 3.0702 4.56091 0
M  V30 2562 H 243.483 3.73004 5.6749 0
M  V30 2563 H 241.429 1.59423 6.36334 0
M  V30 2564 H 241.346 3.26436 6.81891 0
M  V30 2565 H 242.614 2.26244 7.45945 0
M  V30 2566 N 246.843 -1.10192 1.12674 0
M  V30 2567 C 247.806 -2.14786 0.799979 0
M  V30 2568 C 248.806 -1.59711 -0.18685 0
M  V30 2569 O 249.996 -1.74156 0.0392558 0
M  V30 2570 C 247.128 -3.40374 0.189228 0
M  V30 2571 H 248.321 -2.45203 1.72671 0
M  V30 2572 H 245.874 -1.25597 0.930326 0
M  V30 2573 H 246.609 -3.15577 -0.747107 0
M  V30 2574 H 246.394 -3.81637 0.899766 0
M  V30 2575 H 247.884 -4.17594 -0.0228143 0
M  V30 2576 N 248.321 -0.919034 -1.28029 0
M  V30 2577 C 249.231 -0.416756 -2.30869 0
M  V30 2578 C 250.247 0.498235 -1.66714 0
M  V30 2579 O 251.423 0.383144 -1.97722 0
M  V30 2580 C 248.488 0.330274 -3.45123 0
M  V30 2581 C 247.549 -0.618578 -4.2482 0
M  V30 2582 C 246.782 0.0928959 -5.33619 0
M  V30 2583 O 247.005 1.31375 -5.55065 0
M  V30 2584 O 245.939 -0.574499 -5.99152 0
M  V30 2585 H 249.765 -1.27043 -2.75851 0
M  V30 2586 H 247.35 -0.684052 -1.3282 0
M  V30 2587 H 249.232 0.751972 -4.14636 0
M  V30 2588 H 247.907 1.1597 -3.02213 0
M  V30 2589 H 246.814 -1.08978 -3.57875 0
M  V30 2590 H 248.147 -1.41497 -4.71423 0
M  V30 2591 N 249.799 1.42003 -0.683588 0
M  V30 2592 C 251.039 2.03282 -0.213513 0
M  V30 2593 C 251.403 1.52924 1.16097 0
M  V30 2594 O 252.604 2.06048 1.7262 0
M  V30 2595 C 250.875 3.56483 -0.255856 0
M  V30 2596 S 252.434 4.3857 0.14193 0
M  V30 2597 H 249.252 0.705659 -0.0869853 0
M  V30 2598 H 251.854 1.73619 -0.8987 0
M  V30 2599 H 250.558 3.90631 -1.25841 0
M  V30 2600 H 250.089 3.90831 0.448875 0
M  V30 2601 H 252.104 4.76828 1.37295 0
M  V30 2602 N 251.277 0.427512 1.51691 0
M  V30 2603 C 252.207 -0.3796 2.30394 0
M  V30 2604 C 253.188 -1.02982 1.35384 0
M  V30 2605 O 254.373 -1.03534 1.643 0
M  V30 2606 C 251.503 -1.48649 3.1388 0
M  V30 2607 C 250.457 -0.960294 4.17088 0
M  V30 2608 C 249.783 -2.16219 4.89033 0
M  V30 2609 C 251.083 -0.00153679 5.223 0
M  V30 2610 H 252.777 0.277164 2.98114 0
M  V30 2611 H 250.323 0.134739 1.43368 0
M  V30 2612 H 252.276 -2.05826 3.67714 0
M  V30 2613 H 251 -2.1714 2.43962 0
M  V30 2614 H 249.659 -0.410806 3.64291 0
M  V30 2615 H 249.307 -2.83307 4.15628 0
M  V30 2616 H 249.007 -1.81654 5.58816 0
M  V30 2617 H 250.531 -2.73968 5.45687 0
M  V30 2618 H 251.945 -0.482687 5.71264 0
M  V30 2619 H 250.342 0.256199 5.99553 0
M  V30 2620 H 251.412 0.938174 4.75738 0
M  V30 2621 N 252.755 -1.56801 0.158532 0
M  V30 2622 C 253.685 -2.20347 -0.772609 0
M  V30 2623 C 254.666 -1.15518 -1.24859 0
M  V30 2624 O 255.851 -1.43902 -1.30406 0
M  V30 2625 C 252.981 -2.83417 -2.00729 0
M  V30 2626 C 251.935 -3.94174 -1.66765 0
M  V30 2627 C 251.261 -4.44233 -2.97592 0
M  V30 2628 C 252.561 -5.14392 -0.905447 0
M  V30 2629 H 254.255 -2.98413 -0.242959 0
M  V30 2630 H 251.801 -1.43537 -0.115419 0
M  V30 2631 H 253.754 -3.26543 -2.6636 0
M  V30 2632 H 252.478 -2.02701 -2.56086 0
M  V30 2633 H 251.137 -3.51684 -1.03508 0
M  V30 2634 H 250.785 -3.60325 -3.50963 0
M  V30 2635 H 250.485 -5.18945 -2.75626 0
M  V30 2636 H 252.009 -4.90037 -3.64274 0
M  V30 2637 H 253.423 -5.5429 -1.46408 0
M  V30 2638 H 251.82 -5.9494 -0.7853 0
M  V30 2639 H 252.89 -4.84795 0.100668 0
M  V30 2640 N 254.233 0.115231 -1.57178 0
M  V30 2641 C 255.649 0.468877 -1.52557 0
M  V30 2642 C 255.849 1.81649 -0.872125 0
M  V30 2643 O 254.905 2.48347 -0.45606 0
M  V30 2644 C 256.218 0.4499 -2.97315 0
M  V30 2645 C 257.766 0.533185 -3.08425 0
M  V30 2646 C 258.241 0.54456 -4.54751 0
M  V30 2647 N 259.732 0.605892 -4.5922 0
M  V30 2648 C 260.467 0.636203 -5.6986 0
M  V30 2649 N 259.963 0.623931 -6.89985 0
M  V30 2650 N 261.756 0.679496 -5.57978 0
M  V30 2651 H 253.907 -0.767712 -1.9804 0
M  V30 2652 H 256.17 -0.283609 -0.904583 0
M  V30 2653 H 255.876 -0.472721 -3.48509 0
M  V30 2654 H 255.75 1.27632 -3.5495 0
M  V30 2655 H 258.137 1.44623 -2.57232 0
M  V30 2656 H 258.218 -0.320995 -2.53778 0
M  V30 2657 H 257.862 -0.364452 -5.06591 0
M  V30 2658 H 257.792 1.41568 -5.07214 0
M  V30 2659 H 260.283 0.621386 -3.72756 0
M  V30 2660 H 260.596 0.649787 -7.70063 0
M  V30 2661 H 258.941 0.591296 -6.9248 0
M  V30 2662 H 262.132 0.686472 -4.63039 0
M  V30 2663 H 262.305 0.69965 -6.44212 0
M  V30 2664 N 255.711 1.52812 0.385517 0
M  V30 2665 C 256.641 1.80808 1.47752 0
M  V30 2666 C 257.622 0.660318 1.5676 0
M  V30 2667 O 258.807 0.908246 1.71652 0
M  V30 2668 C 255.937 1.98008 2.85324 0
M  V30 2669 C 254.891 3.13709 2.91154 0
M  V30 2670 C 254.217 3.16169 4.31209 0
M  V30 2671 C 255.517 4.52709 2.60483 0
M  V30 2672 H 257.211 2.72253 1.24573 0
M  V30 2673 H 254.757 1.31003 0.597839 0
M  V30 2674 H 256.71 2.16176 3.61726 0
M  V30 2675 H 255.434 1.03255 3.09848 0
M  V30 2676 H 254.093 2.95329 2.17201 0
M  V30 2677 H 253.741 2.19092 4.52778 0
M  V30 2678 H 253.441 3.93894 4.36029 0
M  V30 2679 H 254.965 3.36496 5.09512 0
M  V30 2680 H 256.379 4.71173 3.26602 0
M  V30 2681 H 254.776 5.32528 2.76648 0
M  V30 2682 H 255.846 4.59186 1.55809 0
M  V30 2683 N 257.189 -0.644168 1.43834 0
M  V30 2684 C 258.099 -1.78563 1.52159 0
M  V30 2685 C 259.115 -1.69147 0.408069 0
M  V30 2686 O 260.291 -1.90156 0.663524 0
M  V30 2687 C 257.356 -3.14888 1.45073 0
M  V30 2688 C 256.417 -3.36034 2.6717 0
M  V30 2689 C 255.65 -4.65855 2.60413 0
M  V30 2690 O 255.873 -5.45805 1.65689 0
M  V30 2691 O 254.807 -4.88918 3.5106 0
M  V30 2692 H 258.633 -1.74494 2.48567 0
M  V30 2693 H 256.218 -0.80378 1.25935 0
M  V30 2694 H 258.1 -3.96179 1.43597 0
M  V30 2695 H 256.775 -3.19528 0.518037 0
M  V30 2696 H 255.682 -2.54472 2.74217 0
M  V30 2697 H 257.015 -3.36247 3.59442 0
M  V30 2698 N 258.668 -1.30515 -0.883378 0
M  V30 2699 C 259.578 -1.18959 -2.02203 0
M  V30 2700 C 260.594 -0.109172 -1.73657 0
M  V30 2701 O 261.77 -0.324413 -1.9877 0
M  V30 2702 C 258.835 -0.883871 -3.35244 0
M  V30 2703 C 257.896 -2.04982 -3.77201 0
M  V30 2704 C 257.129 -1.75859 -5.03894 0
M  V30 2705 O 257.352 -0.687276 -5.66244 0
M  V30 2706 O 256.286 -2.61146 -5.42297 0
M  V30 2707 H 260.112 -2.14616 -2.1488 0
M  V30 2708 H 257.697 -1.10124 -1.0096 0
M  V30 2709 H 259.579 -0.728644 -4.15053 0
M  V30 2710 H 258.254 0.0427798 -3.23672 0
M  V30 2711 H 257.161 -2.26038 -2.9809 0
M  V30 2712 H 258.494 -2.95825 -3.93381 0
M  V30 2713 N 260.146 1.09593 -1.13257 0
M  V30 2714 C 261.076 2.18214 -0.830946 0
M  V30 2715 C 262.057 1.68812 0.208966 0
M  V30 2716 O 263.242 1.9408 0.0682666 0
M  V30 2717 C 260.372 3.46051 -0.294296 0
M  V30 2718 C 259.326 4.08778 -1.26826 0
M  V30 2719 C 258.652 5.31419 -0.591449 0
M  V30 2720 C 259.952 4.51476 -2.62615 0
M  V30 2721 H 261.646 2.43703 -1.73923 0
M  V30 2722 H 259.192 1.17128 -0.837675 0
M  V30 2723 H 261.145 4.2134 -0.0709606 0
M  V30 2724 H 259.869 3.20079 0.649366 0
M  V30 2725 H 258.528 3.35505 -1.47756 0
M  V30 2726 H 258.176 5.01727 0.357633 0
M  V30 2727 H 257.876 5.74341 -1.24123 0
M  V30 2728 H 259.4 6.09433 -0.377355 0
M  V30 2729 H 260.814 5.17999 -2.45663 0
M  V30 2730 H 259.211 5.05277 -3.23752 0
M  V30 2731 H 260.281 3.63962 -3.20406 0
M  V30 2732 N 261.624 0.925811 1.2754 0
M  V30 2733 C 262.87 0.566092 1.94739 0
M  V30 2734 C 263.203 -0.890057 1.72603 0
M  V30 2735 O 262.478 -1.63467 1.05399 0
M  V30 2736 C 262.761 0.89054 3.48915 0
M  V30 2737 C 262.614 2.4003 3.80402 0
M  V30 2738 C 263.933 0.395101 4.38323 0
M  V30 2739 H 261.052 0.20714 0.707292 0
M  V30 2740 H 263.694 1.15725 1.50691 0
M  V30 2741 H 261.844 0.387452 3.86563 0
M  V30 2742 H 263.516 2.97494 3.52555 0
M  V30 2743 H 261.759 2.85028 3.2702 0
M  V30 2744 H 262.43 2.57785 4.8811 0
M  V30 2745 H 264.906 0.826241 4.07814 0
M  V30 2746 H 263.782 0.651086 5.45025 0
M  V30 2747 H 264.043 -0.704798 4.36446 0
M  V30 2748 N 263.102 -1.41638 0.69111 0
M  V30 2749 C 264.518 -1.55435 0.362224 0
M  V30 2750 C 264.718 -1.66754 -1.13117 0
M  V30 2751 O 263.774 -1.64348 -1.91692 0
M  V30 2752 C 265.087 -2.79588 1.10684 0
M  V30 2753 C 266.635 -2.9338 1.09075 0
M  V30 2754 C 267.11 -4.20414 1.81703 0
M  V30 2755 N 268.601 -4.27362 1.7865 0
M  V30 2756 C 269.336 -5.24507 2.31689 0
M  V30 2757 N 268.832 -6.27708 2.93179 0
M  V30 2758 N 270.625 -5.16416 2.2197 0
M  V30 2759 H 262.776 -1.32536 1.65976 0
M  V30 2760 H 265.039 -0.639115 0.700168 0
M  V30 2761 H 264.745 -2.77419 2.16175 0
M  V30 2762 H 264.619 -3.70973 0.682545 0
M  V30 2763 H 267.006 -2.95067 0.0441238 0
M  V30 2764 H 267.087 -2.0318 1.55407 0
M  V30 2765 H 266.731 -4.19488 2.86343 0
M  V30 2766 H 266.661 -5.09578 1.32808 0
M  V30 2767 H 269.152 -3.53415 1.33815 0
M  V30 2768 H 269.465 -6.98217 3.31229 0
M  V30 2769 H 267.81 -6.28223 2.97255 0
M  V30 2770 H 271.001 -4.34716 1.73607 0
M  V30 2771 H 271.174 -5.91958 2.63609 0
M  V30 2772 N 264.58 -0.43555 -1.51462 0
M  V30 2773 C 265.828 0.131254 -2.01673 0
M  V30 2774 C 266.149 1.43368 -1.32177 0
M  V30 2775 O 265.419 1.90524 -0.455769 0
M  V30 2776 H 263.999 0.0514954 -0.745223 0
M  V30 2777 H 266.661 -0.577847 -1.86137 0
M  V30 2778 H 265.757 0.308446 -3.10572 0
M  V30 2779 N 266.058 1.56714 -0.166846 0
M  V30 2780 C 267.305 1.96747 0.479252 0
M  V30 2781 C 267.633 1.05263 1.63554 0
M  V30 2782 O 266.888 0.0858098 1.95512 0
M  V30 2783 C 267.187 3.42889 1.00806 0
M  V30 2784 C 266.853 4.50889 -0.0318574 0
M  V30 2785 C 265.515 4.8015 -0.317675 0
M  V30 2786 C 267.867 5.15949 -0.737956 0
M  V30 2787 C 265.195 5.71772 -1.31506 0
M  V30 2788 C 267.547 6.08647 -1.72429 0
M  V30 2789 C 266.211 6.36277 -2.0176 0
M  V30 2790 H 265.481 0.719949 0.175371 0
M  V30 2791 H 268.128 1.89756 -0.257864 0
M  V30 2792 H 266.433 3.4681 1.82291 0
M  V30 2793 H 268.13 3.71203 1.51689 0
M  V30 2794 H 264.72 4.28128 0.201088 0
M  V30 2795 H 268.904 4.93458 -0.530351 0
M  V30 2796 H 264.16 5.91465 -1.54853 0
M  V30 2797 H 268.334 6.58129 -2.27682 0
M  V30 2798 H 265.961 7.07075 -2.79194 0
M  V30 2799 N 267.536 -0.106894 1.57237 0
M  V30 2800 C 268.466 -1.13148 2.04254 0
M  V30 2801 C 269.447 -1.42476 0.929224 0
M  V30 2802 O 270.632 -1.52709 1.19973 0
M  V30 2803 C 267.762 -2.4545 2.45706 0
M  V30 2804 C 266.716 -2.30558 3.60592 0
M  V30 2805 C 266.042 -3.67931 3.87983 0
M  V30 2806 C 267.342 -1.75597 4.91897 0
M  V30 2807 H 269.036 -0.740374 2.90101 0
M  V30 2808 H 266.582 -0.354696 1.39563 0
M  V30 2809 H 268.535 -3.17389 2.77205 0
M  V30 2810 H 267.259 -2.86475 1.56843 0
M  V30 2811 H 265.918 -1.61067 3.29322 0
M  V30 2812 H 265.566 -4.06462 2.96306 0
M  V30 2813 H 265.266 -3.58817 4.65322 0
M  V30 2814 H 266.79 -4.41356 4.21945 0
M  V30 2815 H 268.204 -2.37364 5.21854 0
M  V30 2816 H 266.601 -1.77272 5.73319 0
M  V30 2817 H 267.671 -0.714451 4.79608 0
M  V30 2818 N 269.014 -1.53014 -0.377408 0
M  V30 2819 C 270.263 -1.67845 -1.11853 0
M  V30 2820 C 270.576 -0.430625 -1.90801 0
M  V30 2821 O 271.782 -0.459261 -2.67587 0
M  V30 2822 C 270.238 -2.96668 -2.03756 0
M  V30 2823 C 269.846 -4.28671 -1.30175 0
M  V30 2824 C 271.59 -3.20865 -2.77932 0
M  V30 2825 C 269.497 -5.48591 -2.20911 0
M  V30 2826 H 268.427 -0.625343 -0.421263 0
M  V30 2827 H 271.078 -1.79514 -0.380409 0
M  V30 2828 H 269.46 -2.78773 -2.8125 0
M  V30 2829 H 270.634 -4.57157 -0.578259 0
M  V30 2830 H 268.949 -4.10825 -0.679108 0
M  V30 2831 H 271.546 -4.07642 -3.46024 0
M  V30 2832 H 271.889 -2.36424 -3.4265 0
M  V30 2833 H 272.422 -3.39379 -2.07525 0
M  V30 2834 H 269.161 -6.35474 -1.6079 0
M  V30 2835 H 268.681 -5.244 -2.91144 0
M  V30 2836 H 270.36 -5.8292 -2.80736 0
M  V30 2837 N 270.492 0.636531 -1.44174 0
M  V30 2838 C 271.717 1.42847 -1.50364 0
M  V30 2839 C 272.142 1.87665 -0.127867 0
M  V30 2840 O 271.5 1.58408 0.88185 0
M  V30 2841 C 271.548 2.62854 -2.4686 0
M  V30 2842 O 270.652 3.62501 -1.9664 0
M  V30 2843 H 269.993 0.427642 -0.507955 0
M  V30 2844 H 272.523 0.777422 -1.89255 0
M  V30 2845 H 272.533 3.10465 -2.64718 0
M  V30 2846 H 271.208 2.29578 -3.46795 0
M  V30 2847 H 269.785 3.21735 -1.88523 0
M  V30 2848 N 271.97 1.30982 0.876444 0
M  V30 2849 C 272.917 1.18085 1.98304 0
M  V30 2850 C 273.887 0.0682263 1.6596 0
M  V30 2851 O 275.072 0.239937 1.89285 0
M  V30 2852 C 272.212 0.887475 3.33493 0
M  V30 2853 C 271.325 2.08281 3.78475 0
M  V30 2854 C 270.46 1.72678 5.0235 0
M  V30 2855 C 269.499 2.88657 5.39762 0
M  V30 2856 N 268.636 2.53292 6.54819 0
M  V30 2857 H 273.476 2.1275 2.08666 0
M  V30 2858 H 271.013 1.05839 1.02159 0
M  V30 2859 H 272.971 0.697961 4.1132 0
M  V30 2860 H 271.601 -0.022315 3.22792 0
M  V30 2861 H 270.653 2.3833 2.96484 0
M  V30 2862 H 271.965 2.95108 4.02135 0
M  V30 2863 H 271.119 1.50151 5.87826 0
M  V30 2864 H 269.858 0.830327 4.8058 0
M  V30 2865 H 268.863 3.1184 4.52809 0
M  V30 2866 H 270.088 3.79002 5.63502 0
M  V30 2867 H 268.034 1.66163 6.34607 0
M  V30 2868 H 267.951 3.3365 6.7839 0
M  V30 2869 H 269.219 2.34143 7.43503 0
M  V30 2870 N 273.449 -1.08991 1.13837 0
M  V30 2871 C 274.359 -2.19301 0.833333 0
M  V30 2872 C 275.375 -1.73026 -0.183847 0
M  V30 2873 O 276.551 -2.01395 -0.0138092 0
M  V30 2874 C 273.616 -3.45323 0.308651 0
M  V30 2875 C 272.677 -4.06255 1.38764 0
M  V30 2876 C 271.91 -5.26262 0.887896 0
M  V30 2877 O 272.133 -5.69747 -0.27287 0
M  V30 2878 O 271.067 -5.78435 1.66421 0
M  V30 2879 H 274.893 -2.47854 1.75506 0
M  V30 2880 H 272.478 -1.18012 0.916166 0
M  V30 2881 H 274.36 -4.21394 0.0216739 0
M  V30 2882 H 273.035 -3.18362 -0.585431 0
M  V30 2883 H 271.942 -3.318 1.72799 0
M  V30 2884 H 273.275 -4.37452 2.25602 0
M  V30 2885 N 274.927 -0.932562 -1.27047 0
M  V30 2886 C 276.155 -0.592031 -1.98249 0
M  V30 2887 C 276.57 0.831062 -1.69525 0
M  V30 2888 O 275.927 1.55299 -0.958561 0
M  V30 2889 C 275.978 -0.814279 -3.5221 0
M  V30 2890 O 275.699 -2.18139 -3.7993 0
M  V30 2891 C 277.2 -0.483121 -4.4066 0
M  V30 2892 H 274.42 -0.223896 -0.632544 0
M  V30 2893 H 276.964 -1.25091 -1.61779 0
M  V30 2894 H 275.119 -0.20213 -3.86872 0
M  V30 2895 H 275.533 -2.235 -4.74498 0
M  V30 2896 H 277.007 -0.689298 -5.47679 0
M  V30 2897 H 277.484 0.581546 -4.35333 0
M  V30 2898 H 278.09 -1.07362 -4.11526 0
M  V30 2899 N 276.405 1.4127 -0.698611 0
M  V30 2900 C 277.335 2.33447 -0.049629 0
M  V30 2901 C 278.316 1.51982 0.763898 0
M  V30 2902 O 279.501 1.80509 0.716257 0
M  V30 2903 C 276.631 3.35828 0.885267 0
M  V30 2904 C 275.585 4.27627 0.178613 0
M  V30 2905 C 274.911 5.20406 1.22807 0
M  V30 2906 C 276.211 5.13459 -0.956933 0
M  V30 2907 H 277.905 2.87966 -0.81951 0
M  V30 2908 H 275.451 1.38461 -0.395538 0
M  V30 2909 H 277.404 3.9924 1.34854 0
M  V30 2910 H 276.128 2.79666 1.68685 0
M  V30 2911 H 274.787 3.65643 -0.26466 0
M  V30 2912 H 274.435 4.60558 2.02226 0
M  V30 2913 H 274.135 5.82661 0.760239 0
M  V30 2914 H 275.659 5.86695 1.69179 0
M  V30 2915 H 277.073 5.70421 -0.573805 0
M  V30 2916 H 275.47 5.8467 -1.35205 0
M  V30 2917 H 276.54 4.50443 -1.79524 0
M  V30 2918 N 277.883 0.443576 1.51229 0
M  V30 2919 C 279.108 -0.121648 2.07043 0
M  V30 2920 C 279.533 -1.35156 1.30823 0
M  V30 2921 O 278.891 -1.7793 0.347934 0
M  V30 2922 C 278.939 -0.41624 3.5819 0
M  V30 2923 O 278.043 -1.50163 3.8409 0
M  V30 2924 H 277.384 0.000871367 0.663999 0
M  V30 2925 H 279.914 0.626706 1.94765 0
M  V30 2926 H 279.924 -0.664867 4.02546 0
M  V30 2927 H 278.599 0.482653 4.1309 0
M  V30 2928 H 277.176 -1.24248 3.51592 0
M  V30 2929 N 279.361 -1.56624 0.175154 0
M  V30 2930 C 280.607 -1.9729 -0.469506 0
M  V30 2931 C 280.94 -1.06128 -1.62636 0
M  V30 2932 O 280.215 -0.109183 -1.94193 0
M  V30 2933 C 280.498 -3.47375 -0.948804 0
M  V30 2934 C 280.351 -4.49317 0.208491 0
M  V30 2935 C 281.67 -4.00652 -1.82116 0
M  V30 2936 H 278.789 -0.717317 -0.16919 0
M  V30 2937 H 281.431 -1.88184 0.262062 0
M  V30 2938 H 279.581 -3.55267 -1.57219 0
M  V30 2939 H 281.253 -4.53482 0.845682 0
M  V30 2940 H 279.496 -4.25121 0.863395 0
M  V30 2941 H 280.167 -5.51741 -0.169059 0
M  V30 2942 H 282.643 -3.95416 -1.2956 0
M  V30 2943 H 281.519 -5.06075 -2.12554 0
M  V30 2944 H 281.78 -3.44699 -2.7683 0
M  V30 2945 N 280.839 0.0985539 -1.57292 0
M  V30 2946 C 282.255 0.45267 -1.53046 0
M  V30 2947 C 282.455 1.80713 -0.891342 0
M  V30 2948 O 281.511 2.4785 -0.482375 0
M  V30 2949 C 282.824 0.418341 -2.97776 0
M  V30 2950 C 284.372 0.500443 -3.08973 0
M  V30 2951 C 284.847 0.496297 -4.55303 0
M  V30 2952 N 286.338 0.557151 -4.59837 0
M  V30 2953 C 287.073 0.575726 -5.70502 0
M  V30 2954 N 286.569 0.550714 -6.90608 0
M  V30 2955 N 288.362 0.620277 -5.58667 0
M  V30 2956 H 280.513 -0.788673 -1.97215 0
M  V30 2957 H 282.776 -0.293188 -0.901524 0
M  V30 2958 H 282.482 -0.509659 -3.47988 0
M  V30 2959 H 282.356 1.2386 -3.56284 0
M  V30 2960 H 284.743 1.41886 -2.58751 0
M  V30 2961 H 284.824 -0.347894 -2.53423 0
M  V30 2962 H 284.468 -0.418162 -5.06176 0
M  V30 2963 H 284.398 1.3618 -5.08687 0
M  V30 2964 H 286.889 0.581816 -3.73394 0
M  V30 2965 H 287.202 0.568075 -7.70709 0
M  V30 2966 H 285.547 0.517816 -6.93068 0
M  V30 2967 H 288.738 0.637322 -4.63741 0
M  V30 2968 H 288.911 0.631283 -6.44918 0
M  V30 2969 N 282.317 1.53212 0.369288 0
M  V30 2970 C 283.25 1.74166 1.4745 0
M  V30 2971 C 284.228 0.589923 1.51521 0
M  V30 2972 O 285.412 0.822078 1.69629 0
M  V30 2973 C 282.539 1.81711 2.8583 0
M  V30 2974 C 281.585 3.03649 2.99499 0
M  V30 2975 S 282.418 4.63242 2.6864 0
M  V30 2976 C 283.574 4.7363 4.09177 0
M  V30 2977 H 283.807 2.67636 1.29454 0
M  V30 2978 H 281.34 1.43754 0.563396 0
M  V30 2979 H 283.298 1.86743 3.65564 0
M  V30 2980 H 281.959 0.89299 3.01139 0
M  V30 2981 H 281.152 3.05526 4.00836 0
M  V30 2982 H 280.754 2.9671 2.27683 0
M  V30 2983 H 283.046 4.53456 5.03372 0
M  V30 2984 H 283.989 5.75682 4.12306 0
M  V30 2985 H 284.397 4.02295 3.96004 0
M  V30 2986 N 283.795 -0.628877 1.44509 0
M  V30 2987 C 284.725 -1.75187 1.54376 0
M  V30 2988 C 285.706 -1.65411 0.396618 0
M  V30 2989 O 286.891 -1.84137 0.617031 0
M  V30 2990 C 284.021 -3.13725 1.48976 0
M  V30 2991 C 282.975 -3.38291 2.62189 0
M  V30 2992 C 282.301 -4.76883 2.41841 0
M  V30 2993 C 283.601 -3.30632 4.04326 0
M  V30 2994 H 285.295 -1.67187 2.48373 0
M  V30 2995 H 282.841 -0.802909 1.19538 0
M  V30 2996 H 284.794 -3.92064 1.54478 0
M  V30 2997 H 283.518 -3.22515 0.514961 0
M  V30 2998 H 282.177 -2.62334 2.56079 0
M  V30 2999 H 281.825 -4.82378 1.42548 0
M  V30 3000 H 281.525 -4.94278 3.17747 0
M  V30 3001 H 283.049 -5.57449 2.49165 0
M  V30 3002 H 284.463 -3.98873 4.11793 0
M  V30 3003 H 282.86 -3.59561 4.80454 0
M  V30 3004 H 283.93 -2.28404 4.27738 0
M  V30 3005 N 285.273 -1.31445 -0.869486 0
M  V30 3006 C 286.55 -1.11795 -1.60503 0
M  V30 3007 C 286.93 0.327168 -2.08549 0
M  V30 3008 O 286.278 1.32135 -1.8642 0
M  V30 3009 C 286.488 -2.13258 -2.76265 0
M  V30 3010 C 287.836 -2.45805 -3.46215 0
M  V30 3011 O 288.86 -2.11688 -2.86473 0
M  V30 3012 O 287.719 -3.04228 -4.5399 0
M  V30 3013 H 284.813 -0.430421 -0.706163 0
M  V30 3014 H 287.359 -1.42925 -0.914907 0
M  V30 3015 H 286.131 -3.10461 -2.3818 0
M  V30 3016 H 285.754 -1.83035 -3.52964 0
M  V30 3017 N 286.751 1.08385 -1.14413 0
M  V30 3018 C 288.028 1.77429 -0.823297 0
M  V30 3019 C 288.408 1.9974 0.683163 0
M  V30 3020 O 287.756 1.60739 1.62405 0
M  V30 3021 C 287.966 3.09004 -1.62227 0
M  V30 3022 C 289.314 3.83532 -1.82177 0
M  V30 3023 O 290.338 3.18786 -1.58915 0
M  V30 3024 O 289.197 4.99792 -2.21067 0
M  V30 3025 H 286.291 0.769999 -0.301712 0
M  V30 3026 H 288.837 1.14846 -1.24934 0
M  V30 3027 H 287.609 2.88316 -2.64555 0
M  V30 3028 H 287.232 3.79316 -1.19187 0
M  V30 3029 N 288.23 0.939286 1.26551 0
M  V30 3030 C 289.455 0.602008 1.98471 0
M  V30 3031 C 289.88 -0.815624 1.69497 0
M  V30 3032 O 289.238 -1.54912 0.941905 0
M  V30 3033 C 289.286 0.848407 3.50477 0
M  V30 3034 O 288.39 -0.0804009 4.12322 0
M  V30 3035 H 287.731 0.23049 0.622712 0
M  V30 3036 H 290.261 1.2617 1.61066 0
M  V30 3037 H 290.271 0.768553 4.00696 0
M  V30 3038 H 288.946 1.88171 3.70897 0
M  V30 3039 H 287.523 0.0503508 3.72866 0
M  V30 3040 N 289.708 -1.40897 0.706093 0
M  V30 3041 C 291.124 -1.55042 0.37869 0
M  V30 3042 C 291.324 -1.67944 -1.11342 0
M  V30 3043 O 290.38 -1.66372 -1.89938 0
M  V30 3044 C 291.693 -2.78398 1.13643 0
M  V30 3045 C 293.241 -2.92206 1.12181 0
M  V30 3046 C 293.716 -4.18463 1.86152 0
M  V30 3047 N 295.207 -4.25443 1.83173 0
M  V30 3048 C 295.942 -5.2202 2.37239 0
M  V30 3049 N 295.438 -6.24563 2.99821 0
M  V30 3050 N 297.231 -5.14033 2.27435 0
M  V30 3051 H 289.382 -1.30769 1.67372 0
M  V30 3052 H 291.645 -0.631653 0.706907 0
M  V30 3053 H 291.351 -2.7511 2.19106 0
M  V30 3054 H 291.225 -3.70228 0.721853 0
M  V30 3055 H 293.612 -2.95004 0.0754171 0
M  V30 3056 H 293.693 -2.01521 1.57554 0
M  V30 3057 H 293.337 -4.16427 2.90776 0
M  V30 3058 H 293.267 -5.08141 1.38206 0
M  V30 3059 H 295.758 -3.51976 1.37556 0
M  V30 3060 H 296.071 -6.94665 3.38616 0
M  V30 3061 H 294.416 -6.25035 3.03902 0
M  V30 3062 H 297.607 -4.3285 1.78208 0
M  V30 3063 H 297.78 -5.89129 2.69873 0
M  V30 3064 N 291.186 -0.45159 -1.50991 0
M  V30 3065 C 292.463 0.170707 -1.94854 0
M  V30 3066 C 292.843 1.58788 -1.39103 0
M  V30 3067 O 292.191 2.20913 -0.583921 0
M  V30 3068 C 292.401 0.133929 -3.48743 0
M  V30 3069 C 293.749 0.33248 -4.23296 0
M  V30 3070 O 294.773 0.211403 -3.55572 0
M  V30 3071 O 293.632 0.57486 -5.43468 0
M  V30 3072 H 290.726 0.122264 -0.817912 0
M  V30 3073 H 293.272 -0.510594 -1.61836 0
M  V30 3074 H 292.044 -0.856283 -3.81816 0
M  V30 3075 H 291.667 0.857529 -3.88242 0
M  V30 3076 N 292.664 1.56529 -0.183458 0
M  V30 3077 C 294.075 1.83739 0.331177 0
M  V30 3078 C 294.426 1.10373 1.62211 0
M  V30 3079 O 293.551 0.36071 2.13373 0
M  V30 3080 C 294.146 3.33306 0.607646 0
M  V30 3081 C 292.705 3.60969 1.06668 0
M  V30 3082 C 291.852 2.77086 0.109029 0
M  V30 3083 H 294.803 1.53379 -0.407484 0
M  V30 3084 H 294.824 3.51444 1.45832 0
M  V30 3085 H 294.336 3.86677 -0.332086 0
M  V30 3086 H 292.437 3.13021 2.0211 0
M  V30 3087 H 292.55 4.69231 0.967447 0
M  V30 3088 H 290.914 2.47319 0.608714 0
M  V30 3089 H 291.697 3.33241 -0.82494 0
M  V30 3090 N 294.142 -0.090211 1.57342 0
M  V30 3091 C 295.37 -0.806224 1.90546 0
M  V30 3092 C 295.785 -1.72041 0.777644 0
M  V30 3093 O 295.142 -1.80778 -0.250103 0
M  V30 3094 C 295.193 -1.61546 3.23396 0
M  V30 3095 O 294.914 -0.738043 4.31839 0
M  V30 3096 C 296.415 -2.4341 3.70495 0
M  V30 3097 H 293.635 -0.230256 0.630257 0
M  V30 3098 H 296.179 -0.0659843 2.04394 0
M  V30 3099 H 294.334 -2.30816 3.11131 0
M  V30 3100 H 294.748 -1.29901 5.08159 0
M  V30 3101 H 296.222 -2.95676 4.66133 0
M  V30 3102 H 296.699 -3.22098 2.98579 0
M  V30 3103 H 297.305 -1.79331 3.85643 0
M  V30 3104 N 295.62 -1.53406 -0.361157 0
M  V30 3105 C 297.031 -1.61442 -0.937728 0
M  V30 3106 C 297.382 -0.48461 -1.90121 0
M  V30 3107 O 296.507 0.388312 -2.12888 0
M  V30 3108 C 297.102 -2.92624 -1.70753 0
M  V30 3109 C 295.661 -3.02981 -2.23337 0
M  V30 3110 C 294.808 -2.5677 -1.04712 0
M  V30 3111 H 297.759 -1.58083 -0.139816 0
M  V30 3112 H 297.78 -2.80675 -2.56908 0
M  V30 3113 H 297.292 -3.74834 -1.00604 0
M  V30 3114 H 295.393 -2.25368 -2.96715 0
M  V30 3115 H 295.506 -4.0814 -2.50916 0
M  V30 3116 H 293.87 -2.11752 -1.41539 0
M  V30 3117 H 294.653 -3.41402 -0.360539 0
M  V30 3118 N 297.098 0.621204 -1.44841 0
M  V30 3119 C 298.028 1.74366 -1.55303 0
M  V30 3120 C 299.009 1.65199 -0.405385 0
M  V30 3121 O 300.194 1.83807 -0.626787 0
M  V30 3122 C 297.324 3.12931 -1.50637 0
M  V30 3123 C 296.278 3.36896 -2.63979 0
M  V30 3124 C 295.604 4.75594 -2.44366 0
M  V30 3125 C 296.904 3.28483 -4.06074 0
M  V30 3126 H 298.598 1.65867 -2.49256 0
M  V30 3127 H 296.144 0.796558 -1.19962 0
M  V30 3128 H 298.097 3.9124 -1.56555 0
M  V30 3129 H 296.821 3.22237 -0.532057 0
M  V30 3130 H 295.48 2.60972 -2.57467 0
M  V30 3131 H 295.128 4.81616 -1.45105 0
M  V30 3132 H 294.828 4.92586 -3.20364 0
M  V30 3133 H 296.352 5.5612 -2.52117 0
M  V30 3134 H 297.766 3.96684 -4.13902 0
M  V30 3135 H 296.163 3.57008 -4.82354 0
M  V30 3136 H 297.233 2.26133 -4.28943 0
M  V30 3137 N 298.576 1.31904 0.862503 0
M  V30 3138 C 299.506 1.22782 1.98612 0
M  V30 3139 C 300.487 0.113362 1.69722 0
M  V30 3140 O 301.672 0.299218 1.91881 0
M  V30 3141 C 298.802 0.942058 3.34279 0
M  V30 3142 C 297.756 2.0169 3.77499 0
M  V30 3143 C 297.082 1.58369 5.10709 0
M  V30 3144 C 298.382 3.43096 3.93805 0
M  V30 3145 H 300.076 2.16788 2.06502 0
M  V30 3146 H 297.622 1.04366 0.992154 0
M  V30 3147 H 299.575 0.864818 4.1243 0
M  V30 3148 H 298.299 -0.0336603 3.26583 0
M  V30 3149 H 296.958 2.08416 3.01593 0
M  V30 3150 H 296.606 0.595628 4.99461 0
M  V30 3151 H 296.306 2.30279 5.40597 0
M  V30 3152 H 297.83 1.52067 5.91361 0
M  V30 3153 H 299.244 3.39003 4.62331 0
M  V30 3154 H 297.641 4.13288 4.35101 0
M  V30 3155 H 298.711 3.83334 2.96957 0
M  V30 3156 N 300.054 -1.07777 1.14986 0
M  V30 3157 C 301.001 -2.14867 0.842672 0
M  V30 3158 C 301.971 -1.6486 -0.202552 0
M  V30 3159 O 303.156 -1.90668 -0.0710568 0
M  V30 3160 C 300.296 -3.43486 0.333363 0
M  V30 3161 C 299.409 -4.07306 1.43965 0
M  V30 3162 C 298.544 -5.23744 0.886914 0
M  V30 3163 C 297.583 -5.79517 1.97043 0
M  V30 3164 N 296.72 -6.87291 1.4344 0
M  V30 3165 H 301.56 -2.40485 1.75986 0
M  V30 3166 H 299.097 -1.1801 0.878179 0
M  V30 3167 H 301.055 -4.17195 0.0198163 0
M  V30 3168 H 299.685 -3.18133 -0.546916 0
M  V30 3169 H 298.737 -3.31293 1.86946 0
M  V30 3170 H 300.049 -4.44771 2.25788 0
M  V30 3171 H 299.203 -6.04419 0.525651 0
M  V30 3172 H 297.942 -4.87685 0.0377957 0
M  V30 3173 H 296.947 -4.97491 2.34057 0
M  V30 3174 H 298.172 -6.17632 2.82325 0
M  V30 3175 H 296.118 -6.5318 0.607567 0
M  V30 3176 H 296.035 -7.23617 2.18895 0
M  V30 3177 H 297.303 -7.71682 1.10124 0
M  V30 3178 N 301.532 -0.945985 -1.26051 0
M  V30 3179 C 302.442 -0.465633 -2.29933 0
M  V30 3180 C 303.458 0.462761 -1.67733 0
M  V30 3181 O 304.634 0.341118 -1.9849 0
M  V30 3182 C 301.699 0.256994 -3.45746 0
M  V30 3183 C 300.76 -0.708549 -4.23412 0
M  V30 3184 C 299.993 -0.0203135 -5.33696 0
M  V30 3185 O 300.216 1.19571 -5.57726 0
M  V30 3186 O 299.15 -0.701459 -5.97799 0
M  V30 3187 H 302.976 -1.32866 -2.73094 0
M  V30 3188 H 300.561 -0.712071 -1.31339 0
M  V30 3189 H 302.443 0.663852 -4.16138 0
M  V30 3190 H 301.118 1.09533 -3.04605 0
M  V30 3191 H 300.025 -1.16545 -3.55483 0
M  V30 3192 H 301.358 -1.51465 -4.68315 0
M  V30 3193 N 303.011 1.40521 -0.713556 0
M  V30 3194 C 304.26 2.00155 -0.249192 0
M  V30 3195 C 304.573 1.57224 1.16362 0
M  V30 3196 O 305.779 2.09542 1.72639 0
M  V30 3197 C 304.235 3.5773 -0.3946 0
M  V30 3198 C 303.843 4.09635 -1.81392 0
M  V30 3199 C 305.587 4.24499 0.00907364 0
M  V30 3200 C 303.494 5.59707 -1.91003 0
M  V30 3201 H 302.424 0.74868 -0.0894114 0
M  V30 3202 H 305.075 1.60784 -0.884352 0
M  V30 3203 H 303.457 3.94792 0.30911 0
M  V30 3204 H 304.631 3.83955 -2.54785 0
M  V30 3205 H 302.946 3.55456 -2.16888 0
M  V30 3206 H 305.543 5.34683 -0.0420404 0
M  V30 3207 H 305.886 4.02824 1.05065 0
M  V30 3208 H 306.419 3.92536 -0.645007 0
M  V30 3209 H 303.158 5.86234 -2.93275 0
M  V30 3210 H 302.678 5.87258 -1.22019 0
M  V30 3211 H 304.357 6.24776 -1.6812 0
M  V30 3212 N 304.489 0.459591 1.5075 0
M  V30 3213 C 305.905 0.113092 1.59199 0
M  V30 3214 C 306.105 -1.37951 1.46874 0
M  V30 3215 O 305.161 -2.15168 1.32132 0
M  V30 3216 C 306.474 0.653043 2.93523 0
M  V30 3217 C 308.022 0.615449 3.0689 0
M  V30 3218 C 308.497 1.13275 4.43771 0
M  V30 3219 N 309.988 1.09167 4.50152 0
M  V30 3220 C 310.723 1.46256 5.54434 0
M  V30 3221 N 310.219 1.90739 6.66026 0
M  V30 3222 N 312.012 1.37932 5.44914 0
M  V30 3223 H 304.163 1.43049 1.57005 0
M  V30 3224 H 306.426 0.590861 0.741341 0
M  V30 3225 H 306.132 1.69822 3.07983 0
M  V30 3226 H 306.006 0.0902132 3.77092 0
M  V30 3227 H 308.393 -0.420793 2.92084 0
M  V30 3228 H 308.474 1.21495 2.25106 0
M  V30 3229 H 308.118 2.16757 4.59324 0
M  V30 3230 H 308.048 0.509576 5.24129 0
M  V30 3231 H 310.539 0.76528 3.7007 0
M  V30 3232 H 310.852 2.17218 7.41644 0
M  V30 3233 H 309.197 1.94683 6.67176 0
M  V30 3234 H 312.388 1.0303 4.56621 0
M  V30 3235 H 312.561 1.67164 6.26067 0
M  V30 3236 N 305.967 -1.56429 0.191757 0
M  V30 3237 C 307.244 -1.89224 -0.495332 0
M  V30 3238 C 307.624 -1.10478 -1.79883 0
M  V30 3239 O 306.972 -0.204852 -2.2758 0
M  V30 3240 C 307.182 -3.41548 -0.717367 0
M  V30 3241 C 308.53 -4.11711 -1.03823 0
M  V30 3242 O 309.554 -3.4698 -0.805204 0
M  V30 3243 O 308.413 -5.2611 -1.47887 0
M  V30 3244 H 305.507 -0.785788 -0.25781 0
M  V30 3245 H 308.053 -1.68111 0.231721 0
M  V30 3246 H 306.825 -3.90772 0.203287 0
M  V30 3247 H 306.448 -3.68342 -1.497 0
M  V30 3248 N 307.445 0.0818655 -1.57387 0
M  V30 3249 C 308.722 0.815343 -1.77796 0
M  V30 3250 C 309.102 1.96289 -0.77679 0
M  V30 3251 O 308.45 2.27691 0.192106 0
M  V30 3252 C 308.66 1.29765 -3.23978 0
M  V30 3253 C 310.008 1.7351 -3.8753 0
M  V30 3254 O 311.032 1.39356 -3.27808 0
M  V30 3255 O 309.891 2.36708 -4.92576 0
M  V30 3256 H 306.985 0.389914 -0.729312 0
M  V30 3257 H 309.531 0.0627213 -1.69584 0
M  V30 3258 H 308.303 0.47608 -3.88393 0
M  V30 3259 H 307.926 2.11189 -3.36875 0
M  V30 3260 N 308.923 1.53595 0.353017 0
M  V30 3261 C 309.87 1.80919 1.43308 0
M  V30 3262 C 310.84 0.654288 1.5267 0
M  V30 3263 O 312.025 0.897759 1.6836 0
M  V30 3264 C 309.165 2.01605 2.80089 0
M  V30 3265 C 308.278 3.29321 2.79593 0
M  V30 3266 C 307.413 3.40125 4.0803 0
M  V30 3267 C 306.452 4.61826 4.01725 0
M  V30 3268 N 305.589 4.69716 5.21834 0
M  V30 3269 H 310.429 2.73074 1.19308 0
M  V30 3270 H 307.966 1.35263 0.578131 0
M  V30 3271 H 309.924 2.11586 3.59565 0
M  V30 3272 H 308.554 1.12772 3.0246 0
M  V30 3273 H 307.606 3.28229 1.92276 0
M  V30 3274 H 308.918 4.18884 2.70809 0
M  V30 3275 H 308.072 3.49488 4.95927 0
M  V30 3276 H 306.811 2.48601 4.19582 0
M  V30 3277 H 305.816 4.52552 3.12213 0
M  V30 3278 H 307.041 5.54705 3.91764 0
M  V30 3279 H 304.987 3.81097 5.33948 0
M  V30 3280 H 304.904 5.53202 5.1527 0
M  V30 3281 H 306.172 4.83376 6.11529 0
M  V30 3282 N 310.401 -0.613514 1.45168 0
M  V30 3283 C 311.647 -1.37471 1.49096 0
M  V30 3284 C 311.98 -1.93765 0.129901 0
M  V30 3285 O 311.255 -1.74707 -0.854858 0
M  V30 3286 C 311.538 -2.52701 2.56542 0
M  V30 3287 C 311.391 -2.01643 4.0207 0
M  V30 3288 C 312.71 -3.54849 2.60327 0
M  V30 3289 H 309.829 -0.498502 0.54283 0
M  V30 3290 H 312.471 -0.692125 1.76945 0
M  V30 3291 H 310.621 -3.10931 2.32926 0
M  V30 3292 H 312.293 -1.48108 4.36877 0
M  V30 3293 H 310.536 -1.32688 4.13009 0
M  V30 3294 H 311.207 -2.84681 4.72928 0
M  V30 3295 H 313.683 -3.0645 2.81474 0
M  V30 3296 H 312.559 -4.32973 3.37381 0
M  V30 3297 H 312.82 -4.10079 1.6519 0
M  V30 3298 N 311.879 -1.3236 -0.855495 0
M  V30 3299 C 313.104 -1.2601 -1.64731 0
M  V30 3300 C 313.529 0.169068 -1.87339 0
M  V30 3301 O 312.887 1.12016 -1.42556 0
M  V30 3302 C 312.935 -2.02417 -2.98429 0
M  V30 3303 O 312.039 -1.3714 -3.8893 0
M  V30 3304 H 311.38 -0.434325 -0.502253 0
M  V30 3305 H 313.91 -1.74661 -1.06558 0
M  V30 3306 H 313.92 -2.12559 -3.48257 0
M  V30 3307 H 312.595 -3.06343 -2.81295 0
M  V30 3308 H 311.172 -1.3554 -3.47395 0
M  V30 3309 N 313.357 1.07166 -1.15556 0
M  V30 3310 C 314.585 1.83514 -0.955519 0
M  V30 3311 C 315 1.82163 0.49621 0
M  V30 3312 O 314.357 1.23441 1.34419 0
M  V30 3313 C 314.408 3.30515 -1.46432 0
M  V30 3314 O 314.129 3.31937 -2.85918 0
M  V30 3315 C 315.63 4.23625 -1.30603 0
M  V30 3316 H 312.85 0.578926 -0.339244 0
M  V30 3317 H 315.394 1.35265 -1.53374 0
M  V30 3318 H 313.549 3.76106 -0.928584 0
M  V30 3319 H 313.963 4.23794 -3.09029 0
M  V30 3320 H 315.437 5.24831 -1.71047 0
M  V30 3321 H 315.914 4.38485 -0.250441 0
M  V30 3322 H 316.52 3.83871 -1.83094 0
M  V30 3323 N 314.835 0.952656 1.25548 0
M  V30 3324 C 316.084 0.602053 1.92505 0
M  V30 3325 C 316.397 -0.864663 1.75451 0
M  V30 3326 O 317.603 -1.32514 2.36965 0
M  V30 3327 C 316.059 1.02607 3.44963 0
M  V30 3328 C 315.667 2.51519 3.70732 0
M  V30 3329 C 317.411 0.747905 4.1786 0
M  V30 3330 C 315.318 2.87732 5.16686 0
M  V30 3331 H 314.248 0.22146 0.720744 0
M  V30 3332 H 316.899 1.15684 1.42441 0
M  V30 3333 H 315.281 0.399712 3.93978 0
M  V30 3334 H 316.455 3.19157 3.32378 0
M  V30 3335 H 314.77 2.76786 3.11092 0
M  V30 3336 H 317.367 0.994647 5.25367 0
M  V30 3337 H 317.71 -0.315629 4.15102 0
M  V30 3338 H 318.243 1.33452 3.74747 0
M  V30 3339 H 314.982 3.93095 5.24554 0
M  V30 3340 H 314.502 2.24765 5.56094 0
M  V30 3341 H 316.181 2.76817 5.84792 0
M  V30 3342 N 316.313 -1.40141 0.720998 0
M  V30 3343 C 317.562 -2.0002 0.259804 0
M  V30 3344 C 317.875 -1.57839 -1.15526 0
M  V30 3345 O 319.081 -2.10455 -1.71525 0
M  V30 3346 C 317.537 -3.57516 0.413566 0
M  V30 3347 C 317.145 -4.08667 1.83562 0
M  V30 3348 C 318.889 -4.24498 0.0134387 0
M  V30 3349 C 316.796 -5.58686 1.93968 0
M  V30 3350 H 315.726 -0.748195 0.0933806 0
M  V30 3351 H 318.377 -1.60313 0.892866 0
M  V30 3352 H 316.759 -3.9495 -0.288169 0
M  V30 3353 H 317.933 -3.82598 2.56817 0
M  V30 3354 H 316.248 -3.543 2.1877 0
M  V30 3355 H 318.845 -5.34654 0.0703954 0
M  V30 3356 H 319.188 -4.03375 -1.02927 0
M  V30 3357 H 319.721 -3.92188 0.665815 0
M  V30 3358 H 316.46 -5.8467 2.96379 0
M  V30 3359 H 315.98 -5.86602 1.25131 0
M  V30 3360 H 317.659 -6.23875 1.71431 0
M  V30 3361 N 317.792 -0.46758 -1.50504 0
M  V30 3362 C 319.041 0.0902868 -2.01498 0
M  V30 3363 C 319.354 1.411 -1.35463 0
M  V30 3364 O 320.56 2.0536 -1.77594 0
M  V30 3365 C 319.016 0.21142 -3.59278 0
M  V30 3366 C 318.624 -1.10065 -4.34269 0
M  V30 3367 C 320.368 0.721433 -4.18325 0
M  V30 3368 C 318.275 -0.943505 -5.83825 0
M  V30 3369 H 317.205 0.037517 -0.753066 0
M  V30 3370 H 319.856 -0.601943 -1.73346 0
M  V30 3371 H 318.238 0.967352 -3.84003 0
M  V30 3372 H 319.412 -1.86726 -4.21272 0
M  V30 3373 H 317.727 -1.5415 -3.86816 0
M  V30 3374 H 320.324 0.85598 -5.27804 0
M  V30 3375 H 320.667 1.71186 -3.79475 0
M  V30 3376 H 321.2 0.0229843 -3.97793 0
M  V30 3377 H 317.939 -1.90719 -6.27141 0
M  V30 3378 H 317.459 -0.217213 -5.99407 0
M  V30 3379 H 319.138 -0.608715 -6.4413 0
M  V30 3380 N 319.27 1.56325 -0.20005 0
M  V30 3381 C 320.547 1.89484 0.48529 0
M  V30 3382 C 320.927 1.1143 1.79294 0
M  V30 3383 O 320.275 0.216919 2.27468 0
M  V30 3384 C 320.485 3.41923 0.699243 0
M  V30 3385 C 321.833 4.12256 1.01638 0
M  V30 3386 O 322.857 3.47402 0.786792 0
M  V30 3387 O 321.716 5.26887 1.45095 0
M  V30 3388 H 318.81 0.787144 0.253639 0
M  V30 3389 H 321.356 1.67985 -0.240633 0
M  V30 3390 H 320.128 3.90658 -0.224008 0
M  V30 3391 H 319.751 3.69131 1.47744 0
M  V30 3392 N 320.748 -0.0735177 1.57428 0
M  V30 3393 C 321.711 -1.07192 2.02589 0
M  V30 3394 C 322.711 -1.31695 0.922661 0
M  V30 3395 O 323.901 -1.27445 1.18758 0
M  V30 3396 C 321.033 -2.41599 2.40506 0
M  V30 3397 H 322.226 -0.682727 2.92025 0
M  V30 3398 H 319.779 -0.319193 1.53006 0
M  V30 3399 H 320.514 -2.85354 1.5409 0
M  V30 3400 H 320.299 -2.25156 3.21009 0
M  V30 3401 H 321.789 -3.13367 2.76027 0
M  V30 3402 N 322.226 -1.5378 -0.344866 0
M  V30 3403 C 323.174 -1.82373 -1.4437 0
M  V30 3404 C 324.168 -0.694128 -1.54526 0
M  V30 3405 O 325.374 -0.877442 -1.57165 0
M  V30 3406 H 321.749 -0.577765 -0.481344 0
M  V30 3407 H 323.72 -2.74306 -1.17468 0
M  V30 3408 C 322.469 -2.04898 -2.80913 0
M  V30 3409 H 321.792 -2.9127 -2.73865 0
M  V30 3410 H 323.232 -2.28871 -3.56923 0
M  V30 3411 C 321.691 -0.834116 -3.26411 0
M  V30 3412 O 322.221 -0.0328885 -4.01687 0
M  V30 3413 N 320.427 -0.65171 -2.83198 0
M  V30 3414 H 319.974 -1.30489 -2.22104 0
M  V30 3415 H 319.932 0.159686 -3.13994 0
M  V30 3416 N 323.704 0.605807 -1.45491 0
M  V30 3417 C 324.667 1.69836 -1.5391 0
M  V30 3418 C 325.667 1.55261 -0.418424 0
M  V30 3419 O 326.857 1.60296 -0.681965 0
M  V30 3420 C 323.989 3.09117 -1.43734 0
M  V30 3421 H 325.182 1.63738 -2.51257 0
M  V30 3422 H 322.735 0.821689 -1.32959 0
M  V30 3423 H 323.47 3.20791 -0.475788 0
M  V30 3424 H 323.255 3.21104 -2.25021 0
M  V30 3425 H 324.745 3.88696 -1.52661 0
M  V30 3426 N 325.182 1.32811 0.848464 0
M  V30 3427 C 326.407 1.26882 1.6406 0
M  V30 3428 C 326.832 -0.15913 1.87426 0
M  V30 3429 O 326.19 -1.11258 1.43148 0
M  V30 3430 C 326.238 2.03997 2.97351 0
M  V30 3431 O 325.342 1.39201 3.88197 0
M  V30 3432 H 324.683 0.436982 0.499943 0
M  V30 3433 H 327.213 1.75224 1.0563 0
M  V30 3434 H 327.223 2.14403 3.47124 0
M  V30 3435 H 325.898 3.0783 2.79666 0
M  V30 3436 H 324.475 1.37381 3.46671 0
M  V30 3437 N 326.66 -1.06551 1.16123 0
M  V30 3438 C 327.909 -1.78687 0.935622 0
M  V30 3439 C 328.222 -1.88056 -0.538001 0
M  V30 3440 O 329.428 -2.56794 -0.88143 0
M  V30 3441 C 327.884 -3.21143 1.62466 0
M  V30 3442 C 327.492 -3.19949 3.13587 0
M  V30 3443 C 329.236 -3.9783 1.48092 0
M  V30 3444 C 327.143 -4.57108 3.75241 0
M  V30 3445 H 326.073 -0.669712 0.346412 0
M  V30 3446 H 328.724 -1.19534 1.39226 0
M  V30 3447 H 327.106 -3.80539 1.09572 0
M  V30 3448 H 328.28 -2.70151 3.73303 0
M  V30 3449 H 326.595 -2.5676 3.27816 0
M  V30 3450 H 329.192 -4.99217 1.91538 0
M  V30 3451 H 329.535 -4.14078 0.429507 0
M  V30 3452 H 330.068 -3.4495 1.98127 0
M  V30 3453 H 326.807 -4.46065 4.80319 0
M  V30 3454 H 326.327 -5.07111 3.20309 0
M  V30 3455 H 328.006 -5.26069 3.76644 0
M  V30 3456 N 328.138 -0.959301 -1.25041 0
M  V30 3457 C 329.363 -0.633507 -1.97488 0
M  V30 3458 C 329.788 0.788555 -1.70773 0
M  V30 3459 O 329.146 1.53394 -0.966431 0
M  V30 3460 C 329.194 -0.904057 -3.49083 0
M  V30 3461 O 328.298 0.0147939 -4.12397 0
M  V30 3462 H 327.639 -0.240368 -0.618966 0
M  V30 3463 H 330.169 -1.28717 -1.59038 0
M  V30 3464 H 330.179 -0.832203 -3.99423 0
M  V30 3465 H 328.854 -1.94048 -3.67856 0
M  V30 3466 H 327.431 -0.109664 -3.72739 0
M  V30 3467 N 329.616 1.39756 -0.72842 0
M  V30 3468 C 330.566 2.2792 -0.0603424 0
M  V30 3469 C 331.55 1.43922 0.719399 0
M  V30 3470 O 332.742 1.66895 0.589489 0
M  V30 3471 C 329.871 3.32582 0.851104 0
M  V30 3472 C 328.957 4.24049 0.0658641 0
M  V30 3473 N 329.348 4.96653 -0.957578 0
M  V30 3474 C 327.646 4.45013 0.296509 0
M  V30 3475 C 328.347 5.63836 -1.43052 0
M  V30 3476 N 327.323 5.38397 -0.750315 0
M  V30 3477 H 331.125 2.81504 -0.84455 0
M  V30 3478 H 328.639 1.5236 -0.562155 0
M  V30 3479 H 330.636 3.94603 1.34514 0
M  V30 3480 H 329.296 2.80558 1.63454 0
M  V30 3481 H 330.307 5.00297 -1.33877 0
M  V30 3482 H 326.984 4.03943 1.05527 0
M  V30 3483 H 328.374 6.31974 -2.28163 0
M  V30 3484 N 331.094 0.475555 1.50254 0
M  V30 3485 C 332.024 -0.30611 2.31485 0
M  V30 3486 C 333.005 -0.986228 1.38591 0
M  V30 3487 O 334.19 -0.982541 1.67511 0
M  V30 3488 C 331.32 -1.38588 3.1845 0
M  V30 3489 C 330.274 -0.827115 4.19932 0
M  V30 3490 C 329.6 -2.00551 4.95665 0
M  V30 3491 C 330.9 0.16463 5.2204 0
M  V30 3492 H 332.594 0.371866 2.97082 0
M  V30 3493 H 330.14 0.180282 1.42867 0
M  V30 3494 H 332.093 -1.94023 3.74076 0
M  V30 3495 H 330.817 -2.09269 2.50747 0
M  V30 3496 H 329.476 -0.294702 3.65414 0
M  V30 3497 H 329.124 -2.6994 4.2443 0
M  V30 3498 H 328.824 -1.63784 5.64313 0
M  V30 3499 H 330.348 -2.56468 5.54127 0
M  V30 3500 H 331.762 -0.300699 5.72511 0
M  V30 3501 H 330.159 0.446813 5.98434 0
M  V30 3502 H 331.229 1.08905 4.72512 0
M  V30 3503 N 332.573 -1.56217 0.208337 0
M  V30 3504 C 333.822 -1.97124 -0.427204 0
M  V30 3505 C 334.135 -1.09859 -1.61835 0
M  V30 3506 O 335.341 -1.40606 -2.32255 0
M  V30 3507 C 333.797 -3.50633 -0.811442 0
M  V30 3508 C 333.405 -4.46582 0.35615 0
M  V30 3509 C 335.149 -4.00282 -1.41332 0
M  V30 3510 C 333.056 -5.91379 -0.0497852 0
M  V30 3511 H 331.986 -0.736086 -0.163381 0
M  V30 3512 H 334.637 -1.8099 0.302456 0
M  V30 3513 H 333.019 -3.62319 -1.59815 0
M  V30 3514 H 334.193 -4.46636 1.1337 0
M  V30 3515 H 332.508 -4.07202 0.870396 0
M  V30 3516 H 335.105 -5.0595 -1.72972 0
M  V30 3517 H 335.448 -3.45359 -2.32449 0
M  V30 3518 H 335.981 -3.91764 -0.690323 0
M  V30 3519 H 332.72 -6.50255 0.827529 0
M  V30 3520 H 332.24 -5.94549 -0.791926 0
M  V30 3521 H 333.919 -6.45209 -0.481042 0
M  V30 3522 N 334.051 0.0651679 -1.57465 0
M  V30 3523 C 334.981 1.07693 -2.07182 0
M  V30 3524 C 335.962 1.39962 -0.966673 0
M  V30 3525 O 337.147 1.49475 -1.2398 0
M  V30 3526 C 334.277 2.3885 -2.52127 0
M  V30 3527 C 333.231 2.20917 -3.66579 0
M  V30 3528 C 332.557 3.57515 -3.97601 0
M  V30 3529 C 333.857 1.62493 -4.9638 0
M  V30 3530 H 335.551 0.663199 -2.91962 0
M  V30 3531 H 333.097 0.317569 -1.40455 0
M  V30 3532 H 335.05 3.09928 -2.85522 0
M  V30 3533 H 333.774 2.82215 -1.64384 0
M  V30 3534 H 332.433 1.52279 -3.33477 0
M  V30 3535 H 332.081 3.98463 -3.06979 0
M  V30 3536 H 331.781 3.46353 -4.74672 0
M  V30 3537 H 333.305 4.30013 -4.33499 0
M  V30 3538 H 334.719 2.23445 -5.27963 0
M  V30 3539 H 333.116 1.62009 -5.77818 0
M  V30 3540 H 334.186 0.587041 -4.81333 0
M  V30 3541 N 335.529 1.53961 0.336706 0
M  V30 3542 C 336.945 1.44378 0.680241 0
M  V30 3543 C 337.145 0.606034 1.9217 0
M  V30 3544 O 336.201 0.099688 2.52303 0
M  V30 3545 C 337.514 2.87945 0.8665 0
M  V30 3546 C 339.062 2.97763 0.964682 0
M  V30 3547 C 339.537 4.42453 1.18321 0
M  V30 3548 N 341.028 4.46008 1.25025 0
M  V30 3549 C 341.763 5.55102 1.43697 0
M  V30 3550 N 341.259 6.7419 1.59498 0
M  V30 3551 N 343.052 5.42727 1.463 0
M  V30 3552 H 335.203 2.06918 -0.479455 0
M  V30 3553 H 337.466 0.935634 -0.152619 0
M  V30 3554 H 337.172 3.51691 0.0256937 0
M  V30 3555 H 337.046 3.33293 1.76623 0
M  V30 3556 H 339.433 2.34153 1.796 0
M  V30 3557 H 339.514 2.55766 0.041708 0
M  V30 3558 H 339.158 5.06645 0.356788 0
M  V30 3559 H 339.088 4.82048 2.11985 0
M  V30 3560 H 341.579 3.60196 1.14312 0
M  V30 3561 H 341.892 7.53095 1.734 0
M  V30 3562 H 340.237 6.77123 1.56621 0
M  V30 3563 H 343.428 4.48647 1.33543 0
M  V30 3564 H 343.601 6.27806 1.6051 0
M  V30 3565 N 337.007 -0.598083 1.45811 0
M  V30 3566 C 337.954 -1.7082 1.55207 0
M  V30 3567 C 338.924 -1.61278 0.39732 0
M  V30 3568 O 340.109 -1.80717 0.612038 0
M  V30 3569 C 337.249 -3.09144 1.53376 0
M  V30 3570 C 336.362 -3.29423 2.79472 0
M  V30 3571 C 335.497 -4.57907 2.69248 0
M  V30 3572 C 334.536 -4.71476 3.90354 0
M  V30 3573 N 333.673 -5.9127 3.78608 0
M  V30 3574 H 338.513 -1.62125 2.50039 0
M  V30 3575 H 336.05 -0.790389 1.24062 0
M  V30 3576 H 338.008 -3.89186 1.50301 0
M  V30 3577 H 336.638 -3.16773 0.620876 0
M  V30 3578 H 335.69 -2.43091 2.92594 0
M  V30 3579 H 337.002 -3.3532 3.69272 0
M  V30 3580 H 336.156 -5.46157 2.64192 0
M  V30 3581 H 334.895 -4.54423 1.77063 0
M  V30 3582 H 333.9 -3.81648 3.95759 0
M  V30 3583 H 335.125 -4.76751 4.83617 0
M  V30 3584 H 333.071 -5.88813 2.89199 0
M  V30 3585 H 332.988 -5.98369 4.6205 0
M  V30 3586 H 334.256 -6.81992 3.77501 0
M  V30 3587 N 338.485 -1.33259 -0.841409 0
M  V30 3588 C 339.448 -1.23221 -1.9326 0
M  V30 3589 C 340.448 -0.151895 -1.60081 0
M  V30 3590 O 341.638 -0.403246 -1.69468 0
M  V30 3591 C 338.77 -0.898123 -3.28856 0
M  V30 3592 H 339.963 -2.2021 -2.03587 0
M  V30 3593 H 337.516 -1.17281 -1.03319 0
M  V30 3594 H 338.251 0.0693841 -3.24226 0
M  V30 3595 H 338.036 -1.67934 -3.54317 0
M  V30 3596 H 339.526 -0.852563 -4.08805 0
M  V30 3597 N 339.963 1.05934 -1.16686 0
M  V30 3598 C 341.188 1.83029 -0.975455 0
M  V30 3599 C 341.613 1.82096 0.471452 0
M  V30 3600 O 340.971 1.22443 1.33706 0
M  V30 3601 C 341.019 3.27372 -1.51195 0
M  V30 3602 O 340.123 4.06054 -0.720701 0
M  V30 3603 H 339.464 0.566194 -0.346872 0
M  V30 3604 H 341.994 1.33541 -1.55009 0
M  V30 3605 H 342.004 3.78186 -1.53099 0
M  V30 3606 H 340.679 3.27366 -2.56523 0
M  V30 3607 H 339.256 3.64812 -0.772458 0
M  V30 3608 N 341.441 0.965919 1.2453 0
M  V30 3609 C 342.351 0.502154 2.29163 0
M  V30 3610 C 343.367 -0.436017 1.68448 0
M  V30 3611 O 344.543 -0.309497 1.99008 0
M  V30 3612 C 341.608 -0.201956 3.46111 0
M  V30 3613 C 340.669 0.775821 4.22232 0
M  V30 3614 C 339.902 0.105217 5.33596 0
M  V30 3615 O 340.125 -1.10683 5.59558 0
M  V30 3616 O 339.059 0.796475 5.96607 0
M  V30 3617 H 342.885 1.37194 2.70946 0
M  V30 3618 H 340.47 0.732875 1.30189 0
M  V30 3619 H 342.352 -0.597564 4.17142 0
M  V30 3620 H 341.027 -1.04673 3.06309 0
M  V30 3621 H 339.934 1.22185 3.53584 0
M  V30 3622 H 341.267 1.58896 4.65846 0
M  V30 3623 N 342.919 -1.39368 0.735821 0
M  V30 3624 C 343.849 -2.33234 0.111506 0
M  V30 3625 C 344.83 -1.53954 -0.723334 0
M  V30 3626 O 346.015 -1.82344 -0.668147 0
M  V30 3627 C 343.145 -3.38057 -0.795917 0
M  V30 3628 C 342.099 -4.2795 -0.065172 0
M  V30 3629 C 341.425 -5.23479 -1.08967 0
M  V30 3630 C 342.725 -5.10741 1.09273 0
M  V30 3631 H 344.419 -2.85692 0.895571 0
M  V30 3632 H 341.965 -1.37364 0.432109 0
M  V30 3633 H 343.918 -4.02675 -1.24221 0
M  V30 3634 H 342.642 -2.8404 -1.61211 0
M  V30 3635 H 341.301 -3.64813 0.361511 0
M  V30 3636 H 340.949 -4.65758 -1.89944 0
M  V30 3637 H 340.649 -5.84472 -0.605489 0
M  V30 3638 H 342.173 -5.90974 -1.53565 0
M  V30 3639 H 343.587 -5.68699 0.724841 0
M  V30 3640 H 341.984 -5.8088 1.50659 0
M  V30 3641 H 343.054 -4.45525 1.91404 0
M  V30 3642 N 344.397 -0.483516 -1.5 0
M  V30 3643 C 345.645 0.067027 -2.01989 0
M  V30 3644 C 345.966 1.3909 -1.36671 0
M  V30 3645 O 345.236 1.88978 -0.516152 0
M  V30 3646 H 343.816 0.0277606 -0.746484 0
M  V30 3647 H 346.478 -0.636773 -1.84204 0
M  V30 3648 H 345.574 0.209484 -3.11396 0
M  V30 3649 N 345.875 1.56104 -0.216619 0
M  V30 3650 C 346.808 2.16026 0.735395 0
M  V30 3651 C 347.786 1.1032 1.1945 0
M  V30 3652 O 348.97 1.38549 1.27814 0
M  V30 3653 C 346.097 2.73656 1.99575 0
M  V30 3654 C 345.143 3.92146 1.67702 0
M  V30 3655 S 345.976 5.29397 0.806145 0
M  V30 3656 C 347.132 5.90463 2.07617 0
M  V30 3657 H 347.365 2.96439 0.226072 0
M  V30 3658 H 344.898 1.544 -0.00136639 0
M  V30 3659 H 346.856 3.075 2.71945 0
M  V30 3660 H 345.517 1.93245 2.47619 0
M  V30 3661 H 344.71 4.30954 2.61332 0
M  V30 3662 H 344.312 3.59423 1.03398 0
M  V30 3663 H 346.604 6.06136 3.02664 0
M  V30 3664 H 347.547 6.86589 1.73207 0
M  V30 3665 H 347.955 5.19252 2.21445 0
M  V30 3666 N 347.353 -0.0568162 1.57498 0
M  V30 3667 C 348.581 -0.765626 1.92213 0
M  V30 3668 C 348.996 -1.70353 0.813961 0
M  V30 3669 O 348.353 -1.81268 -0.211701 0
M  V30 3670 C 348.404 -1.5465 3.2675 0
M  V30 3671 O 348.125 -0.646278 4.33307 0
M  V30 3672 C 349.626 -2.35497 3.75574 0
M  V30 3673 H 346.846 -0.216835 0.634999 0
M  V30 3674 H 349.39 -0.0226146 2.04487 0
M  V30 3675 H 347.545 -2.24165 3.15957 0
M  V30 3676 H 347.959 -1.19093 5.108 0
M  V30 3677 H 349.433 -2.85722 4.72299 0
M  V30 3678 H 349.91 -3.15692 3.05344 0
M  V30 3679 H 350.516 -1.7111 3.8936 0
M  V30 3680 N 348.832 -1.54138 -0.328536 0
M  V30 3681 C 350.057 -1.76378 -1.09112 0
M  V30 3682 C 350.482 -0.508596 -1.81094 0
M  V30 3683 O 349.84 0.539598 -1.73084 0
M  V30 3684 C 349.888 -2.95358 -2.06872 0
M  V30 3685 O 348.992 -2.66556 -3.14677 0
M  V30 3686 H 348.333 -0.584614 -0.314838 0
M  V30 3687 H 350.863 -2.01146 -0.374348 0
M  V30 3688 H 350.873 -3.22566 -2.4983 0
M  V30 3689 H 349.548 -3.86385 -1.5388 0
M  V30 3690 H 348.125 -2.50282 -2.7643 0
M  V30 3691 N 350.31 0.590341 -1.46126 0
M  V30 3692 C 351.273 1.68194 -1.55703 0
M  V30 3693 C 352.273 1.54808 -0.434868 0
M  V30 3694 O 353.463 1.59564 -0.698928 0
M  V30 3695 C 350.595 3.07575 -1.47005 0
M  V30 3696 H 351.788 1.61064 -2.52979 0
M  V30 3697 H 349.341 0.807541 -1.33823 0
M  V30 3698 H 350.076 3.20268 -0.509785 0
M  V30 3699 H 349.861 3.187 -2.28414 0
M  V30 3700 H 351.351 3.87055 -1.56776 0
M  V30 3701 N 351.788 1.33704 0.83433 0
M  V30 3702 C 353.035 1.25417 1.58987 0
M  V30 3703 C 353.363 -0.178869 1.93676 0
M  V30 3704 O 352.618 -1.13723 1.59265 0
M  V30 3705 C 352.917 2.07926 2.90692 0
M  V30 3706 C 352.583 3.57066 2.75345 0
M  V30 3707 C 351.245 3.97724 2.70867 0
M  V30 3708 C 353.597 4.51817 2.59828 0
M  V30 3709 C 350.925 5.31344 2.48778 0
M  V30 3710 C 353.277 5.85604 2.39272 0
M  V30 3711 C 351.941 6.25439 2.33199 0
M  V30 3712 H 351.211 0.458934 0.581774 0
M  V30 3713 H 353.858 1.65335 0.966261 0
M  V30 3714 H 352.163 1.608 3.57282 0
M  V30 3715 H 353.86 1.98868 3.48213 0
M  V30 3716 H 350.45 3.24785 2.79665 0
M  V30 3717 H 354.634 4.21311 2.62319 0
M  V30 3718 H 349.89 5.61241 2.42526 0
M  V30 3719 H 354.064 6.58623 2.2625 0
M  V30 3720 H 351.691 7.28914 2.15843 0
M  V30 3721 N 353.266 -1.05314 1.17247 0
M  V30 3722 C 354.496 -1.81707 0.983166 0
M  V30 3723 C 354.904 -1.83222 -0.471822 0
M  V30 3724 O 354.247 -1.25721 -1.3394 0
M  V30 3725 C 354.309 -3.29134 1.44606 0
M  V30 3726 C 353.973 -3.51304 2.92292 0
M  V30 3727 C 354.97 -3.4353 3.90235 0
M  V30 3728 C 352.655 -3.78306 3.30439 0
M  V30 3729 C 354.649 -3.62442 5.24323 0
M  V30 3730 C 352.336 -3.96866 4.64694 0
M  V30 3731 C 353.334 -3.88933 5.61445 0
M  V30 3732 O 353.022 -4.06976 6.93272 0
M  V30 3733 H 352.754 -0.579476 0.348114 0
M  V30 3734 H 355.308 -1.33705 1.55924 0
M  V30 3735 H 353.538 -3.78046 0.813537 0
M  V30 3736 H 355.227 -3.87049 1.22262 0
M  V30 3737 H 355.993 -3.22648 3.62109 0
M  V30 3738 H 351.872 -3.83585 2.55702 0
M  V30 3739 H 355.416 -3.56165 5.99827 0
M  V30 3740 H 351.313 -4.1724 4.92525 0
M  V30 3741 H 352.081 -4.24209 6.99992 0
M  V30 3742 N 354.744 -0.972509 -1.24016 0
M  V30 3743 C 355.691 -0.505969 -2.25186 0
M  V30 3744 C 356.661 0.451009 -1.5986 0
M  V30 3745 O 357.846 0.360307 -1.87367 0
M  V30 3746 C 354.986 0.193089 -3.44559 0
M  V30 3747 C 354.099 -0.803222 -4.24467 0
M  V30 3748 C 353.234 -0.0797793 -5.3114 0
M  V30 3749 C 352.273 -1.06583 -6.02749 0
M  V30 3750 N 351.41 -0.372074 -7.01113 0
M  V30 3751 H 356.25 -1.37351 -2.64459 0
M  V30 3752 H 353.787 -0.688419 -1.29997 0
M  V30 3753 H 355.745 0.615125 -4.1264 0
M  V30 3754 H 354.375 1.02455 -3.06109 0
M  V30 3755 H 353.427 -1.34368 -3.55878 0
M  V30 3756 H 354.739 -1.55494 -4.73944 0
M  V30 3757 H 353.893 0.400015 -6.0538 0
M  V30 3758 H 352.632 0.704597 -4.82583 0
M  V30 3759 H 351.637 -1.55645 -5.27309 0
M  V30 3760 H 352.862 -1.85074 -6.53395 0
M  V30 3761 H 350.808 0.393238 -6.5482 0
M  V30 3762 H 350.725 -1.06258 -7.48495 0
M  V30 3763 H 351.993 0.0855932 -7.79453 0
M  V30 3764 N 356.222 1.38976 -0.743202 0
M  V30 3765 C 357.452 2.04339 -0.304807 0
M  V30 3766 C 357.86 1.56162 1.06819 0
M  V30 3767 O 357.203 0.725284 1.68776 0
M  V30 3768 C 357.265 3.58716 -0.237369 0
M  V30 3769 C 356.929 4.29905 -1.55018 0
M  V30 3770 C 357.926 4.55987 -2.49744 0
M  V30 3771 C 355.611 4.68294 -1.81675 0
M  V30 3772 C 357.605 5.19478 -3.69353 0
M  V30 3773 C 355.292 5.31512 -3.0156 0
M  V30 3774 C 356.29 5.57037 -3.9522 0
M  V30 3775 O 355.978 6.18941 -5.12998 0
M  V30 3776 H 355.71 0.663439 -0.12971 0
M  V30 3777 H 358.264 1.78852 -1.01001 0
M  V30 3778 H 356.494 3.83133 0.524003 0
M  V30 3779 H 358.183 4.05543 0.170121 0
M  V30 3780 H 358.949 4.26767 -2.30423 0
M  V30 3781 H 354.828 4.47779 -1.09615 0
M  V30 3782 H 358.372 5.39318 -4.42473 0
M  V30 3783 H 354.269 5.60153 -3.20778 0
M  V30 3784 H 355.037 6.37433 -5.13441 0
M  V30 3785 N 357.7 0.491464 1.49741 0
M  V30 3786 C 358.949 -0.0582189 2.01616 0
M  V30 3787 C 359.262 -1.38927 1.3769 0
M  V30 3788 O 360.468 -2.02509 1.80838 0
M  V30 3789 C 358.924 -0.154235 3.59569 0
M  V30 3790 C 358.532 1.1696 4.32463 0
M  V30 3791 C 360.276 -0.65479 4.1942 0
M  V30 3792 C 358.183 1.03627 5.8225 0
M  V30 3793 H 357.113 -0.0255317 0.753568 0
M  V30 3794 H 359.764 0.629445 1.72367 0
M  V30 3795 H 358.146 -0.906138 3.85493 0
M  V30 3796 H 359.32 1.93405 4.18248 0
M  V30 3797 H 357.635 1.60285 3.84315 0
M  V30 3798 H 360.232 -0.771903 5.29099 0
M  V30 3799 H 360.575 -1.65127 3.8215 0
M  V30 3800 H 361.108 0.040304 3.9778 0
M  V30 3801 H 357.847 2.00672 6.24028 0
M  V30 3802 H 357.367 0.312546 5.98985 0
M  V30 3803 H 359.046 0.711114 6.4308 0
M  V30 3804 N 359.178 -1.55987 0.224894 0
M  V30 3805 C 360.108 -2.23426 -0.678457 0
M  V30 3806 C 361.089 -1.20709 -1.19847 0
M  V30 3807 O 362.274 -1.49304 -1.24186 0
M  V30 3808 C 359.404 -2.91676 -1.88527 0
M  V30 3809 C 358.358 -4.00893 -1.49896 0
M  V30 3810 C 357.684 -4.56455 -2.78483 0
M  V30 3811 C 358.984 -5.17769 -0.686461 0
M  V30 3812 H 360.678 -2.99175 -0.116173 0
M  V30 3813 H 358.224 -1.43897 -0.054436 0
M  V30 3814 H 360.177 -3.37547 -2.5227 0
M  V30 3815 H 358.901 -2.1338 -2.47258 0
M  V30 3816 H 357.56 -3.55758 -0.884985 0
M  V30 3817 H 357.208 -3.74886 -3.35365 0
M  V30 3818 H 356.908 -5.30169 -2.53368 0
M  V30 3819 H 358.432 -5.05047 -3.43162 0
M  V30 3820 H 359.846 -5.60001 -1.22767 0
M  V30 3821 H 358.243 -5.97735 -0.532259 0
M  V30 3822 H 359.313 -4.83932 0.306196 0
M  V30 3823 N 360.656 0.0484629 -1.57525 0
M  V30 3824 C 361.884 0.755421 -1.92616 0
M  V30 3825 C 362.299 1.69919 -0.822984 0
M  V30 3826 O 361.656 1.81378 0.202085 0
M  V30 3827 C 361.707 1.52915 -3.27566 0
M  V30 3828 O 361.428 0.62329 -4.33644 0
M  V30 3829 C 362.929 2.33502 -3.76818 0
M  V30 3830 H 360.149 0.213465 -0.63614 0
M  V30 3831 H 362.693 0.0117698 -2.04497 0
M  V30 3832 H 360.848 2.22486 -3.17142 0
M  V30 3833 H 361.262 1.16383 -5.11425 0
M  V30 3834 H 362.736 2.83214 -4.73808 0
M  V30 3835 H 363.213 3.14068 -3.07014 0
M  V30 3836 H 363.819 1.69043 -3.90262 0
M  V30 3837 N 362.134 1.5431 0.320358 0
M  V30 3838 C 363.362 1.76636 1.07738 0
M  V30 3839 C 363.777 0.51649 1.81598 0
M  V30 3840 O 363.134 -0.512942 1.75143 0
M  V30 3841 C 363.185 2.96158 2.07299 0
M  V30 3842 O 362.906 4.16313 1.36438 0
M  V30 3843 C 364.407 3.3072 2.95193 0
M  V30 3844 H 361.627 0.589597 0.320339 0
M  V30 3845 H 364.171 2.01207 0.36551 0
M  V30 3846 H 362.326 2.73851 2.74016 0
M  V30 3847 H 362.74 4.83565 2.03138 0
M  V30 3848 H 364.214 4.17643 3.60941 0
M  V30 3849 H 364.691 2.48026 3.62463 0
M  V30 3850 H 365.297 3.55117 2.34034 0
M  V30 3851 N 363.613 -0.582584 1.46437 0
M  V30 3852 C 364.546 -1.70633 1.51524 0
M  V30 3853 C 365.524 -1.58349 0.369351 0
M  V30 3854 O 366.708 -1.79563 0.573516 0
M  V30 3855 C 363.835 -3.08687 1.39392 0
M  V30 3856 C 362.881 -3.3949 2.58164 0
M  V30 3857 S 363.714 -3.31548 4.20519 0
M  V30 3858 C 364.87 -4.72139 4.10896 0
M  V30 3859 H 365.103 -1.66058 2.46601 0
M  V30 3860 H 362.636 -0.761337 1.34324 0
M  V30 3861 H 364.594 -3.8833 1.33079 0
M  V30 3862 H 363.255 -3.10751 0.457436 0
M  V30 3863 H 362.448 -4.40071 2.45669 0
M  V30 3864 H 362.05 -2.67415 2.61468 0
M  V30 3865 H 364.342 -5.62527 3.77584 0
M  V30 3866 H 365.285 -4.89692 5.11476 0
M  V30 3867 H 365.693 -4.48995 3.42146 0
M  V30 3868 N 365.091 -1.34144 -0.827227 0
M  V30 3869 C 366.368 -1.16844 -1.56865 0
M  V30 3870 C 366.748 0.260654 -2.09485 0
M  V30 3871 O 366.096 1.26138 -1.9053 0
M  V30 3872 C 366.306 -2.21939 -2.6934 0
M  V30 3873 C 367.654 -2.56695 -3.3822 0
M  V30 3874 O 368.678 -2.20695 -2.79593 0
M  V30 3875 O 367.537 -3.18518 -4.44082 0
M  V30 3876 H 364.631 -0.452669 -0.692112 0
M  V30 3877 H 367.177 -1.45763 -0.868973 0
M  V30 3878 H 365.949 -3.17882 -2.28182 0
M  V30 3879 H 365.572 -1.94172 -3.46962 0
M  V30 3880 N 366.569 1.04691 -1.17803 0
M  V30 3881 C 367.816 1.77782 -0.969532 0
M  V30 3882 C 368.144 1.87926 0.501401 0
M  V30 3883 O 367.399 1.37918 1.38842 0
M  V30 3884 C 367.698 3.21467 -1.56186 0
M  V30 3885 C 367.364 3.3137 -3.05786 0
M  V30 3886 C 366.026 3.3378 -3.46619 0
M  V30 3887 C 368.378 3.31976 -4.01797 0
M  V30 3888 C 365.706 3.34431 -4.82051 0
M  V30 3889 C 368.058 3.34167 -5.37136 0
M  V30 3890 C 366.722 3.34866 -5.77426 0
M  V30 3891 H 365.992 0.650549 -0.354777 0
M  V30 3892 H 368.639 1.23006 -1.46772 0
M  V30 3893 H 366.944 3.79203 -0.985515 0
M  V30 3894 H 368.641 3.76652 -1.37602 0
M  V30 3895 H 365.231 3.3021 -2.73238 0
M  V30 3896 H 369.415 3.29311 -3.71306 0
M  V30 3897 H 364.671 3.33285 -5.12573 0
M  V30 3898 H 368.845 3.33585 -6.11305 0
M  V30 3899 H 366.472 3.35124 -6.82346 0
M  V30 3900 N 368.047 0.979072 1.23499 0
M  V30 3901 C 369.458 0.684391 1.73704 0
M  V30 3902 C 369.809 -0.799448 1.79174 0
M  V30 3903 O 368.934 -1.62531 1.42873 0
M  V30 3904 C 369.529 1.23564 3.15464 0
M  V30 3905 C 368.088 0.99063 3.6313 0
M  V30 3906 C 367.235 1.36416 2.41425 0
M  V30 3907 H 370.186 1.15307 1.09041 0
M  V30 3908 H 370.207 0.607417 3.7562 0
M  V30 3909 H 369.719 2.31561 3.1145 0
M  V30 3910 H 367.82 -0.0733136 3.72528 0
M  V30 3911 H 367.933 1.64427 4.5 0
M  V30 3912 H 366.297 0.782616 2.42378 0
M  V30 3913 H 367.08 2.45387 2.40083 0
M  V30 3914 N 369.525 -1.3858 0.750561 0
M  V30 3915 C 370.774 -1.99424 0.302172 0
M  V30 3916 C 371.087 -1.60254 -1.12152 0
M  V30 3917 O 372.293 -2.14046 -1.67023 0
M  V30 3918 C 370.749 -3.56558 0.489307 0
M  V30 3919 C 370.357 -4.04682 1.92189 0
M  V30 3920 C 372.101 -4.24374 0.103478 0
M  V30 3921 C 370.008 -5.54446 2.05775 0
M  V30 3922 H 368.938 -0.746046 0.10923 0
M  V30 3923 H 371.589 -1.58383 0.92667 0
M  V30 3924 H 369.971 -3.95472 -0.204329 0
M  V30 3925 H 371.145 -3.77065 2.64875 0
M  V30 3926 H 369.46 -3.4958 2.26236 0
M  V30 3927 H 372.057 -5.34384 0.183787 0
M  V30 3928 H 372.4 -4.05468 -0.943481 0
M  V30 3929 H 372.933 -3.90688 0.748854 0
M  V30 3930 H 369.672 -5.78252 3.08714 0
M  V30 3931 H 369.192 -5.83816 1.37546 0
M  V30 3932 H 370.871 -6.20099 1.84626 0
M  V30 3933 N 371.003 -0.499398 -1.49478 0
M  V30 3934 C 371.933 0.269244 -2.31943 0
M  V30 3935 C 372.914 0.964054 -1.40143 0
M  V30 3936 O 374.099 0.955767 -1.69052 0
M  V30 3937 C 371.229 1.33504 -3.20615 0
M  V30 3938 C 370.183 0.760202 -4.21195 0
M  V30 3939 C 369.509 1.9264 -4.98792 0
M  V30 3940 C 370.809 -0.247661 -5.21712 0
M  V30 3941 H 372.503 -0.419082 -2.96452 0
M  V30 3942 H 370.049 -0.202988 -1.42562 0
M  V30 3943 H 372.002 1.88048 -3.77115 0
M  V30 3944 H 370.726 2.05253 -2.54045 0
M  V30 3945 H 369.385 0.23653 -3.65836 0
M  V30 3946 H 369.033 2.63154 -4.28671 0
M  V30 3947 H 368.733 1.54785 -5.66847 0
M  V30 3948 H 370.257 2.4762 -5.58137 0
M  V30 3949 H 371.671 0.209579 -5.72917 0
M  V30 3950 H 370.068 -0.541962 -5.97648 0
M  V30 3951 H 371.138 -1.16409 -4.7072 0
M  V30 3952 N 372.481 1.55866 -0.233164 0
M  V30 3953 C 373.431 2.17442 0.685774 0
M  V30 3954 C 374.415 1.12617 1.14918 0
M  V30 3955 O 375.607 1.3857 1.10124 0
M  V30 3956 C 372.736 2.86685 1.88856 0
M  V30 3957 C 371.822 3.98749 1.4443 0
M  V30 3958 N 372.213 5.00744 0.713364 0
M  V30 3959 C 370.511 4.11052 1.73068 0
M  V30 3960 C 371.212 5.79673 0.485205 0
M  V30 3961 N 370.188 5.33454 1.04536 0
M  V30 3962 H 373.99 2.93659 0.119022 0
M  V30 3963 H 371.504 1.62362 -0.0348995 0
M  V30 3964 H 373.501 3.29218 2.55776 0
M  V30 3965 H 372.161 2.11967 2.45967 0
M  V30 3966 H 373.172 5.16613 0.364861 0
M  V30 3967 H 369.849 3.47495 2.31416 0
M  V30 3968 H 371.239 6.71829 -0.097365 0
M  V30 3969 N 373.959 -0.0401083 1.57549 0
M  V30 3970 C 374.889 -1.04384 2.08869 0
M  V30 3971 C 375.87 -1.38407 0.988817 0
M  V30 3972 O 377.055 -1.47483 1.26342 0
M  V30 3973 C 374.185 -2.34808 2.55895 0
M  V30 3974 C 373.139 -2.15057 3.70047 0
M  V30 3975 C 372.465 -3.51145 4.03239 0
M  V30 3976 C 373.765 -1.54576 4.98902 0
M  V30 3977 H 375.459 -0.616666 2.92981 0
M  V30 3978 H 373.005 -0.295184 1.40942 0
M  V30 3979 H 374.958 -3.05346 2.90417 0
M  V30 3980 H 373.682 -2.79565 1.68853 0
M  V30 3981 H 372.341 -1.46954 3.35857 0
M  V30 3982 H 371.989 -3.93529 3.13279 0
M  V30 3983 H 371.689 -3.38758 4.80122 0
M  V30 3984 H 373.213 -4.23062 4.40285 0
M  V30 3985 H 374.627 -2.15017 5.31451 0
M  V30 3986 H 373.024 -1.52796 5.80322 0
M  V30 3987 H 374.094 -0.51039 4.82206 0
M  V30 3988 N 375.437 -1.54477 -0.31217 0
M  V30 3989 C 376.714 -1.63891 -1.06767 0
M  V30 3990 C 377.094 -0.480028 -2.0557 0
M  V30 3991 O 376.442 0.524487 -2.22399 0
M  V30 3992 C 376.652 -3.01402 -1.75948 0
M  V30 3993 C 378 -3.57838 -2.28554 0
M  V30 3994 O 379.024 -3.03782 -1.85998 0
M  V30 3995 O 377.883 -4.52462 -3.06497 0
M  V30 3996 H 374.977 -0.664125 -0.492816 0
M  V30 3997 H 377.523 -1.66823 -0.311149 0
M  V30 3998 H 376.295 -3.77187 -1.04144 0
M  V30 3999 H 375.918 -3.02199 -2.58383 0
M  V30 4000 N 376.915 0.57481 -1.46744 0
M  V30 4001 C 378.163 1.33009 -1.52161 0
M  V30 4002 C 378.484 1.94185 -0.178092 0
M  V30 4003 O 377.754 1.7899 0.796196 0
M  V30 4004 H 376.334 0.493873 -0.560445 0
M  V30 4005 H 378.996 0.672589 -1.82927 0
M  V30 4006 H 378.092 2.13273 -2.27862 0
M  V30 4007 N 378.394 1.34581 0.820102 0
M  V30 4008 C 379.643 1.26437 1.57151 0
M  V30 4009 C 379.956 -0.163111 1.94919 0
M  V30 4010 O 381.162 -0.366722 2.69012 0
M  V30 4011 C 379.618 2.21658 2.83541 0
M  V30 4012 C 379.226 3.69679 2.53065 0
M  V30 4013 C 380.97 2.22428 3.61561 0
M  V30 4014 C 378.877 4.56761 3.75664 0
M  V30 4015 H 377.807 0.469707 0.589823 0
M  V30 4016 H 380.458 1.59763 0.902656 0
M  V30 4017 H 378.84 1.81287 3.52067 0
M  V30 4018 H 380.014 4.18605 1.92631 0
M  V30 4019 H 378.329 3.71384 1.88316 0
M  V30 4020 H 380.926 2.8471 4.52597 0
M  V30 4021 H 381.269 1.22434 3.97889 0
M  V30 4022 H 381.802 2.61259 2.99981 0
M  V30 4023 H 378.541 5.57702 3.44454 0
M  V30 4024 H 378.061 4.12568 4.35371 0
M  V30 4025 H 379.74 4.71509 4.43044 0
M  V30 4026 N 379.872 -1.04064 1.18357 0
M  V30 4027 C 381.118 -1.77528 0.980397 0
M  V30 4028 C 381.451 -1.87948 -0.48879 0
M  V30 4029 O 380.726 -1.3876 -1.36293 0
M  V30 4030 C 381.009 -3.20797 1.63588 0
M  V30 4031 C 380.862 -3.1832 3.17793 0
M  V30 4032 C 382.181 -4.18911 1.34914 0
M  V30 4033 H 379.3 -0.644443 0.357578 0
M  V30 4034 H 381.942 -1.2156 1.46024 0
M  V30 4035 H 380.092 -3.68586 1.22788 0
M  V30 4036 H 381.764 -2.78521 3.67728 0
M  V30 4037 H 380.007 -2.56351 3.49952 0
M  V30 4038 H 380.678 -4.19489 3.58794 0
M  V30 4039 H 383.154 -3.7967 1.70265 0
M  V30 4040 H 382.03 -5.17374 1.83346 0
M  V30 4041 H 382.291 -4.41262 0.272027 0
M  V30 4042 N 381.35 -0.985608 -1.22978 0
M  V30 4043 C 382.26 -0.538548 -2.28335 0
M  V30 4044 C 383.276 0.409163 -1.69121 0
M  V30 4045 O 384.452 0.277797 -1.99475 0
M  V30 4046 C 381.517 0.146867 -3.46389 0
M  V30 4047 C 380.578 -0.842896 -4.20944 0
M  V30 4048 C 379.811 -0.190095 -5.33361 0
M  V30 4049 O 380.034 1.01767 -5.61248 0
M  V30 4050 O 378.968 -0.891289 -5.95264 0
M  V30 4051 H 382.794 -1.41487 -2.68729 0
M  V30 4052 H 380.379 -0.753495 -1.29007 0
M  V30 4053 H 382.261 0.531125 -4.1804 0
M  V30 4054 H 380.936 0.997871 -3.07935 0
M  V30 4055 H 379.843 -1.27795 -3.51595 0
M  V30 4056 H 381.176 -1.66287 -4.6326 0
M  V30 4057 N 382.828 1.3818 -0.7579 0
M  V30 4058 C 384.105 1.94106 -0.241306 0
M  V30 4059 C 384.485 1.69282 1.26122 0
M  V30 4060 O 383.833 1.03378 2.03777 0
M  V30 4061 C 384.043 3.43809 -0.59967 0
M  V30 4062 C 385.391 4.20868 -0.561717 0
M  V30 4063 O 386.415 3.5211 -0.538222 0
M  V30 4064 O 385.274 5.43451 -0.576478 0
M  V30 4065 H 382.368 0.825376 -0.0518042 0
M  V30 4066 H 384.914 1.47548 -0.838315 0
M  V30 4067 H 383.686 3.55403 -1.6372 0
M  V30 4068 H 383.309 3.97592 0.0251197 0
M  V30 4069 N 384.306 0.507319 1.49211 0
M  V30 4070 C 385.531 -0.033725 2.07373 0
M  V30 4071 C 385.956 -1.29485 1.36437 0
M  V30 4072 O 385.314 -1.76294 0.423087 0
M  V30 4073 C 385.362 -0.263945 3.59633 0
M  V30 4074 O 384.466 -1.33737 3.90113 0
M  V30 4075 H 383.807 0.0290331 0.663365 0
M  V30 4076 H 386.337 0.708749 1.91932 0
M  V30 4077 H 386.347 -0.493536 4.05004 0
M  V30 4078 H 385.022 0.657424 4.10671 0
M  V30 4079 H 383.599 -1.09224 3.56545 0
M  V30 4080 N 385.784 -1.5574 0.241426 0
M  V30 4081 C 387.009 -2.0366 -0.392111 0
M  V30 4082 C 387.434 -1.11969 -1.51144 0
M  V30 4083 O 386.792 -0.111594 -1.80956 0
M  V30 4084 C 386.84 -3.49638 -0.882371 0
M  V30 4085 O 385.944 -3.6108 -1.99235 0
M  V30 4086 H 385.285 -0.658379 -0.0862122 0
M  V30 4087 H 387.815 -2.01302 0.365881 0
M  V30 4088 H 387.825 -3.90351 -1.18702 0
M  V30 4089 H 386.5 -4.15852 -0.0632361 0
M  V30 4090 H 385.077 -3.32262 -1.69282 0
M  V30 4091 N 387.262 0.0317525 -1.57568 0
M  V30 4092 C 388.21 1.05165 -2.07468 0
M  V30 4093 C 389.204 1.3761 -0.98792 0
M  V30 4094 O 390.41 1.36546 -1.17282 0
M  V30 4095 H 386.785 0.35666 -0.66204 0
M  V30 4096 H 388.756 0.604958 -2.92203 0
M  V30 4097 C 387.505 2.34488 -2.56731 0
M  V30 4098 H 386.828 2.10383 -3.39969 0
M  V30 4099 H 388.268 3.04203 -2.95358 0
M  V30 4100 C 386.727 3.03266 -1.46736 0
M  V30 4101 O 387.257 3.92988 -0.832069 0
M  V30 4102 N 385.463 2.6455 -1.20256 0
M  V30 4103 H 385.01 1.91674 -1.72102 0
M  V30 4104 H 384.968 3.10886 -0.468737 0
M  V30 4105 N 388.74 1.54641 0.303973 0
M  V30 4106 C 389.989 1.7299 1.03717 0
M  V30 4107 C 390.302 0.521168 1.88529 0
M  V30 4108 O 391.508 0.586408 2.65092 0
M  V30 4109 C 389.964 3.06051 1.89369 0
M  V30 4110 C 389.572 4.34393 1.09574 0
M  V30 4111 C 391.316 3.3376 2.62306 0
M  V30 4112 C 389.223 5.58506 1.94486 0
M  V30 4113 H 388.153 0.64473 0.390947 0
M  V30 4114 H 390.804 1.81124 0.294328 0
M  V30 4115 H 389.186 2.91874 2.67629 0
M  V30 4116 H 390.36 4.59396 0.359485 0
M  V30 4117 H 388.675 4.13597 0.482324 0
M  V30 4118 H 391.272 4.23687 3.26181 0
M  V30 4119 H 391.615 2.52503 3.3098 0
M  V30 4120 H 392.148 3.48894 1.91097 0
M  V30 4121 H 388.887 6.42422 1.30287 0
M  V30 4122 H 388.407 5.37694 2.65792 0
M  V30 4123 H 390.086 5.95651 2.52605 0
M  V30 4124 N 390.218 -0.567019 1.47046 0
M  V30 4125 C 391.148 -1.68482 1.61667 0
M  V30 4126 C 392.129 -1.6358 0.466418 0
M  V30 4127 O 393.314 -1.81354 0.694574 0
M  V30 4128 C 390.444 -3.07124 1.62148 0
M  V30 4129 C 389.398 -3.26867 2.76301 0
M  V30 4130 C 388.724 -4.66196 2.61849 0
M  V30 4131 C 390.024 -3.13186 4.17986 0
M  V30 4132 H 391.718 -1.56502 2.5524 0
M  V30 4133 H 389.264 -0.751486 1.22836 0
M  V30 4134 H 391.217 -3.8516 1.70968 0
M  V30 4135 H 389.941 -3.2004 0.651287 0
M  V30 4136 H 388.6 -2.51237 2.66975 0
M  V30 4137 H 388.248 -4.75898 1.62879 0
M  V30 4138 H 387.948 -4.80356 3.38425 0
M  V30 4139 H 389.472 -5.46379 2.72584 0
M  V30 4140 H 390.886 -3.81049 4.2834 0
M  V30 4141 H 389.283 -3.3886 4.95272 0
M  V30 4142 H 390.353 -2.10057 4.3704 0
M  V30 4143 N 391.696 -1.35014 -0.812953 0
M  V30 4144 C 392.944 -1.27678 -1.56661 0
M  V30 4145 C 393.265 0.150359 -1.94419 0
M  V30 4146 O 392.535 1.08532 -1.63088 0
M  V30 4147 H 391.115 -0.469602 -0.580933 0
M  V30 4148 H 393.777 -1.69043 -0.970076 0
M  V30 4149 H 392.873 -1.88833 -2.48492 0
M  V30 4150 N 393.175 1.03435 -1.18907 0
M  V30 4151 C 394.422 1.76743 -0.988334 0
M  V30 4152 C 394.75 1.88447 0.481441 0
M  V30 4153 O 394.005 1.39383 1.37371 0
M  V30 4154 C 394.304 3.19792 -1.59586 0
M  V30 4155 C 393.97 3.28108 -3.09283 0
M  V30 4156 C 392.632 3.30084 -3.5014 0
M  V30 4157 C 394.984 3.27696 -4.05296 0
M  V30 4158 C 392.312 3.29299 -4.85571 0
M  V30 4159 C 394.664 3.28451 -5.4065 0
M  V30 4160 C 393.328 3.28723 -5.80946 0
M  V30 4161 H 392.598 0.64675 -0.361657 0
M  V30 4162 H 395.245 1.21442 -1.48068 0
M  V30 4163 H 393.55 3.78136 -1.02568 0
M  V30 4164 H 395.247 3.75171 -1.41589 0
M  V30 4165 H 391.837 3.27294 -2.76725 0
M  V30 4166 H 396.021 3.25354 -3.74778 0
M  V30 4167 H 391.277 3.2783 -5.16079 0
M  V30 4168 H 395.451 3.27082 -6.14809 0
M  V30 4169 H 393.078 3.27868 -6.85862 0
M  V30 4170 N 394.653 0.992116 1.22453 0
M  V30 4171 C 395.878 0.685644 1.95739 0
M  V30 4172 C 396.303 -0.743 1.72804 0
M  V30 4173 O 395.661 -1.50778 1.00676 0
M  V30 4174 C 395.709 0.996293 3.46564 0
M  V30 4175 O 394.813 0.0945512 4.12292 0
M  V30 4176 H 394.154 0.256694 0.612376 0
M  V30 4177 H 396.684 1.32888 1.5557 0
M  V30 4178 H 396.694 0.93781 3.97076 0
M  V30 4179 H 395.369 2.03733 3.62582 0
M  V30 4180 H 393.946 0.208451 3.72317 0
M  V30 4181 N 396.131 -1.37776 0.765217 0
M  V30 4182 C 397.064 -2.28008 0.0935025 0
M  V30 4183 C 398.042 -1.45985 -0.716047 0
M  V30 4184 O 399.226 -1.75331 -0.692203 0
M  V30 4185 C 396.353 -3.27228 -0.874052 0
M  V30 4186 C 395.399 -4.26239 -0.149307 0
M  V30 4187 S 396.232 -5.22827 1.15809 0
M  V30 4188 C 397.388 -6.256 0.193906 0
M  V30 4189 H 397.621 -2.84631 0.858637 0
M  V30 4190 H 395.154 -1.43952 0.558313 0
M  V30 4191 H 397.112 -3.84902 -1.42691 0
M  V30 4192 H 395.773 -2.69565 -1.61225 0
M  V30 4193 H 394.966 -4.96213 -0.88254 0
M  V30 4194 H 394.568 -3.7252 0.332366 0
M  V30 4195 H 396.86 -6.74508 -0.636011 0
M  V30 4196 H 397.803 -7.02838 0.861638 0
M  V30 4197 H 398.211 -5.64173 -0.191975 0
M  V30 4198 N 397.609 -0.515225 -1.4894 0
M  V30 4199 C 398.856 0.024215 -2.02486 0
M  V30 4200 C 399.184 1.35671 -1.39368 0
M  V30 4201 O 398.439 1.88566 -0.523574 0
M  V30 4202 C 398.738 0.210595 -3.56779 0
M  V30 4203 C 398.404 -1.04569 -4.38607 0
M  V30 4204 C 397.066 -1.39002 -4.60686 0
M  V30 4205 C 399.418 -1.88008 -4.86109 0
M  V30 4206 C 396.746 -2.568 -5.27514 0
M  V30 4207 C 399.098 -3.04972 -5.54234 0
M  V30 4208 C 397.762 -3.39768 -5.74555 0
M  V30 4209 H 397.032 0.00886088 -0.740947 0
M  V30 4210 H 399.679 -0.678263 -1.79086 0
M  V30 4211 H 397.984 0.99572 -3.78936 0
M  V30 4212 H 399.681 0.642659 -3.95817 0
M  V30 4213 H 396.271 -0.767497 -4.21672 0
M  V30 4214 H 400.455 -1.62719 -4.68867 0
M  V30 4215 H 395.711 -2.8398 -5.41447 0
M  V30 4216 H 399.885 -3.69943 -5.90013 0
M  V30 4217 H 397.512 -4.31148 -6.26112 0
M  V30 4218 N 399.087 1.5561 -0.249682 0
M  V30 4219 C 400.035 2.22894 0.664906 0
M  V30 4220 C 401.029 1.21743 1.17792 0
M  V30 4221 O 402.235 1.39748 1.13449 0
M  V30 4222 H 398.61 0.715022 0.232912 0
M  V30 4223 H 400.581 2.98307 0.0742998 0
M  V30 4224 C 399.33 2.94424 1.84959 0
M  V30 4225 H 398.653 3.72031 1.46399 0
M  V30 4226 H 400.093 3.44862 2.4667 0
M  V30 4227 C 398.552 1.98454 2.72245 0
M  V30 4228 O 399.082 1.51939 3.71857 0
M  V30 4229 N 397.288 1.65496 2.38871 0
M  V30 4230 H 396.835 2.03517 1.57919 0
M  V30 4231 H 396.793 1.0155 2.97548 0
M  V30 4232 N 400.565 -0.0233959 1.57583 0
M  V30 4233 C 401.793 -0.724682 1.93794 0
M  V30 4234 C 402.208 -1.68588 0.849912 0
M  V30 4235 O 401.565 -1.81676 -0.173204 0
M  V30 4236 C 401.616 -1.47684 3.29957 0
M  V30 4237 O 401.337 -0.554222 4.3458 0
M  V30 4238 C 402.838 -2.27477 3.80485 0
M  V30 4239 H 400.058 -0.203317 0.639455 0
M  V30 4240 H 402.602 0.0207653 2.04489 0
M  V30 4241 H 400.757 -2.17412 3.20641 0
M  V30 4242 H 401.171 -1.08232 5.13212 0
M  V30 4243 H 402.645 -2.7564 4.78254 0
M  V30 4244 H 403.122 -3.09144 3.11972 0
M  V30 4245 H 403.728 -1.62813 3.92902 0
M  V30 4246 N 402.043 -1.548 -0.295768 0
M  V30 4247 C 403.268 -1.78653 -1.05346 0
M  V30 4248 C 403.693 -0.546894 -1.79974 0
M  V30 4249 O 403.051 0.502763 -1.7419 0
M  V30 4250 C 403.099 -2.99679 -2.00561 0
M  V30 4251 O 402.203 -2.7317 -3.08953 0
M  V30 4252 H 401.544 -0.59116 -0.302367 0
M  V30 4253 H 404.074 -2.01895 -0.331598 0
M  V30 4254 H 404.084 -3.27793 -2.42932 0
M  V30 4255 H 402.759 -3.89562 -1.4565 0
M  V30 4256 H 401.336 -2.56089 -2.71059 0
M  V30 4257 N 403.521 0.559213 -1.47345 0
M  V30 4258 C 404.471 1.66192 -1.5609 0
M  V30 4259 C 405.455 1.55323 -0.419957 0
M  V30 4260 O 406.647 1.63839 -0.669762 0
M  V30 4261 C 403.776 3.0497 -1.57634 0
M  V30 4262 C 402.862 3.2105 -2.77106 0
M  V30 4263 N 403.253 3.07203 -4.01821 0
M  V30 4264 C 401.551 3.52046 -2.73825 0
M  V30 4265 C 402.252 3.25919 -4.81821 0
M  V30 4266 N 401.228 3.52161 -4.14106 0
M  V30 4267 H 405.03 1.54052 -2.5029 0
M  V30 4268 H 402.544 0.763914 -1.43311 0
M  V30 4269 H 404.541 3.84142 -1.61989 0
M  V30 4270 H 403.201 3.18224 -0.645281 0
M  V30 4271 H 404.212 2.84572 -4.32711 0
M  V30 4272 H 400.889 3.71839 -1.89848 0
M  V30 4273 H 402.279 3.20198 -5.90697 0
M  V30 4274 N 404.999 1.35443 0.805782 0
M  V30 4275 C 406.41 1.25768 1.37983 0
M  V30 4276 C 406.761 -0.10958 1.95894 0
M  V30 4277 O 405.886 -1.01056 1.91355 0
M  V30 4278 C 406.481 2.27727 2.5085 0
M  V30 4279 C 405.04 2.2179 3.04115 0
M  V30 4280 C 404.187 2.13393 1.77084 0
M  V30 4281 H 407.138 1.4656 0.608752 0
M  V30 4282 H 407.159 1.90422 3.29424 0
M  V30 4283 H 406.671 3.27227 2.08671 0
M  V30 4284 H 404.772 1.25703 3.50756 0
M  V30 4285 H 404.885 3.13788 3.62042 0
M  V30 4286 H 403.249 1.59384 1.98668 0
M  V30 4287 H 404.032 3.14755 1.37056 0
M  V30 4288 N 406.477 -1.02803 1.19454 0
M  V30 4289 C 407.724 -1.76217 0.997693 0
M  V30 4290 C 408.052 -1.887 -0.47144 0
M  V30 4291 O 407.307 -1.4011 -1.3663 0
M  V30 4292 C 407.606 -3.18941 1.6128 0
M  V30 4293 C 407.272 -3.26463 3.11019 0
M  V30 4294 C 405.934 -3.28223 3.51885 0
M  V30 4295 C 408.286 -3.25542 4.07028 0
M  V30 4296 C 405.614 -3.26719 4.8731 0
M  V30 4297 C 407.966 -3.25579 5.42385 0
M  V30 4298 C 406.63 -3.25637 5.82681 0
M  V30 4299 H 405.9 -0.644823 0.365082 0
M  V30 4300 H 408.547 -1.20655 1.4871 0
M  V30 4301 H 406.852 -3.77587 1.04572 0
M  V30 4302 H 408.549 -3.74415 1.43577 0
M  V30 4303 H 405.139 -3.25822 2.78457 0
M  V30 4304 H 409.323 -3.23362 3.76498 0
M  V30 4305 H 404.579 -3.25089 5.1781 0
M  V30 4306 H 408.753 -3.23817 6.16535 0
M  V30 4307 H 406.38 -3.24226 6.87591 0
M  V30 4308 N 407.956 -0.998596 -1.21925 0
M  V30 4309 C 409.186 -0.695276 -1.94549 0
M  V30 4310 C 409.594 0.745079 -1.73911 0
M  V30 4311 O 408.937 1.51507 -1.03881 0
M  V30 4312 C 408.999 -0.928485 -3.47303 0
M  V30 4313 C 408.663 -2.35443 -3.91683 0
M  V30 4314 C 409.66 -3.33428 -3.98901 0
M  V30 4315 C 407.345 -2.69038 -4.24174 0
M  V30 4316 C 409.339 -4.63079 -4.37992 0
M  V30 4317 C 407.026 -3.98906 -4.62944 0
M  V30 4318 C 408.024 -4.95738 -4.69822 0
M  V30 4319 O 407.712 -6.23285 -5.07711 0
M  V30 4320 H 407.444 -0.255902 -0.625692 0
M  V30 4321 H 409.998 -1.33767 -1.5587 0
M  V30 4322 H 408.228 -0.228917 -3.86022 0
M  V30 4323 H 409.917 -0.619539 -4.01144 0
M  V30 4324 H 410.683 -3.08807 -3.73983 0
M  V30 4325 H 406.562 -1.94367 -4.18022 0
M  V30 4326 H 410.106 -5.38658 -4.43275 0
M  V30 4327 H 406.003 -4.23314 -4.87314 0
M  V30 4328 H 406.771 -6.27306 -5.25766 0
M  V30 4329 N 409.434 1.37368 -0.772513 0
M  V30 4330 C 410.845 1.8231 -0.402493 0
M  V30 4331 C 411.196 1.6436 1.07146 0
M  V30 4332 O 410.321 1.15514 1.82991 0
M  V30 4333 C 410.916 3.30979 -0.723776 0
M  V30 4334 C 409.475 3.74195 -0.406802 0
M  V30 4335 C 408.622 2.59885 -0.967218 0
M  V30 4336 H 411.573 1.25829 -0.967099 0
M  V30 4337 H 411.594 3.80499 -0.00870832 0
M  V30 4338 H 411.106 3.44011 -1.7966 0
M  V30 4339 H 409.207 3.66732 0.658673 0
M  V30 4340 H 409.32 4.7027 -0.915588 0
M  V30 4341 H 407.684 2.51674 -0.391416 0
M  V30 4342 H 408.467 2.7571 -2.04546 0
M  V30 4343 N 410.912 0.523116 1.48665 0
M  V30 4344 C 411.822 -0.247406 2.33292 0
M  V30 4345 C 412.838 -0.945769 1.46052 0
M  V30 4346 O 414.014 -0.922253 1.79043 0
M  V30 4347 C 411.079 -1.28487 3.22012 0
M  V30 4348 C 410.14 -0.597592 4.2512 0
M  V30 4349 C 409.373 -1.58563 5.09601 0
M  V30 4350 O 409.596 -2.81763 4.95949 0
M  V30 4351 O 408.53 -1.12879 5.91221 0
M  V30 4352 H 412.356 0.445869 3.00409 0
M  V30 4353 H 409.941 0.284128 1.46673 0
M  V30 4354 H 411.823 -1.88459 3.7691 0
M  V30 4355 H 410.498 -1.96068 2.57564 0
M  V30 4356 H 409.405 0.0424407 3.74076 0
M  V30 4357 H 410.738 0.0361517 4.92187 0
M  V30 4358 N 412.39 -1.55475 0.257931 0
M  V30 4359 C 413.637 -1.99207 -0.363728 0
M  V30 4360 C 413.965 -1.1462 -1.57139 0
M  V30 4361 O 413.22 -0.199653 -1.94679 0
M  V30 4362 C 413.519 -3.48183 -0.806433 0
M  V30 4363 C 413.185 -4.49936 0.294684 0
M  V30 4364 C 411.847 -4.77481 0.597076 0
M  V30 4365 C 414.199 -5.10769 1.03751 0
M  V30 4366 C 411.527 -5.63132 1.64618 0
M  V30 4367 C 413.879 -5.97558 2.07622 0
M  V30 4368 C 412.543 -6.23432 2.38514 0
M  V30 4369 H 411.813 -0.728949 -0.133097 0
M  V30 4370 H 414.46 -1.8793 0.368059 0
M  V30 4371 H 412.765 -3.56848 -1.61761 0
M  V30 4372 H 414.462 -3.79415 -1.29789 0
M  V30 4373 H 411.052 -4.28572 0.0488649 0
M  V30 4374 H 415.236 -4.89527 0.817149 0
M  V30 4375 H 410.492 -5.8143 1.89074 0
M  V30 4376 H 414.666 -6.43735 2.65666 0
M  V30 4377 H 412.293 -6.89594 3.19943 0
M  V30 4378 N 413.868 0.0150385 -1.57593 0
M  V30 4379 C 415.114 0.704043 -1.90187 0
M  V30 4380 C 415.447 1.74249 -0.857366 0
M  V30 4381 O 414.722 1.94092 0.125843 0
M  V30 4382 C 415.005 1.36087 -3.33395 0
M  V30 4383 C 414.858 0.334981 -4.48551 0
M  V30 4384 C 416.177 2.29112 -3.7576 0
M  V30 4385 H 413.296 0.254475 -0.691673 0
M  V30 4386 H 415.938 -0.0331678 -1.89971 0
M  V30 4387 H 414.088 1.98922 -3.3371 0
M  V30 4388 H 415.76 -0.292534 -4.60372 0
M  V30 4389 H 414.003 -0.344325 -4.32431 0
M  V30 4390 H 414.674 0.833316 -5.45674 0
M  V30 4391 H 417.15 1.76308 -3.76902 0
M  V30 4392 H 416.026 2.72043 -4.76743 0
M  V30 4393 H 416.287 3.16385 -3.08793 0
M  V30 4394 N 415.346 1.54954 0.287554 0
M  V30 4395 C 416.762 1.46469 0.633964 0
M  V30 4396 C 416.962 0.666865 1.90145 0
M  V30 4397 O 416.018 0.179906 2.51858 0
M  V30 4398 C 417.331 2.90556 0.774454 0
M  V30 4399 C 418.879 3.00681 0.869462 0
M  V30 4400 C 419.354 4.45993 1.04184 0
M  V30 4401 N 420.845 4.4976 1.10772 0
M  V30 4402 C 421.58 5.59393 1.25964 0
M  V30 4403 N 421.076 6.78923 1.37968 0
M  V30 4404 N 422.869 5.47107 1.28959 0
M  V30 4405 H 415.02 2.05288 -0.545041 0
M  V30 4406 H 417.283 0.930305 -0.182308 0
M  V30 4407 H 416.989 3.51594 -0.086207 0
M  V30 4408 H 416.863 3.38743 1.6593 0
M  V30 4409 H 419.25 2.39749 1.7206 0
M  V30 4410 H 419.331 2.55769 -0.0396831 0
M  V30 4411 H 418.975 5.07524 0.195422 0
M  V30 4412 H 418.905 4.88548 1.96542 0
M  V30 4413 H 421.396 3.63651 1.02794 0
M  V30 4414 H 421.709 7.58231 1.49353 0
M  V30 4415 H 420.054 6.81763 1.34999 0
M  V30 4416 H 423.245 4.52668 1.19202 0
M  V30 4417 H 423.418 6.32595 1.40455 0
M  V30 4418 N 416.824 -0.551391 1.4764 0
M  V30 4419 C 418.049 -1.33837 1.58437 0
M  V30 4420 C 418.474 -1.866 0.237063 0
M  V30 4421 O 417.832 -1.6328 -0.787994 0
M  V30 4422 C 417.88 -2.48014 2.61766 0
M  V30 4423 O 416.984 -3.50419 2.1744 0
M  V30 4424 H 416.325 -0.397299 0.532024 0
M  V30 4425 H 418.855 -0.665759 1.93465 0
M  V30 4426 H 418.865 -2.94503 2.82369 0
M  V30 4427 H 417.54 -2.08969 3.5959 0
M  V30 4428 H 416.117 -3.10196 2.06961 0
M  V30 4429 N 418.302 -1.35869 -0.798587 0
M  V30 4430 C 419.232 -1.32118 -1.92528 0
M  V30 4431 C 420.213 -0.194209 -1.68988 0
M  V30 4432 O 421.398 -0.390426 -1.90235 0
M  V30 4433 C 418.528 -1.10047 -3.29404 0
M  V30 4434 C 417.482 -2.19471 -3.67446 0
M  V30 4435 C 416.808 -1.82555 -5.02571 0
M  V30 4436 C 418.108 -3.61495 -3.76987 0
M  V30 4437 H 419.802 -2.26394 -1.95924 0
M  V30 4438 H 417.348 -1.08981 -0.94123 0
M  V30 4439 H 419.301 -1.06061 -4.07835 0
M  V30 4440 H 418.025 -0.122195 -3.26371 0
M  V30 4441 H 416.684 -2.22568 -2.91306 0
M  V30 4442 H 416.332 -0.833249 -4.9605 0
M  V30 4443 H 416.032 -2.5581 -5.28995 0
M  V30 4444 H 417.556 -1.80108 -5.83432 0
M  V30 4445 H 418.97 -3.60676 -4.4563 0
M  V30 4446 H 417.367 -4.33577 -4.14887 0
M  V30 4447 H 418.437 -3.97065 -2.78329 0
M  V30 4448 N 419.78 1.02168 -1.19998 0
M  V30 4449 C 420.728 2.12717 -0.940967 0
M  V30 4450 C 421.722 1.69069 0.105841 0
M  V30 4451 O 422.928 1.79946 -0.0440583 0
M  V30 4452 H 419.303 0.695108 -0.28693 0
M  V30 4453 H 421.274 2.3175 -1.87975 0
M  V30 4454 C 420.023 3.44027 -0.504049 0
M  V30 4455 H 419.346 3.78036 -1.30112 0
M  V30 4456 H 420.786 4.22452 -0.361991 0
M  V30 4457 C 419.245 3.27678 0.782878 0
M  V30 4458 O 419.775 3.56949 1.84256 0
M  V30 4459 N 417.981 2.80943 0.742921 0
M  V30 4460 H 417.528 2.57322 -0.119687 0
M  V30 4461 H 417.486 2.70385 1.60435 0
M  V30 4462 N 421.258 1.00505 1.21394 0
M  V30 4463 C 422.191 0.51032 2.22421 0
M  V30 4464 C 423.169 -0.436 1.56645 0
M  V30 4465 O 424.353 -0.358709 1.85055 0
M  V30 4466 C 421.48 -0.258733 3.3771 0
M  V30 4467 C 420.526 0.635395 4.2174 0
M  V30 4468 S 421.359 2.09783 4.92698 0
M  V30 4469 C 422.515 1.33862 6.11418 0
M  V30 4470 H 422.748 1.36637 2.64041 0
M  V30 4471 H 420.281 0.812991 1.31262 0
M  V30 4472 H 422.239 -0.696372 4.0455 0
M  V30 4473 H 420.9 -1.0902 2.94573 0
M  V30 4474 H 420.093 0.0430189 5.03982 0
M  V30 4475 H 419.695 1.01031 3.60095 0
M  V30 4476 H 421.987 0.612541 6.74725 0
M  V30 4477 H 422.93 2.13675 6.75092 0
M  V30 4478 H 423.338 0.846568 5.58116 0
M  V30 4479 N 422.737 -1.36956 0.779787 0
M  V30 4480 C 423.962 -2.04283 0.358224 0
M  V30 4481 C 424.387 -1.58422 -1.01411 0
M  V30 4482 O 423.745 -0.748179 -1.65142 0
M  V30 4483 C 423.793 -3.58152 0.419479 0
M  V30 4484 O 422.897 -4.08342 -0.577142 0
M  V30 4485 H 422.238 -0.645967 0.153698 0
M  V30 4486 H 424.768 -1.75108 1.05822 0
M  V30 4487 H 424.778 -4.07041 0.279636 0
M  V30 4488 H 423.453 -3.90886 1.42061 0
M  V30 4489 H 422.03 -3.70751 -0.399755 0
M  V30 4490 N 424.215 -0.530993 -1.48385 0
M  V30 4491 C 425.461 -0.00538653 -2.03399 0
M  V30 4492 C 425.816 1.31899 -1.40073 0
M  V30 4493 O 425.109 1.83901 -0.537676 0
M  V30 4494 C 425.303 0.172742 -3.56982 0
M  V30 4495 C 425.132 -1.13282 -4.35198 0
M  V30 4496 C 423.902 -1.69296 -4.76096 0
M  V30 4497 C 426.1 -2.04367 -4.71952 0
M  V30 4498 N 424.082 -2.9413 -5.38851 0
M  V30 4499 C 425.453 -3.13777 -5.34737 0
M  V30 4500 C 427.508 -2.04681 -4.53883 0
M  V30 4501 C 426.211 -4.23567 -5.81363 0
M  V30 4502 C 428.237 -3.13466 -5.01491 0
M  V30 4503 C 427.599 -4.21595 -5.64302 0
M  V30 4504 H 423.698 -0.0434945 -0.780789 0
M  V30 4505 H 426.282 -0.712495 -1.81195 0
M  V30 4506 H 424.453 0.848937 -3.79009 0
M  V30 4507 H 426.185 0.698046 -3.98634 0
M  V30 4508 H 422.94 -1.23422 -4.57235 0
M  V30 4509 H 423.364 -3.57689 -5.74794 0
M  V30 4510 H 428.006 -1.22378 -4.04702 0
M  V30 4511 H 425.724 -5.06648 -6.2955 0
M  V30 4512 H 429.31 -3.14765 -4.893 0
M  V30 4513 H 428.19 -5.04384 -6.00472 0
M  V30 4514 N 425.693 1.55336 -0.266172 0
M  V30 4515 C 427.109 1.59356 0.0882065 0
M  V30 4516 C 427.309 1.2834 1.55342 0
M  V30 4517 O 426.365 1.03996 2.30089 0
M  V30 4518 C 427.678 2.99409 -0.278364 0
M  V30 4519 C 429.226 3.12196 -0.224243 0
M  V30 4520 C 429.701 4.545 -0.565123 0
M  V30 4521 N 431.192 4.60313 -0.51634 0
M  V30 4522 C 431.927 5.68434 -0.753013 0
M  V30 4523 N 431.423 6.84738 -1.05383 0
M  V30 4524 N 433.216 5.57942 -0.682414 0
M  V30 4525 H 425.367 1.73764 -1.22147 0
M  V30 4526 H 427.63 0.809822 -0.492841 0
M  V30 4527 H 427.336 3.2691 -1.29703 0
M  V30 4528 H 427.21 3.75228 0.385186 0
M  V30 4529 H 429.597 2.84464 0.78512 0
M  V30 4530 H 429.678 2.38609 -0.921922 0
M  V30 4531 H 429.322 4.82956 -1.57213 0
M  V30 4532 H 429.252 5.26374 0.154248 0
M  V30 4533 H 431.743 3.7676 -0.29335 0
M  V30 4534 H 432.056 7.63088 -1.22133 0
M  V30 4535 H 430.401 6.86375 -1.09151 0
M  V30 4536 H 433.592 4.65958 -0.44731 0
M  V30 4537 H 433.765 6.4213 -0.870248 0
M  V30 4538 N 427.171 -0.0066808 1.57599 0
M  V30 4539 C 428.081 -1.01671 2.11424 0
M  V30 4540 C 429.097 -1.38143 1.05795 0
M  V30 4541 O 430.273 -1.47011 1.37658 0
M  V30 4542 C 427.338 -2.29192 2.60139 0
M  V30 4543 C 426.399 -1.99094 3.80342 0
M  V30 4544 C 425.632 -3.20535 4.26724 0
M  V30 4545 O 425.855 -4.3199 3.72479 0
M  V30 4546 O 424.789 -3.04924 5.18946 0
M  V30 4547 H 428.615 -0.589181 2.9793 0
M  V30 4548 H 426.2 -0.225091 1.47695 0
M  V30 4549 H 428.082 -3.0412 2.917 0
M  V30 4550 H 426.757 -2.71195 1.76733 0
M  V30 4551 H 425.664 -1.21663 3.53764 0
M  V30 4552 H 426.997 -1.61931 4.648 0
M  V30 4553 N 428.649 -1.55105 -0.279332 0
M  V30 4554 C 429.597 -1.88333 -1.36505 0
M  V30 4555 C 430.591 -0.759043 -1.51443 0
M  V30 4556 O 431.797 -0.943312 -1.53302 0
M  V30 4557 H 428.172 -0.59766 -0.456406 0
M  V30 4558 H 430.143 -2.79041 -1.05728 0
M  V30 4559 C 428.892 -2.16628 -2.7197 0
M  V30 4560 H 428.215 -3.02624 -2.61264 0
M  V30 4561 H 429.655 -2.43803 -3.46895 0
M  V30 4562 C 428.114 -0.971807 -3.22579 0
M  V30 4563 O 428.644 -0.203228 -4.01186 0
M  V30 4564 N 426.85 -0.771238 -2.80179 0
M  V30 4565 H 426.397 -1.39792 -2.1637 0
M  V30 4566 H 426.355 0.0263667 -3.14389 0
M  V30 4567 N 430.127 0.543554 -1.4793 0
M  V30 4568 C 431.367 1.31072 -1.56843 0
M  V30 4569 C 431.731 1.90604 -0.231124 0
M  V30 4570 O 432.932 2.68091 -0.195165 0
M  V30 4571 C 431.203 2.38106 -2.66533 0
M  V30 4572 S 432.762 3.24729 -2.95122 0
M  V30 4573 H 429.58 0.446035 -0.553691 0
M  V30 4574 H 432.182 0.620777 -1.85382 0
M  V30 4575 H 430.886 1.92828 -3.62278 0
M  V30 4576 H 430.417 3.11824 -2.39852 0
M  V30 4577 H 432.432 4.37891 -2.3338 0
M  V30 4578 N 431.605 1.3629 0.791371 0
M  V30 4579 C 432.515 1.32606 1.93527 0
M  V30 4580 C 433.531 0.228541 1.72493 0
M  V30 4581 O 434.707 0.460571 1.96063 0
M  V30 4582 C 431.772 1.11271 3.28359 0
M  V30 4583 C 430.833 2.3048 3.62185 0
M  V30 4584 C 430.066 2.10154 4.90583 0
M  V30 4585 O 430.289 1.07572 5.60165 0
M  V30 4586 O 429.223 2.97884 5.23019 0
M  V30 4587 H 433.049 2.28909 1.99585 0
M  V30 4588 H 430.634 1.16818 0.931344 0
M  V30 4589 H 432.516 1.01283 4.09047 0
M  V30 4590 H 431.191 0.180292 3.23198 0
M  V30 4591 H 430.098 2.46036 2.81811 0
M  V30 4592 H 431.431 3.22221 3.72068 0
M  V30 4593 N 433.083 -1.0153 1.20538 0
M  V30 4594 C 434.046 -2.0826 0.957098 0
M  V30 4595 C 435.046 -1.60657 -0.0678655 0
M  V30 4596 O 436.236 -1.73385 0.168332 0
M  V30 4597 C 433.368 -3.38033 0.441188 0
M  V30 4598 H 434.561 -2.31719 1.90384 0
M  V30 4599 H 432.114 -1.1835 1.02093 0
M  V30 4600 H 432.849 -3.20249 -0.510961 0
M  V30 4601 H 432.634 -3.73911 1.18038 0
M  V30 4602 H 434.124 -4.16613 0.287009 0
M  V30 4603 N 434.561 -1.01147 -1.20859 0
M  V30 4604 C 435.786 -0.716698 -1.94623 0
M  V30 4605 C 436.211 0.715415 -1.73964 0
M  V30 4606 O 435.569 1.49157 -1.03062 0
M  V30 4607 C 435.617 -1.0513 -3.44935 0
M  V30 4608 O 434.721 -0.160131 -4.12089 0
M  V30 4609 H 434.062 -0.266404 -0.608214 0
M  V30 4610 H 436.592 -1.35346 -1.53436 0
M  V30 4611 H 436.602 -1.00086 -3.95533 0
M  V30 4612 H 435.277 -2.09475 -3.59295 0
M  V30 4613 H 433.854 -0.267657 -3.71938 0
M  V30 4614 N 436.039 1.36541 -0.78704 0
M  V30 4615 C 437.267 2.03561 -0.370199 0
M  V30 4616 C 437.682 1.59347 1.01263 0
M  V30 4617 O 437.039 0.781781 1.64907 0
M  V30 4618 C 437.09 3.59033 -0.421614 0
M  V30 4619 O 436.811 4.01634 -1.7499 0
M  V30 4620 C 438.312 4.433 0.00489763 0
M  V30 4621 H 435.532 0.653346 -0.152904 0
M  V30 4622 H 438.076 1.74566 -1.06522 0
M  V30 4623 H 436.231 3.86746 0.224971 0
M  V30 4624 H 436.645 4.96217 -1.69909 0
M  V30 4625 H 438.119 5.51939 -0.0822184 0
M  V30 4626 H 438.596 4.26285 1.05723 0
M  V30 4627 H 439.202 4.20843 -0.614085 0
M  V30 4628 N 437.518 0.538854 1.48102 0
M  V30 4629 C 438.748 0.0122958 2.06596 0
M  V30 4630 C 439.156 -1.27861 1.39457 0
M  V30 4631 O 438.499 -1.77348 0.478907 0
M  V30 4632 C 438.561 -0.273131 3.58461 0
M  V30 4633 C 438.225 0.92561 4.47528 0
M  V30 4634 C 439.222 1.82637 4.86765 0
M  V30 4635 C 436.907 1.13511 4.89306 0
M  V30 4636 C 438.901 2.92047 5.66558 0
M  V30 4637 C 436.588 2.23233 5.68868 0
M  V30 4638 C 437.586 3.12333 6.07402 0
M  V30 4639 O 437.274 4.20155 6.85365 0
M  V30 4640 H 437.006 0.0344283 0.675123 0
M  V30 4641 H 439.56 0.746494 1.91355 0
M  V30 4642 H 437.79 -1.06141 3.71848 0
M  V30 4643 H 439.479 -0.742842 3.99045 0
M  V30 4644 H 440.245 1.67649 4.55103 0
M  V30 4645 H 436.124 0.450835 4.5879 0
M  V30 4646 H 439.668 3.6162 5.96554 0
M  V30 4647 H 435.565 2.38201 5.99942 0
M  V30 4648 H 436.333 4.17975 7.03732 0
M  V30 4649 N 438.996 -1.55193 0.274407 0
M  V30 4650 C 439.926 -2.25471 -0.607032 0
M  V30 4651 C 440.907 -1.24461 -1.15946 0
M  V30 4652 O 442.092 -1.53179 -1.19373 0
M  V30 4653 C 439.222 -2.97526 -1.79153 0
M  V30 4654 C 438.176 -4.05459 -1.37067 0
M  V30 4655 C 437.502 -4.65084 -2.6382 0
M  V30 4656 C 438.802 -5.19691 -0.521389 0
M  V30 4657 H 440.496 -2.99393 -0.0209343 0
M  V30 4658 H 438.042 -1.43997 -0.00862866 0
M  V30 4659 H 439.995 -3.45402 -2.41404 0
M  V30 4660 H 438.719 -2.21138 -2.40344 0
M  V30 4661 H 437.378 -3.58393 -0.771355 0
M  V30 4662 H 437.026 -3.85365 -3.23268 0
M  V30 4663 H 436.726 -5.37961 -2.36372 0
M  V30 4664 H 438.25 -5.15708 -3.26921 0
M  V30 4665 H 439.664 -5.63623 -1.04889 0
M  V30 4666 H 438.061 -5.99126 -0.341825 0
M  V30 4667 H 439.131 -4.82713 0.46 0
M  V30 4668 N 440.474 -0.00167713 -1.576 0
M  V30 4669 C 441.722 0.681471 -1.90264 0
M  V30 4670 C 442.043 1.7422 -0.875924 0
M  V30 4671 O 441.313 1.95709 0.0864412 0
M  V30 4672 H 439.893 0.254696 -0.702239 0
M  V30 4673 H 442.555 -0.0429996 -1.94853 0
M  V30 4674 H 441.651 1.15166 -2.90075 0
M  V30 4675 N 441.952 1.55251 0.271103 0
M  V30 4676 C 443.363 1.66635 0.842007 0
M  V30 4677 C 443.714 0.594631 1.86972 0
M  V30 4678 O 442.839 -0.263532 2.14789 0
M  V30 4679 C 443.434 3.02082 1.53401 0
M  V30 4680 C 441.993 3.15487 2.05293 0
M  V30 4681 C 441.14 2.62438 0.895631 0
M  V30 4682 H 444.091 1.58629 0.0474117 0
M  V30 4683 H 444.112 2.95176 2.40107 0
M  V30 4684 H 443.624 3.80062 0.785786 0
M  V30 4685 H 441.725 2.42284 2.83071 0
M  V30 4686 H 441.838 4.22075 2.26693 0
M  V30 4687 H 440.202 2.19644 1.28953 0
M  V30 4688 H 440.985 3.42923 0.160878 0
M  V30 4689 N 443.43 -0.535701 1.48216 0
M  V30 4690 C 444.393 -1.623 1.61838 0
M  V30 4691 C 445.393 -1.53087 0.492024 0
M  V30 4692 O 446.583 -1.5686 0.757668 0
M  V30 4693 C 443.715 -3.01907 1.58319 0
M  V30 4694 H 444.908 -1.51564 2.58783 0
M  V30 4695 H 442.461 -0.757317 1.36727 0
M  V30 4696 H 443.196 -3.18155 0.628299 0
M  V30 4697 H 442.981 -3.10003 2.40085 0
M  V30 4698 H 444.471 -3.80969 1.71033 0
M  V30 4699 N 444.908 -1.36708 -0.784132 0
M  V30 4700 C 445.838 -1.34153 -1.91116 0
M  V30 4701 C 446.819 -0.212121 -1.68772 0
M  V30 4702 O 448.004 -0.410581 -1.8981 0
M  V30 4703 C 445.134 -1.13535 -3.28218 0
M  V30 4704 C 444.088 -2.23356 -3.65097 0
M  V30 4705 C 443.414 -1.87875 -5.00607 0
M  V30 4706 C 444.714 -3.65473 -3.73131 0
M  V30 4707 H 446.408 -2.28459 -1.93512 0
M  V30 4708 H 443.954 -1.09973 -0.929618 0
M  V30 4709 H 445.907 -1.10381 -4.06687 0
M  V30 4710 H 444.631 -0.156804 -3.26223 0
M  V30 4711 H 443.29 -2.25645 -2.88929 0
M  V30 4712 H 442.938 -0.885814 -4.95139 0
M  V30 4713 H 442.638 -2.61406 -5.26252 0
M  V30 4714 H 444.162 -1.86286 -5.81489 0
M  V30 4715 H 445.576 -3.65382 -4.41779 0
M  V30 4716 H 443.973 -4.37953 -4.10265 0
M  V30 4717 H 445.043 -3.99995 -2.74102 0
M  V30 4718 N 446.386 1.0089 -1.21074 0
M  V30 4719 C 447.611 1.78727 -1.05221 0
M  V30 4720 C 448.036 1.83932 0.393795 0
M  V30 4721 O 447.394 1.28004 1.28393 0
M  V30 4722 C 447.442 3.20665 -1.64944 0
M  V30 4723 O 446.546 4.02632 -0.892273 0
M  V30 4724 H 445.887 0.550973 -0.370574 0
M  V30 4725 H 448.417 1.26847 -1.60534 0
M  V30 4726 H 448.427 3.71352 -1.69002 0
M  V30 4727 H 447.102 3.16191 -2.70177 0
M  V30 4728 H 445.679 3.61207 -0.926492 0
M  V30 4729 N 447.864 1.01787 1.20321 0
M  V30 4730 C 448.827 0.593972 2.2137 0
M  V30 4731 C 449.827 -0.336553 1.57239 0
M  V30 4732 O 451.017 -0.125069 1.7375 0
M  V30 4733 C 448.149 -0.132433 3.40643 0
M  V30 4734 H 449.342 1.48791 2.60387 0
M  V30 4735 H 446.895 0.807803 1.33807 0
M  V30 4736 H 447.63 -1.04123 3.0713 0
M  V30 4737 H 447.415 0.53605 3.88418 0
M  V30 4738 H 448.905 -0.416314 4.1552 0
M  V30 4739 N 449.342 -1.36122 0.79427 0
M  V30 4740 C 450.305 -2.28309 0.201889 0
M  V30 4741 C 451.305 -1.49041 -0.603603 0
M  V30 4742 O 452.495 -1.68964 -0.423888 0
M  V30 4743 C 449.627 -3.3321 -0.719978 0
M  V30 4744 H 450.82 -2.82208 1.01481 0
M  V30 4745 H 448.373 -1.45768 0.564037 0
M  V30 4746 H 449.108 -2.84475 -1.55706 0
M  V30 4747 H 448.893 -3.91835 -0.144266 0
M  V30 4748 H 450.383 -4.02044 -1.12916 0
M  V30 4749 N 450.82 -0.546701 -1.47814 0
M  V30 4750 C 451.75 0.195317 -2.32682 0
M  V30 4751 C 452.731 0.918981 -1.43139 0
M  V30 4752 O 453.916 0.901501 -1.72008 0
M  V30 4753 C 451.046 1.23237 -3.247 0
M  V30 4754 C 450 0.625818 -4.234 0
M  V30 4755 C 449.326 1.76674 -5.04669 0
M  V30 4756 C 450.626 -0.413515 -5.2066 0
M  V30 4757 H 452.32 -0.513184 -2.94969 0
M  V30 4758 H 449.866 -0.248241 -1.41844 0
M  V30 4759 H 451.819 1.75955 -3.82907 0
M  V30 4760 H 450.543 1.97067 -2.60446 0
M  V30 4761 H 449.202 0.120023 -3.66403 0
M  V30 4762 H 448.85 2.49383 -4.36826 0
M  V30 4763 H 448.55 1.36673 -5.71484 0
M  V30 4764 H 450.074 2.29738 -5.65732 0
M  V30 4765 H 451.488 0.0272042 -5.73294 0
M  V30 4766 H 449.885 -0.731825 -5.95621 0
M  V30 4767 H 450.955 -1.31325 -4.66778 0
M  V30 4768 N 452.299 1.55045 -0.282633 0
M  V30 4769 C 453.232 2.18951 0.64311 0
M  V30 4770 C 454.21 1.15287 1.14664 0
M  V30 4771 O 455.394 1.43846 1.21822 0
M  V30 4772 C 452.521 2.81874 1.87789 0
M  V30 4773 C 451.567 3.98906 1.50919 0
M  V30 4774 S 452.4 5.3234 0.580884 0
M  V30 4775 C 453.556 5.98737 1.82387 0
M  V30 4776 H 453.789 2.97131 0.100138 0
M  V30 4777 H 451.322 1.54255 -0.0668514 0
M  V30 4778 H 453.28 3.18757 2.58658 0
M  V30 4779 H 451.941 2.03573 2.392 0
M  V30 4780 H 451.134 4.4165 2.42819 0
M  V30 4781 H 450.736 3.63485 0.88061 0
M  V30 4782 H 453.028 6.18427 2.76684 0
M  V30 4783 H 453.971 6.93318 1.4393 0
M  V30 4784 H 454.379 5.28177 1.99223 0
M  V30 4785 N 453.777 0.010035 1.57597 0
M  V30 4786 C 455.024 -0.6727 1.91 0
M  V30 4787 C 455.352 -1.73219 0.884614 0
M  V30 4788 O 454.607 -1.95395 -0.109215 0
M  V30 4789 C 454.906 -1.34434 3.31153 0
M  V30 4790 C 454.572 -0.417083 4.48967 0
M  V30 4791 C 453.234 -0.161809 4.80928 0
M  V30 4792 C 455.586 0.220753 5.20732 0
M  V30 4793 C 452.914 0.739426 5.82022 0
M  V30 4794 C 455.266 1.10993 6.22787 0
M  V30 4795 C 453.93 1.37428 6.532 0
M  V30 4796 H 453.2 -0.246158 0.698918 0
M  V30 4797 H 455.847 0.0677145 1.9138 0
M  V30 4798 H 454.152 -2.15905 3.26944 0
M  V30 4799 H 455.849 -1.87883 3.54261 0
M  V30 4800 H 452.439 -0.626217 4.24001 0
M  V30 4801 H 456.623 0.0365643 4.96287 0
M  V30 4802 H 451.879 0.952139 6.03941 0
M  V30 4803 H 456.053 1.61046 6.77523 0
M  V30 4804 H 453.68 2.0743 7.31353 0
M  V30 4805 N 455.255 -1.55392 -0.262866 0
M  V30 4806 C 456.532 -1.67204 -1.01499 0
M  V30 4807 C 456.912 -0.545186 -2.03939 0
M  V30 4808 O 456.26 0.453467 -2.23955 0
M  V30 4809 C 456.47 -3.06847 -1.6627 0
M  V30 4810 C 457.818 -3.64928 -2.17054 0
M  V30 4811 O 458.842 -3.09545 -1.76239 0
M  V30 4812 O 457.701 -4.61984 -2.91947 0
M  V30 4813 H 454.795 -0.679467 -0.471438 0
M  V30 4814 H 457.341 -1.67729 -0.257918 0
M  V30 4815 H 456.113 -3.80309 -0.920915 0
M  V30 4816 H 455.736 -3.10266 -2.48638 0
M  V30 4817 N 456.733 0.527833 -1.48498 0
M  V30 4818 C 457.696 1.61439 -1.62696 0
M  V30 4819 C 458.696 1.52824 -0.500136 0
M  V30 4820 O 459.886 1.56456 -0.765976 0
M  V30 4821 C 457.018 3.01063 -1.59918 0
M  V30 4822 H 458.211 1.50189 -2.59583 0
M  V30 4823 H 455.764 0.750055 -1.37127 0
M  V30 4824 H 456.499 3.17818 -0.645163 0
M  V30 4825 H 456.284 3.08725 -2.41726 0
M  V30 4826 H 457.774 3.80057 -1.73051 0
M  V30 4827 N 458.211 1.37122 0.776871 0
M  V30 4828 C 459.457 1.32243 1.53752 0
M  V30 4829 C 459.79 -0.0944745 1.9397 0
M  V30 4830 O 459.065 -1.05068 1.6368 0
M  V30 4831 C 459.348 2.25681 2.80607 0
M  V30 4832 C 459.201 3.76127 2.46676 0
M  V30 4833 C 460.52 2.17657 3.82509 0
M  V30 4834 H 457.639 0.481704 0.557791 0
M  V30 4835 H 460.281 1.6778 0.891612 0
M  V30 4836 H 458.431 1.95505 3.35723 0
M  V30 4837 H 460.103 4.16877 1.97513 0
M  V30 4838 H 458.346 3.94946 1.79443 0
M  V30 4839 H 459.017 4.36933 3.37333 0
M  V30 4840 H 461.493 2.44245 3.36873 0
M  V30 4841 H 460.369 2.85185 4.69 0
M  V30 4842 H 460.63 1.16785 4.26396 0
M  V30 4843 N 459.689 -1.00246 1.21608 0
M  V30 4844 C 460.639 -2.07492 0.945051 0
M  V30 4845 C 461.623 -1.60585 -0.100675 0
M  V30 4846 O 462.815 -1.76667 0.10859 0
M  V30 4847 C 459.944 -3.39425 0.514342 0
M  V30 4848 C 459.03 -3.92993 1.59428 0
M  V30 4849 N 459.421 -4.19898 2.81991 0
M  V30 4850 C 457.719 -4.21297 1.46374 0
M  V30 4851 C 458.42 -4.63297 3.51754 0
M  V30 4852 N 457.396 -4.66421 2.79199 0
M  V30 4853 H 461.198 -2.26222 1.87619 0
M  V30 4854 H 458.712 -1.18339 1.11219 0
M  V30 4855 H 460.709 -4.15808 0.301527 0
M  V30 4856 H 459.369 -3.22101 -0.410008 0
M  V30 4857 H 460.38 -4.08377 3.1851 0
M  V30 4858 H 457.057 -4.13095 0.604863 0
M  V30 4859 H 458.447 -4.92816 4.56708 0
M  V30 4860 N 461.167 -1.02423 -1.1978 0
M  V30 4861 C 462.413 -0.719051 -1.89625 0
M  V30 4862 C 462.746 0.750083 -1.7913 0
M  V30 4863 O 462.021 1.54574 -1.18056 0
M  V30 4864 C 462.304 -1.16499 -3.40735 0
M  V30 4865 C 462.157 -2.695 -3.60125 0
M  V30 4866 C 463.476 -0.742166 -4.33797 0
M  V30 4867 H 460.595 -0.26269 -0.688595 0
M  V30 4868 H 463.237 -1.27333 -1.41018 0
M  V30 4869 H 461.387 -0.69341 -3.82262 0
M  V30 4870 H 463.059 -3.24569 -3.278 0
M  V30 4871 H 461.302 -3.10113 -3.03336 0
M  V30 4872 H 461.973 -2.95757 -4.66081 0
M  V30 4873 H 464.449 -1.1477 -3.99959 0
M  V30 4874 H 463.325 -1.08213 -5.38127 0
M  V30 4875 H 463.586 0.355747 -4.40666 0
M  V30 4876 N 462.645 1.35699 -0.801477 0
M  V30 4877 C 463.891 1.99208 -0.380022 0
M  V30 4878 C 464.224 1.63445 1.04878 0
M  V30 4879 O 463.499 0.895223 1.72673 0
M  V30 4880 C 463.782 3.55755 -0.557708 0
M  V30 4881 C 463.635 4.01332 -2.03107 0
M  V30 4882 C 464.954 4.40096 0.0197968 0
M  V30 4883 H 462.073 0.723667 -0.139552 0
M  V30 4884 H 464.715 1.60928 -1.01006 0
M  V30 4885 H 462.865 3.88494 -0.0213741 0
M  V30 4886 H 464.537 3.79026 -2.62939 0
M  V30 4887 H 462.78 3.52429 -2.52936 0
M  V30 4888 H 463.451 5.10234 -2.1063 0
M  V30 4889 H 465.927 4.13786 -0.438179 0
M  V30 4890 H 464.803 5.48735 -0.134477 0
M  V30 4891 H 465.064 4.2786 1.11303 0
M  V30 4892 N 464.123 0.554532 1.47522 0
M  V30 4893 C 465.369 0.0295227 2.02779 0
M  V30 4894 C 465.702 -1.31582 1.42828 0
M  V30 4895 O 464.977 -1.85561 0.582872 0
M  V30 4896 C 465.26 -0.0664057 3.60039 0
M  V30 4897 C 465.113 1.30585 4.30427 0
M  V30 4898 C 466.432 -0.781162 4.33112 0
M  V30 4899 H 463.551 0.0122027 0.736899 0
M  V30 4900 H 466.193 0.716305 1.7598 0
M  V30 4901 H 464.343 -0.651307 3.83002 0
M  V30 4902 H 466.015 1.93374 4.18813 0
M  V30 4903 H 464.258 1.88125 3.90886 0
M  V30 4904 H 464.929 1.19147 5.38988 0
M  V30 4905 H 467.405 -0.284565 4.15126 0
M  V30 4906 H 466.281 -0.817237 5.42782 0
M  V30 4907 H 466.542 -1.83672 4.0214 0
M  V30 4908 N 465.601 -1.54893 0.290851 0
M  V30 4909 C 466.826 -2.04804 -0.32712 0
M  V30 4910 C 467.251 -1.16721 -1.47506 0
M  V30 4911 O 466.609 -0.169107 -1.8051 0
M  V30 4912 C 466.657 -3.52268 -0.770689 0
M  V30 4913 O 465.761 -3.67236 -1.87647 0
M  V30 4914 H 465.102 -0.660789 -0.0652227 0
M  V30 4915 H 467.632 -2.00036 0.429739 0
M  V30 4916 H 467.642 -3.9393 -1.06223 0
M  V30 4917 H 466.317 -4.15843 0.069096 0
M  V30 4918 H 464.894 -3.37479 -1.58626 0
M  V30 4919 N 467.08 -0.0183926 -1.57589 0
M  V30 4920 C 468.043 0.951986 -2.08494 0
M  V30 4921 C 469.043 1.26092 -0.997874 0
M  V30 4922 O 470.233 1.20304 -1.25987 0
M  V30 4923 C 467.365 2.27165 -2.54182 0
M  V30 4924 H 468.558 0.511307 -2.95509 0
M  V30 4925 H 466.111 0.229444 -1.54607 0
M  V30 4926 H 466.846 2.75884 -1.70465 0
M  V30 4927 H 466.631 2.06057 -3.33591 0
M  V30 4928 H 468.121 2.9674 -2.93828 0
M  V30 4929 N 468.558 1.5553 0.254621 0
M  V30 4930 C 469.804 1.77262 0.985193 0
M  V30 4931 C 470.137 0.582286 1.85265 0
M  V30 4932 O 469.412 -0.419666 1.89919 0
M  V30 4933 C 469.695 3.0881 1.85225 0
M  V30 4934 C 469.548 4.38233 1.0135 0
M  V30 4935 C 470.867 3.3653 2.83612 0
M  V30 4936 H 467.986 0.644906 0.356742 0
M  V30 4937 H 470.628 1.88264 0.256236 0
M  V30 4938 H 468.778 2.99562 2.47376 0
M  V30 4939 H 470.45 4.59463 0.411269 0
M  V30 4940 H 468.693 4.32636 0.317574 0
M  V30 4941 H 469.364 5.26644 1.65379 0
M  V30 4942 H 471.84 3.45691 2.31596 0
M  V30 4943 H 470.716 4.29805 3.41407 0
M  V30 4944 H 470.977 2.57064 3.59681 0
M  V30 4945 N 470.036 -0.519951 1.48776 0
M  V30 4946 C 471.452 -0.849418 1.35119 0
M  V30 4947 C 471.652 -1.98077 0.36982 0
M  V30 4948 O 470.708 -2.51664 -0.205359 0
M  V30 4949 C 472.021 -1.20748 2.75391 0
M  V30 4950 C 473.569 -1.31679 2.83954 0
M  V30 4951 C 474.044 -1.70824 4.24951 0
M  V30 4952 N 475.535 -1.77908 4.27672 0
M  V30 4953 C 476.27 -2.09603 5.33717 0
M  V30 4954 N 475.766 -2.39652 6.5003 0
M  V30 4955 N 477.559 -2.10694 5.21119 0
M  V30 4956 H 469.71 0.226377 2.1119 0
M  V30 4957 H 471.973 0.0386519 0.947212 0
M  V30 4958 H 471.679 -0.449703 3.48813 0
M  V30 4959 H 471.553 -2.15534 3.09556 0
M  V30 4960 H 473.94 -2.06532 2.10781 0
M  V30 4961 H 474.021 -0.3499 2.53396 0
M  V30 4962 H 473.665 -0.965282 4.98643 0
M  V30 4963 H 473.595 -2.6858 4.52959 0
M  V30 4964 H 476.086 -1.56923 3.43779 0
M  V30 4965 H 476.399 -2.6297 7.26682 0
M  V30 4966 H 474.744 -2.37149 6.53288 0
M  V30 4967 H 477.935 -1.86682 4.29264 0
M  V30 4968 H 478.108 -2.35062 6.03863 0
M  V30 4969 N 471.514 -1.37532 -0.769588 0
M  V30 4970 C 472.424 -1.35668 -1.91393 0
M  V30 4971 C 473.44 -0.255954 -1.72107 0
M  V30 4972 O 474.616 -0.491704 -1.95305 0
M  V30 4973 C 471.681 -1.16481 -3.26547 0
M  V30 4974 C 470.742 -2.36212 -3.58472 0
M  V30 4975 C 469.975 -2.17932 -4.87177 0
M  V30 4976 O 470.198 -1.1647 -5.58382 0
M  V30 4977 O 469.132 -3.06167 -5.18214 0
M  V30 4978 H 472.958 -2.32055 -1.95918 0
M  V30 4979 H 470.543 -1.18284 -0.912641 0
M  V30 4980 H 472.425 -1.07778 -4.07384 0
M  V30 4981 H 471.1 -0.231687 -3.2287 0
M  V30 4982 H 470.007 -2.50488 -2.77861 0
M  V30 4983 H 471.34 -3.281 -3.66894 0
M  V30 4984 N 472.992 0.995999 -1.22138 0
M  V30 4985 C 473.922 2.10387 -1.01289 0
M  V30 4986 C 474.903 1.69975 0.0651454 0
M  V30 4987 O 476.088 1.9396 -0.0964628 0
M  V30 4988 C 473.218 3.42312 -0.586517 0
M  V30 4989 C 472.172 3.96558 -1.61014 0
M  V30 4990 C 471.498 5.24494 -1.0397 0
M  V30 4991 C 472.798 4.27595 -2.99933 0
M  V30 4992 H 474.492 2.28086 -1.93951 0
M  V30 4993 H 472.038 1.09607 -0.933928 0
M  V30 4994 H 473.991 4.19223 -0.427793 0
M  V30 4995 H 472.715 3.24431 0.375761 0
M  V30 4996 H 471.374 3.21776 -1.75658 0
M  V30 4997 H 471.022 5.02953 -0.0688703 0
M  V30 4998 H 470.722 5.61755 -1.72352 0
M  V30 4999 H 472.246 6.04042 -0.892494 0
M  V30 5000 H 473.66 4.95315 -2.8868 0
M  V30 5001 H 472.057 4.76021 -3.6541 0
M  V30 5002 H 473.127 3.35498 -3.50099 0
M  V30 5003 N 474.47 1.03057 1.19235 0
M  V30 5004 C 475.418 0.606391 2.24557 0
M  V30 5005 C 476.412 -0.361826 1.65491 0
M  V30 5006 O 477.618 -0.23022 1.78522 0
M  V30 5007 H 473.993 0.177838 0.730669 0
M  V30 5008 H 475.964 1.50529 2.5765 0
M  V30 5009 C 474.713 -0.0252127 3.47691 0
M  V30 5010 H 474.036 0.710838 3.9343 0
M  V30 5011 H 475.476 -0.284931 4.23042 0
M  V30 5012 C 473.935 -1.27229 3.11953 0
M  V30 5013 O 474.465 -2.36416 3.24762 0
M  V30 5014 N 472.671 -1.16169 2.6637 0
M  V30 5015 H 472.218 -0.273189 2.56147 0
M  V30 5016 H 472.176 -1.99703 2.42829 0
M  V30 5017 N 475.948 -1.35272 0.808662 0
M  V30 5018 C 477.364 -1.51806 0.492653 0
M  V30 5019 C 477.564 -1.7574 -0.985778 0
M  V30 5020 O 476.62 -1.80003 -1.77074 0
M  V30 5021 C 477.933 -2.69202 1.33981 0
M  V30 5022 C 479.481 -2.8308 1.33547 0
M  V30 5023 C 479.956 -4.03502 2.16679 0
M  V30 5024 N 481.447 -4.10684 2.14227 0
M  V30 5025 C 482.182 -5.02984 2.75308 0
M  V30 5026 N 481.678 -6.00603 3.45323 0
M  V30 5027 N 483.471 -4.95746 2.64938 0
M  V30 5028 H 475.622 -1.17993 1.76611 0
M  V30 5029 H 477.885 -0.577476 0.751814 0
M  V30 5030 H 477.591 -2.581 2.38909 0
M  V30 5031 H 477.465 -3.63854 0.994491 0
M  V30 5032 H 479.852 -2.93631 0.294036 0
M  V30 5033 H 479.933 -1.89278 1.72068 0
M  V30 5034 H 479.577 -3.93711 3.20864 0
M  V30 5035 H 479.507 -4.96489 1.75517 0
M  V30 5036 H 481.998 -3.40802 1.63285 0
M  V30 5037 H 482.311 -6.67633 3.89212 0
M  V30 5038 H 480.656 -6.0077 3.49428 0
M  V30 5039 H 483.847 -4.18439 2.09825 0
M  V30 5040 H 484.02 -5.67487 3.12829 0
M  V30 5041 N 477.426 -0.562348 -1.47226 0
M  V30 5042 C 478.651 -0.0432632 -2.07355 0
M  V30 5043 C 479.076 1.24332 -1.41149 0
M  V30 5044 O 478.434 1.74603 -0.488226 0
M  V30 5045 C 478.482 0.130288 -3.60365 0
M  V30 5046 O 477.586 1.19166 -3.94808 0
M  V30 5047 H 476.927 -0.0536334 -0.66183 0
M  V30 5048 H 479.457 -0.779495 -1.89169 0
M  V30 5049 H 479.467 0.342881 -4.06557 0
M  V30 5050 H 478.142 -0.809389 -4.07948 0
M  V30 5051 H 476.719 0.959153 -3.60354 0
M  V30 5052 N 478.904 1.54736 -0.299062 0
M  V30 5053 C 479.836 2.20891 0.61153 0
M  V30 5054 C 480.849 1.20104 1.09904 0
M  V30 5055 O 482.038 1.46707 1.01683 0
M  V30 5056 C 479.138 2.84018 1.84897 0
M  V30 5057 C 478.311 4.10719 1.50428 0
M  V30 5058 C 477.37 4.57667 2.59667 0
M  V30 5059 O 476.396 5.2291 2.24842 0
M  V30 5060 N 477.598 4.29821 3.90172 0
M  V30 5061 H 480.363 2.99666 0.0452001 0
M  V30 5062 H 477.924 1.61446 -0.121178 0
M  V30 5063 H 479.916 3.1236 2.5732 0
M  V30 5064 H 478.486 2.09095 2.32375 0
M  V30 5065 H 477.706 3.89408 0.612781 0
M  V30 5066 H 478.994 4.93223 1.24934 0
M  V30 5067 H 478.392 3.77549 4.21276 0
M  V30 5068 H 476.949 4.62877 4.58899 0
M  V30 5069 N 480.382 0.0267497 1.57577 0
M  V30 5070 C 481.292 -0.971633 2.13533 0
M  V30 5071 C 482.308 -1.35868 1.08701 0
M  V30 5072 O 483.484 -1.44058 1.40746 0
M  V30 5073 C 480.549 -2.23622 2.64941 0
M  V30 5074 C 479.61 -1.90982 3.8448 0
M  V30 5075 C 478.843 -3.11411 4.33427 0
M  V30 5076 O 479.066 -4.23992 3.81558 0
M  V30 5077 O 478 -2.93848 5.25297 0
M  V30 5078 H 481.826 -0.525853 2.99113 0
M  V30 5079 H 479.411 -0.193712 1.48139 0
M  V30 5080 H 481.293 -2.97864 2.98086 0
M  V30 5081 H 479.968 -2.67386 1.82446 0
M  V30 5082 H 478.875 -1.14132 3.56265 0
M  V30 5083 H 480.208 -1.52036 4.6813 0
M  V30 5084 N 481.861 -1.55662 -0.24637 0
M  V30 5085 C 483.11 -1.7672 -0.972254 0
M  V30 5086 C 483.423 -0.59078 -1.86465 0
M  V30 5087 O 484.629 -0.684391 -2.62732 0
M  V30 5088 C 483.085 -3.12869 -1.7788 0
M  V30 5089 C 482.693 -4.38161 -0.933768 0
M  V30 5090 C 484.437 -3.43265 -2.49738 0
M  V30 5091 C 482.344 -5.6534 -1.73623 0
M  V30 5092 H 481.274 -0.658795 -0.366749 0
M  V30 5093 H 483.925 -1.82092 -0.226902 0
M  V30 5094 H 482.307 -3.01606 -2.56612 0
M  V30 5095 H 483.481 -4.60413 -0.188736 0
M  V30 5096 H 481.796 -4.15102 -0.328488 0
M  V30 5097 H 484.393 -4.35501 -3.10231 0
M  V30 5098 H 484.736 -2.64614 -3.2138 0
M  V30 5099 H 485.269 -3.55746 -1.78016 0
M  V30 5100 H 482.008 -6.46814 -1.06354 0
M  V30 5101 H 481.528 -5.47188 -2.45653 0
M  V30 5102 H 483.207 -6.04616 -2.30323 0
M  V30 5103 N 483.339 0.512053 -1.4905 0
M  V30 5104 C 484.587 1.26436 -1.57665 0
M  V30 5105 C 484.908 1.93255 -0.260293 0
M  V30 5106 O 484.178 1.82206 0.719564 0
M  V30 5107 H 482.758 0.469658 -0.580888 0
M  V30 5108 H 485.42 0.594398 -1.85615 0
M  V30 5109 H 484.516 2.03417 -2.36702 0
M  V30 5110 N 484.817 1.37938 0.762283 0
M  V30 5111 C 486.063 1.33866 1.52341 0
M  V30 5112 C 486.396 -0.0738961 1.94059 0
M  V30 5113 O 485.671 -1.03326 1.64785 0
M  V30 5114 C 485.954 2.28644 2.78197 0
M  V30 5115 C 485.807 3.78722 2.42672 0
M  V30 5116 C 487.126 2.21702 3.80179 0
M  V30 5117 H 484.245 0.487593 0.55265 0
M  V30 5118 H 486.887 1.68717 0.873767 0
M  V30 5119 H 485.037 1.99055 3.33631 0
M  V30 5120 H 486.709 4.18948 1.93081 0
M  V30 5121 H 484.952 3.96827 1.75244 0
M  V30 5122 H 485.623 4.40486 3.3268 0
M  V30 5123 H 488.099 2.47805 3.34263 0
M  V30 5124 H 486.975 2.90143 4.65949 0
M  V30 5125 H 487.236 1.21301 4.25133 0
M  V30 5126 N 486.295 -0.989507 1.22664 0
M  V30 5127 C 487.242 -2.08024 0.999733 0
M  V30 5128 C 488.212 -1.65909 -0.0797047 0
M  V30 5129 O 489.397 -1.90669 0.0705715 0
M  V30 5130 C 486.537 -3.40067 0.587234 0
M  V30 5131 C 485.65 -3.95505 1.73781 0
M  V30 5132 C 484.785 -5.15722 1.27297 0
M  V30 5133 C 483.824 -5.63305 2.39488 0
M  V30 5134 N 482.961 -6.74758 1.94026 0
M  V30 5135 H 487.801 -2.26768 1.9334 0
M  V30 5136 H 485.338 -1.11171 0.963297 0
M  V30 5137 H 487.296 -4.15899 0.329227 0
M  V30 5138 H 485.926 -3.21314 -0.309426 0
M  V30 5139 H 484.978 -3.16513 2.11006 0
M  V30 5140 H 486.29 -4.26797 2.58158 0
M  V30 5141 H 485.444 -5.98854 0.972546 0
M  V30 5142 H 484.183 -4.86061 0.399445 0
M  V30 5143 H 483.188 -4.78759 2.70315 0
M  V30 5144 H 484.413 -5.94988 3.27362 0
M  V30 5145 H 482.359 -6.46874 1.09041 0
M  V30 5146 H 482.276 -7.05386 2.71968 0
M  V30 5147 H 483.544 -7.61387 1.67062 0
M  V30 5148 N 487.773 -1.03688 -1.18687 0
M  V30 5149 C 489.184 -0.766488 -1.70241 0
M  V30 5150 C 489.535 0.713052 -1.82784 0
M  V30 5151 O 488.66 1.55529 -1.50465 0
M  V30 5152 C 489.255 -1.38475 -3.09209 0
M  V30 5153 C 487.814 -1.16276 -3.5799 0
M  V30 5154 C 486.961 -1.4778 -2.34641 0
M  V30 5155 H 489.912 -1.20378 -1.03415 0
M  V30 5156 H 489.933 -0.785939 -3.72295 0
M  V30 5157 H 489.445 -2.46157 -3.00048 0
M  V30 5158 H 487.546 -0.104508 -3.72453 0
M  V30 5159 H 487.659 -1.8571 -4.41643 0
M  V30 5160 H 486.023 -0.897366 -2.38368 0
M  V30 5161 H 486.806 -2.56562 -2.28102 0
M  V30 5162 N 489.251 1.34841 -0.815825 0
M  V30 5163 C 490.181 2.32187 -0.247298 0
M  V30 5164 C 491.162 1.5791 0.632344 0
M  V30 5165 O 492.347 1.8593 0.560698 0
M  V30 5166 C 489.477 3.42122 0.597466 0
M  V30 5167 C 488.431 4.27602 -0.184446 0
M  V30 5168 C 487.757 5.28942 0.782609 0
M  V30 5169 C 489.057 5.03502 -1.38865 0
M  V30 5170 H 490.751 2.79985 -1.06061 0
M  V30 5171 H 488.297 1.34611 -0.511461 0
M  V30 5172 H 490.25 4.09232 1.00533 0
M  V30 5173 H 488.974 2.92956 1.44376 0
M  V30 5174 H 487.633 3.62085 -0.573592 0
M  V30 5175 H 487.281 4.7604 1.62466 0
M  V30 5176 H 486.981 5.87008 0.263695 0
M  V30 5177 H 488.505 5.98922 1.18848 0
M  V30 5178 H 489.919 5.63506 -1.05518 0
M  V30 5179 H 488.316 5.71108 -1.8427 0
M  V30 5180 H 489.386 4.33608 -2.17054 0
M  V30 5181 N 490.729 0.570148 1.46925 0
M  V30 5182 C 491.692 -0.159933 2.28641 0
M  V30 5183 C 492.692 -0.830638 1.37685 0
M  V30 5184 O 493.882 -0.684516 1.60187 0
M  V30 5185 C 491.014 -1.2354 3.17727 0
M  V30 5186 H 492.207 0.558035 2.94662 0
M  V30 5187 H 489.76 0.327603 1.52828 0
M  V30 5188 H 490.495 -1.98535 2.56426 0
M  V30 5189 H 490.28 -0.759125 3.84681 0
M  V30 5190 H 491.77 -1.74782 3.79264 0
M  V30 5191 N 492.207 -1.54576 0.307264 0
M  V30 5192 C 493.447 -2.02172 -0.300962 0
M  V30 5193 C 493.811 -1.19081 -1.50611 0
M  V30 5194 O 495.012 -1.56405 -2.18612 0
M  V30 5195 C 493.283 -3.51576 -0.642591 0
M  V30 5196 S 494.842 -4.21127 -1.23279 0
M  V30 5197 H 491.66 -0.705021 -0.0920141 0
M  V30 5198 H 494.262 -1.90563 0.436594 0
M  V30 5199 H 492.966 -4.09681 0.242901 0
M  V30 5200 H 492.497 -3.67234 -1.41077 0
M  V30 5201 H 494.512 -4.27426 -2.52034 0
M  V30 5202 N 493.685 -0.035106 -1.57561 0
M  V30 5203 C 494.913 0.652258 -1.9635 0
M  V30 5204 C 495.328 1.65317 -0.911897 0
M  V30 5205 O 494.685 1.82194 0.105657 0
M  V30 5206 C 494.736 1.35337 -3.35211 0
M  V30 5207 O 494.457 0.392548 -4.36338 0
M  V30 5208 C 495.958 2.13199 -3.88666 0
M  V30 5209 H 493.178 0.179444 -0.646561 0
M  V30 5210 H 495.722 -0.0966459 -2.04271 0
M  V30 5211 H 493.877 2.05362 -3.28489 0
M  V30 5212 H 494.291 0.891097 -5.16875 0
M  V30 5213 H 495.765 2.577 -4.88154 0
M  V30 5214 H 496.242 2.97353 -3.23231 0
M  V30 5215 H 496.848 1.48118 -3.98674 0
M  V30 5216 N 495.163 1.55791 0.238111 0
M  V30 5217 C 496.388 1.8244 0.986432 0
M  V30 5218 C 496.813 0.613314 1.7782 0
M  V30 5219 O 496.171 -0.437767 1.75935 0
M  V30 5220 C 496.219 3.06917 1.893 0
M  V30 5221 O 495.323 2.84449 2.98601 0
M  V30 5222 H 494.664 0.601975 0.280218 0
M  V30 5223 H 497.194 2.02987 0.256437 0
M  V30 5224 H 497.204 3.36583 2.30598 0
M  V30 5225 H 495.879 3.947 1.31091 0
M  V30 5226 H 494.456 2.65972 2.61368 0
M  V30 5227 N 496.642 -0.504142 1.49319 0
M  V30 5228 C 497.605 -1.5883 1.65244 0
M  V30 5229 C 498.605 -1.52009 0.524386 0
M  V30 5230 O 499.795 -1.55218 0.79077 0
M  V30 5231 C 496.927 -2.98481 1.64687 0
M  V30 5232 H 498.12 -1.4604 2.61939 0
M  V30 5233 H 495.673 -0.728144 1.38303 0
M  V30 5234 H 496.408 -3.16751 0.695644 0
M  V30 5235 H 496.193 -3.0484 2.46607 0
M  V30 5236 H 497.683 -3.77256 1.79075 0
M  V30 5237 N 498.12 -1.38341 -0.754957 0
M  V30 5238 C 499.068 -1.35573 -1.89005 0
M  V30 5239 C 500.062 -0.241824 -1.67665 0
M  V30 5240 O 501.268 -0.410785 -1.7525 0
M  V30 5241 H 497.643 -0.422898 -0.621821 0
M  V30 5242 H 499.614 -2.31359 -1.88455 0
M  V30 5243 C 498.363 -1.19631 -3.26471 0
M  V30 5244 H 497.686 -2.04605 -3.43477 0
M  V30 5245 H 499.126 -1.21748 -4.06144 0
M  V30 5246 C 497.585 0.0968705 -3.36761 0
M  V30 5247 O 498.115 1.07439 -3.87066 0
M  V30 5248 N 496.321 0.153242 -2.90196 0
M  V30 5249 H 495.868 -0.642908 -2.49448 0
M  V30 5250 H 495.826 1.01807 -2.9746 0
M  V30 5251 N 499.598 0.982988 -1.23187 0
M  V30 5252 C 500.847 1.71817 -1.05649 0
M  V30 5253 C 501.16 1.91315 0.407176 0
M  V30 5254 O 502.366 2.62256 0.702436 0
M  V30 5255 C 500.822 3.09188 -1.84203 0
M  V30 5256 C 500.43 2.97586 -3.34882 0
M  V30 5257 C 502.174 3.86684 -1.75146 0
M  V30 5258 C 500.081 4.30173 -4.05839 0
M  V30 5259 H 499.011 0.644258 -0.391724 0
M  V30 5260 H 501.662 1.09659 -1.4713 0
M  V30 5261 H 500.044 3.72087 -1.35527 0
M  V30 5262 H 501.218 2.43793 -3.91026 0
M  V30 5263 H 499.533 2.33567 -3.44725 0
M  V30 5264 H 502.13 4.84836 -2.25473 0
M  V30 5265 H 502.473 4.10136 -0.713737 0
M  V30 5266 H 503.006 3.30482 -2.21419 0
M  V30 5267 H 499.745 4.11918 -5.09906 0
M  V30 5268 H 499.265 4.83841 -3.54482 0
M  V30 5269 H 500.944 4.98873 -4.11989 0
M  V30 5270 N 501.076 1.04316 1.18135 0
M  V30 5271 C 502.322 0.758899 1.88712 0
M  V30 5272 C 502.677 -0.705863 1.78984 0
M  V30 5273 O 501.97 -1.50874 1.18101 0
M  V30 5274 C 502.164 1.16271 3.37958 0
M  V30 5275 C 501.993 2.66518 3.62213 0
M  V30 5276 C 500.763 3.33702 3.79436 0
M  V30 5277 C 502.961 3.64739 3.62588 0
M  V30 5278 N 500.943 4.72904 3.91452 0
M  V30 5279 C 502.314 4.89627 3.80348 0
M  V30 5280 C 504.369 3.58333 3.4569 0
M  V30 5281 C 503.072 6.08879 3.8296 0
M  V30 5282 C 505.098 4.77016 3.49586 0
M  V30 5283 C 504.46 6.00724 3.67845 0
M  V30 5284 H 500.559 0.329795 0.709055 0
M  V30 5285 H 503.143 1.33334 1.4188 0
M  V30 5286 H 501.314 0.616319 3.83479 0
M  V30 5287 H 503.046 0.829205 3.96114 0
M  V30 5288 H 499.801 2.84105 3.78921 0
M  V30 5289 H 500.225 5.45258 4.01277 0
M  V30 5290 H 504.867 2.63663 3.30517 0
M  V30 5291 H 502.585 7.03903 3.96921 0
M  V30 5292 H 506.171 4.73703 3.37782 0
M  V30 5293 H 505.051 6.91022 3.70753 0
M  V30 5294 N 502.554 -1.34406 0.822964 0
M  V30 5295 C 503.965 -1.8069 0.469879 0
M  V30 5296 C 504.316 -1.68223 -1.00972 0
M  V30 5297 O 503.441 -1.22226 -1.78577 0
M  V30 5298 C 504.036 -3.28064 0.846118 0
M  V30 5299 C 502.595 -3.72428 0.545402 0
M  V30 5300 C 501.742 -2.56116 1.06301 0
M  V30 5301 H 504.693 -1.22153 1.01313 0
M  V30 5302 H 504.714 -3.80205 0.149922 0
M  V30 5303 H 504.226 -3.37107 1.92304 0
M  V30 5304 H 502.327 -3.68924 -0.522109 0
M  V30 5305 H 502.44 -4.66548 1.0895 0
M  V30 5306 H 500.804 -2.50048 0.484554 0
M  V30 5307 H 501.587 -2.67928 2.14638 0
M  V30 5308 N 504.032 -0.577932 -1.46621 0
M  V30 5309 C 504.982 0.178869 -2.27297 0
M  V30 5310 C 505.966 0.866279 -1.35589 0
M  V30 5311 O 507.158 0.761163 -1.59798 0
M  V30 5312 C 504.287 1.19499 -3.2183 0
M  V30 5313 C 503.373 0.50994 -4.21023 0
M  V30 5314 N 503.764 -0.43177 -5.03954 0
M  V30 5315 C 502.062 0.761287 -4.39455 0
M  V30 5316 C 502.763 -0.831693 -5.75724 0
M  V30 5317 N 501.739 -0.181897 -5.43296 0
M  V30 5318 H 505.541 -0.544859 -2.88805 0
M  V30 5319 H 503.055 -0.399373 -1.57413 0
M  V30 5320 H 505.052 1.75131 -3.78332 0
M  V30 5321 H 503.712 1.91959 -2.61881 0
M  V30 5322 H 504.723 -0.807045 -5.11573 0
M  V30 5323 H 501.4 1.47282 -3.90659 0
M  V30 5324 H 502.79 -1.6067 -6.52407 0
M  V30 5325 N 505.51 1.54411 -0.315457 0
M  V30 5326 C 506.758 2.00023 0.288971 0
M  V30 5327 C 507.079 1.20529 1.5329 0
M  V30 5328 O 506.349 0.304986 1.93511 0
M  V30 5329 H 504.929 0.738891 0.109766 0
M  V30 5330 H 507.591 1.90094 -0.430129 0
M  V30 5331 H 506.687 3.07198 0.550999 0
M  V30 5332 N 506.988 0.0434614 1.5754 0
M  V30 5333 C 508.216 -0.641835 1.96693 0
M  V30 5334 C 508.631 -1.64832 0.920652 0
M  V30 5335 O 507.988 -1.82247 -0.095993 0
M  V30 5336 C 508.039 -1.33557 3.35924 0
M  V30 5337 O 507.76 -0.369403 4.3654 0
M  V30 5338 C 509.261 -2.11135 3.89791 0
M  V30 5339 H 506.481 -0.176013 0.647503 0
M  V30 5340 H 509.025 0.107478 2.04217 0
M  V30 5341 H 507.18 -2.03617 3.29574 0
M  V30 5342 H 507.594 -0.863674 5.1734 0
M  V30 5343 H 509.068 -2.55107 4.89514 0
M  V30 5344 H 509.545 -2.95634 3.24803 0
M  V30 5345 H 510.151 -1.46002 3.99454 0
M  V30 5346 N 508.466 -1.55915 -0.229846 0
M  V30 5347 C 509.691 -1.8296 -0.976743 0
M  V30 5348 C 510.116 -0.622735 -1.77493 0
M  V30 5349 O 509.474 0.428431 -1.76165 0
M  V30 5350 C 509.522 -3.07916 -1.8767 0
M  V30 5351 O 508.626 -2.86028 -2.97088 0
M  V30 5352 H 507.967 -0.603453 -0.277021 0
M  V30 5353 H 510.497 -2.0312 -0.245669 0
M  V30 5354 H 510.507 -3.37802 -2.2881 0
M  V30 5355 H 509.182 -3.95389 -1.28996 0
M  V30 5356 H 507.759 -2.67355 -2.59954 0
M  V30 5357 N 509.944 0.496216 -1.49584 0
M  V30 5358 C 510.874 1.60576 -1.69521 0
M  V30 5359 C 511.855 1.61169 -0.543933 0
M  V30 5360 O 513.04 1.77834 -0.78031 0
M  V30 5361 C 510.17 2.99038 -1.76616 0
M  V30 5362 C 509.124 3.13312 -2.91581 0
M  V30 5363 C 508.45 4.53172 -2.83794 0
M  V30 5364 C 509.75 2.92886 -4.32452 0
M  V30 5365 H 511.444 1.44146 -2.62416 0
M  V30 5366 H 508.99 0.692024 -1.26282 0
M  V30 5367 H 510.943 3.76564 -1.8915 0
M  V30 5368 H 509.667 3.16568 -0.80324 0
M  V30 5369 H 508.326 2.38213 -2.78658 0
M  V30 5370 H 507.974 4.67585 -1.854 0
M  V30 5371 H 507.674 4.63662 -3.60958 0
M  V30 5372 H 509.198 5.32752 -2.98342 0
M  V30 5373 H 510.612 3.60178 -4.46032 0
M  V30 5374 H 509.009 3.14844 -5.10875 0
M  V30 5375 H 510.079 1.88966 -4.46565 0
M  V30 5376 N 511.423 1.38739 0.74761 0
M  V30 5377 C 512.356 1.3083 1.86972 0
M  V30 5378 C 513.334 0.184229 1.61553 0
M  V30 5379 O 514.518 0.36256 1.8498 0
M  V30 5380 C 511.645 1.02854 3.22705 0
M  V30 5381 C 510.691 2.17281 3.67003 0
M  V30 5382 S 511.524 3.79468 3.77842 0
M  V30 5383 C 512.68 3.53692 5.16385 0
M  V30 5384 H 512.913 2.258 1.93395 0
M  V30 5385 H 510.446 1.24646 0.911199 0
M  V30 5386 H 512.404 0.87397 4.01089 0
M  V30 5387 H 511.065 0.0959295 3.13953 0
M  V30 5388 H 510.258 1.93267 4.65472 0
M  V30 5389 H 509.86 2.28876 2.9579 0
M  V30 5390 H 512.152 3.10176 6.02327 0
M  V30 5391 H 513.095 4.51576 5.45422 0
M  V30 5392 H 513.503 2.8807 4.85464 0
M  V30 5393 N 512.901 -0.976442 1.23707 0
M  V30 5394 C 513.849 -2.09078 1.01927 0
M  V30 5395 C 514.843 -1.69345 -0.0430193 0
M  V30 5396 O 516.049 -1.79659 0.110814 0
M  V30 5397 H 512.424 -0.68398 0.312531 0
M  V30 5398 H 514.395 -2.24614 1.96447 0
M  V30 5399 C 513.144 -3.41919 0.631385 0
M  V30 5400 H 512.467 -3.72946 1.44053 0
M  V30 5401 H 513.907 -4.20817 0.518532 0
M  V30 5402 C 512.366 -3.30357 -0.660723 0
M  V30 5403 O 512.896 -3.63542 -1.70881 0
M  V30 5404 N 511.102 -2.83507 -0.638139 0
M  V30 5405 H 510.649 -2.567 0.215108 0
M  V30 5406 H 510.607 -2.76153 -1.50289 0
M  V30 5407 N 514.379 -1.04941 -1.1758 0
M  V30 5408 C 515.609 -0.777166 -1.91425 0
M  V30 5409 C 516.017 0.670647 -1.76915 0
M  V30 5410 O 515.36 1.46965 -1.10213 0
M  V30 5411 C 515.422 -1.07495 -3.43052 0
M  V30 5412 C 515.086 -2.51844 -3.81345 0
M  V30 5413 C 516.083 -3.50047 -3.844 0
M  V30 5414 C 513.768 -2.86787 -4.12382 0
M  V30 5415 C 515.762 -4.81239 -4.17957 0
M  V30 5416 C 513.449 -4.18182 -4.45608 0
M  V30 5417 C 514.447 -5.15219 -4.48373 0
M  V30 5418 O 514.135 -6.44258 -4.80819 0
M  V30 5419 H 513.867 -0.282209 -0.614275 0
M  V30 5420 H 516.421 -1.40258 -1.50056 0
M  V30 5421 H 514.651 -0.392437 -3.84704 0
M  V30 5422 H 516.34 -0.78912 -3.98155 0
M  V30 5423 H 517.106 -3.24391 -3.60548 0
M  V30 5424 H 512.985 -2.11922 -4.09402 0
M  V30 5425 H 516.529 -5.56974 -4.2003 0
M  V30 5426 H 512.426 -4.43602 -4.68922 0
M  V30 5427 H 513.194 -6.49041 -4.98686 0
M  V30 5428 N 515.857 1.33968 -0.830081 0
M  V30 5429 C 516.787 2.31911 -0.271911 0
M  V30 5430 C 517.768 1.58571 0.61556 0
M  V30 5431 O 518.953 1.86514 0.540946 0
M  V30 5432 C 516.083 3.42737 0.561146 0
M  V30 5433 C 515.037 4.27383 -0.229789 0
M  V30 5434 C 514.363 5.29742 0.726463 0
M  V30 5435 C 515.663 5.02 -1.44197 0
M  V30 5436 H 517.357 2.78844 -1.09025 0
M  V30 5437 H 514.903 1.34061 -0.52571 0
M  V30 5438 H 516.856 4.10276 0.961867 0
M  V30 5439 H 515.58 2.94471 1.41261 0
M  V30 5440 H 514.239 3.61456 -0.611964 0
M  V30 5441 H 513.887 4.77736 1.57408 0
M  V30 5442 H 513.587 5.87255 0.20142 0
M  V30 5443 H 515.111 6.00149 1.12489 0
M  V30 5444 H 516.525 5.62355 -1.11488 0
M  V30 5445 H 514.922 5.69122 -1.90317 0
M  V30 5446 H 515.992 4.31281 -2.2164 0
M  V30 5447 N 517.335 0.585699 1.46312 0
M  V30 5448 C 518.751 0.247607 1.57668 0
M  V30 5449 C 518.951 -1.25007 1.58037 0
M  V30 5450 O 518.007 -2.03196 1.49893 0
M  V30 5451 C 519.32 0.899456 2.86933 0
M  V30 5452 C 520.868 0.873326 3.00569 0
M  V30 5453 C 521.343 1.50477 4.32574 0
M  V30 5454 N 522.834 1.46925 4.3928 0
M  V30 5455 C 523.569 1.92719 5.40044 0
M  V30 5456 N 523.065 2.46499 6.47464 0
M  V30 5457 N 524.858 1.83617 5.31264 0
M  V30 5458 H 517.009 1.55841 1.44317 0
M  V30 5459 H 519.272 0.651564 0.688599 0
M  V30 5460 H 518.978 1.95313 2.92482 0
M  V30 5461 H 518.852 0.409476 3.74971 0
M  V30 5462 H 521.239 -0.171736 2.946 0
M  V30 5463 H 521.32 1.40136 2.13999 0
M  V30 5464 H 520.964 2.54905 4.39302 0
M  V30 5465 H 520.894 0.951944 5.17924 0
M  V30 5466 H 523.385 1.07616 3.62253 0
M  V30 5467 H 523.698 2.79291 7.20567 0
M  V30 5468 H 522.043 2.50526 6.48276 0
M  V30 5469 H 525.234 1.41358 4.46246 0
M  V30 5470 H 525.407 2.19622 6.09648 0
M  V30 5471 N 518.813 -1.54241 0.323641 0
M  V30 5472 C 519.746 -2.20579 -0.584833 0
M  V30 5473 C 520.724 -1.18286 -1.11567 0
M  V30 5474 O 521.908 -1.47025 -1.17966 0
M  V30 5475 C 519.035 -2.86754 -1.80249 0
M  V30 5476 C 518.081 -4.02767 -1.4029 0
M  V30 5477 S 518.914 -5.33693 -0.439539 0
M  V30 5478 C 520.07 -6.03362 -1.66448 0
M  V30 5479 H 520.303 -2.97292 -0.0213238 0
M  V30 5480 H 517.836 -1.54024 0.107726 0
M  V30 5481 H 519.794 -3.25503 -2.50116 0
M  V30 5482 H 518.455 -2.09844 -2.33719 0
M  V30 5483 H 517.648 -4.47933 -2.31024 0
M  V30 5484 H 517.25 -3.65692 -0.783928 0
M  V30 5485 H 519.542 -6.25546 -2.6019 0
M  V30 5486 H 520.485 -6.9689 -1.25498 0
M  V30 5487 H 520.893 -5.33273 -1.85149 0
M  V30 5488 N 520.291 -0.0518155 -1.57515 0
M  V30 5489 C 521.537 0.622745 -1.93002 0
M  V30 5490 C 521.87 1.70456 -0.930499 0
M  V30 5491 O 521.145 1.94452 0.0434086 0
M  V30 5492 C 521.428 1.21824 -3.38867 0
M  V30 5493 C 521.281 0.144434 -4.49568 0
M  V30 5494 C 522.6 2.12968 -3.8514 0
M  V30 5495 H 519.719 0.22491 -0.701844 0
M  V30 5496 H 522.361 -0.113711 -1.89659 0
M  V30 5497 H 520.511 1.8459 -3.41846 0
M  V30 5498 H 522.183 -0.48753 -4.58717 0
M  V30 5499 H 520.426 -0.527424 -4.30582 0
M  V30 5500 H 521.097 0.601127 -5.48717 0
M  V30 5501 H 523.573 1.60163 -3.8404 0
M  V30 5502 H 522.449 2.51578 -4.87852 0
M  V30 5503 H 522.71 3.03004 -3.21934 0
M  V30 5504 N 521.769 1.56035 0.221574 0
M  V30 5505 C 522.679 1.95581 1.29558 0
M  V30 5506 C 523.695 0.859639 1.51282 0
M  V30 5507 O 524.871 1.16321 1.64413 0
M  V30 5508 C 521.936 2.26447 2.62531 0
M  V30 5509 C 520.997 3.49632 2.4911 0
M  V30 5510 C 520.23 3.79017 3.75742 0
M  V30 5511 O 520.453 3.10077 4.78757 0
M  V30 5512 O 519.387 4.72507 3.72855 0
M  V30 5513 H 523.213 2.8711 0.990035 0
M  V30 5514 H 520.798 1.43244 0.424434 0
M  V30 5515 H 522.68 2.47494 3.41064 0
M  V30 5516 H 521.355 1.38092 2.92766 0
M  V30 5517 H 520.262 3.33864 1.68777 0
M  V30 5518 H 521.595 4.3837 2.23814 0
M  V30 5519 N 523.247 -0.488276 1.49845 0
M  V30 5520 C 524.477 -1.26344 1.63465 0
M  V30 5521 C 524.885 -1.86637 0.310379 0
M  V30 5522 O 524.228 -1.69184 -0.715712 0
M  V30 5523 C 524.29 -2.42407 2.65479 0
M  V30 5524 C 523.954 -2.02886 4.09495 0
M  V30 5525 C 524.951 -1.56124 4.95904 0
M  V30 5526 C 522.636 -2.12131 4.55308 0
M  V30 5527 C 524.63 -1.19129 6.26169 0
M  V30 5528 C 522.317 -1.74747 5.85582 0
M  V30 5529 C 523.315 -1.28322 6.70837 0
M  V30 5530 O 523.003 -0.914491 7.98682 0
M  V30 5531 H 522.735 -0.388921 0.552916 0
M  V30 5532 H 525.289 -0.591288 1.96705 0
M  V30 5533 H 523.519 -3.12739 2.27445 0
M  V30 5534 H 525.208 -3.04409 2.68495 0
M  V30 5535 H 525.974 -1.48417 4.61733 0
M  V30 5536 H 521.853 -2.47217 3.89107 0
M  V30 5537 H 525.397 -0.828211 6.92666 0
M  V30 5538 H 521.294 -1.82109 6.19279 0
M  V30 5539 H 522.062 -1.04485 8.11804 0
M  V30 5540 N 524.725 -1.39134 -0.740242 0
M  V30 5541 C 526.002 -1.26584 -1.49117 0
M  V30 5542 C 526.382 0.126902 -2.10718 0
M  V30 5543 O 525.73 1.13765 -1.98166 0
M  V30 5544 C 525.94 -2.38619 -2.54681 0
M  V30 5545 C 527.288 -2.77685 -3.21211 0
M  V30 5546 O 528.312 -2.38029 -2.64991 0
M  V30 5547 O 527.171 -3.46115 -4.22926 0
M  V30 5548 H 524.265 -0.495769 -0.661923 0
M  V30 5549 H 526.811 -1.50995 -0.774514 0
M  V30 5550 H 525.583 -3.3175 -2.07504 0
M  V30 5551 H 525.206 -2.15845 -3.33911 0
M  V30 5552 N 526.204 0.969867 -1.24223 0
M  V30 5553 C 527.452 1.70918 -1.0785 0
M  V30 5554 C 527.773 1.91186 0.383763 0
M  V30 5555 O 527.043 1.48806 1.27411 0
M  V30 5556 H 525.623 0.633334 -0.396103 0
M  V30 5557 H 528.285 1.16689 -1.56108 0
M  V30 5558 H 527.381 2.69455 -1.57482 0
M  V30 5559 N 527.682 1.05563 1.17022 0
M  V30 5560 C 528.612 0.681026 2.23348 0
M  V30 5561 C 529.593 -0.322983 1.67005 0
M  V30 5562 O 530.778 -0.199746 1.9317 0
M  V30 5563 C 527.908 0.0589053 3.4725 0
M  V30 5564 C 526.862 0.988082 4.16438 0
M  V30 5565 C 526.188 0.229646 5.34207 0
M  V30 5566 C 527.488 2.31388 4.68249 0
M  V30 5567 H 529.182 1.56993 2.54938 0
M  V30 5568 H 526.728 0.756302 1.2254 0
M  V30 5569 H 528.681 -0.214982 4.20851 0
M  V30 5570 H 527.405 -0.864968 3.14938 0
M  V30 5571 H 526.064 1.24659 3.44754 0
M  V30 5572 H 525.712 -0.697111 4.98146 0
M  V30 5573 H 525.412 0.848815 5.81437 0
M  V30 5574 H 526.936 -0.0368694 6.10589 0
M  V30 5575 H 528.35 2.09964 5.33468 0
M  V30 5576 H 526.747 2.88736 5.26072 0
M  V30 5577 H 527.817 2.94982 3.84855 0
M  V30 5578 N 529.16 -1.33526 0.837174 0
M  V30 5579 C 530.388 -2.02047 0.445494 0
M  V30 5580 C 530.803 -1.62995 -0.952788 0
M  V30 5581 O 530.16 -0.842447 -1.61892 0
M  V30 5582 C 530.211 -3.57221 0.554577 0
M  V30 5583 O 529.932 -3.94863 1.89776 0
M  V30 5584 C 531.433 -4.43012 0.159634 0
M  V30 5585 H 528.653 -0.647221 0.177048 0
M  V30 5586 H 531.197 -1.70492 1.12928 0
M  V30 5587 H 529.352 -3.87315 -0.0812781 0
M  V30 5588 H 529.766 -4.89569 1.88208 0
M  V30 5589 H 531.24 -5.51253 0.28701 0
M  V30 5590 H 531.717 -4.29916 -0.898289 0
M  V30 5591 H 532.323 -4.18274 0.769855 0
M  V30 5592 N 530.638 -0.59345 -1.46 0
M  V30 5593 C 531.886 -0.082988 -2.0193 0
M  V30 5594 C 532.207 1.28569 -1.46612 0
M  V30 5595 O 531.477 1.84629 -0.654909 0
M  V30 5596 H 530.057 -0.0276882 -0.746487 0
M  V30 5597 H 532.719 -0.771657 -1.78973 0
M  V30 5598 H 531.815 -0.022079 -3.12092 0
M  V30 5599 N 532.116 1.54067 -0.331816 0
M  V30 5600 C 533.532 1.59587 0.0205388 0
M  V30 5601 C 533.732 1.34813 1.49759 0
M  V30 5602 O 532.788 1.13661 2.25471 0
M  V30 5603 C 534.101 2.97959 -0.405103 0
M  V30 5604 C 535.649 3.10964 -0.356454 0
M  V30 5605 C 536.124 4.51694 -0.757384 0
M  V30 5606 N 537.615 4.57709 -0.71111 0
M  V30 5607 C 538.35 5.64729 -0.993427 0
M  V30 5608 N 537.846 6.79652 -1.3433 0
M  V30 5609 N 539.639 5.54546 -0.918442 0
M  V30 5610 H 531.79 1.68426 -1.29407 0
M  V30 5611 H 534.053 0.78819 -0.526745 0
M  V30 5612 H 533.759 3.21115 -1.43451 0
M  V30 5613 H 533.633 3.76524 0.225692 0
M  V30 5614 H 536.02 2.87538 0.663763 0
M  V30 5615 H 536.101 2.34484 -1.02229 0
M  V30 5616 H 535.745 4.75853 -1.77555 0
M  V30 5617 H 535.675 5.26555 -0.0691444 0
M  V30 5618 H 538.166 3.75176 -0.452883 0
M  V30 5619 H 538.479 7.57221 -1.54388 0
M  V30 5620 H 536.824 6.81128 -1.38164 0
M  V30 5621 H 540.015 4.63641 -0.644536 0
M  V30 5622 H 540.188 6.37861 -1.14181 0
M  V30 5623 N 533.594 0.0601682 1.57485 0
M  V30 5624 C 534.84 -0.612501 1.93329 0
M  V30 5625 C 535.173 -1.6996 0.939526 0
M  V30 5626 O 534.448 -1.94472 -0.0330957 0
M  V30 5627 C 534.731 -1.20025 3.39508 0
M  V30 5628 C 534.584 -0.12059 4.49638 0
M  V30 5629 C 535.903 -2.10923 3.86264 0
M  V30 5630 H 533.022 -0.221185 0.703027 0
M  V30 5631 H 535.664 0.123768 1.89596 0
M  V30 5632 H 533.814 -1.82774 3.42821 0
M  V30 5633 H 535.486 0.51185 4.58452 0
M  V30 5634 H 533.729 0.550251 4.30296 0
M  V30 5635 H 534.4 -0.572019 5.49028 0
M  V30 5636 H 536.876 -1.58124 3.84884 0
M  V30 5637 H 535.752 -2.48987 4.8918 0
M  V30 5638 H 536.013 -3.01292 3.23536 0
M  V30 5639 N 535.072 -1.5615 -0.213296 0
M  V30 5640 C 535.982 -1.96265 -1.28519 0
M  V30 5641 C 536.998 -0.86765 -1.50824 0
M  V30 5642 O 538.174 -1.17191 -1.63793 0
M  V30 5643 C 535.239 -2.27836 -2.61327 0
M  V30 5644 C 534.3 -3.50949 -2.47252 0
M  V30 5645 C 533.533 -3.81004 -3.73727 0
M  V30 5646 O 533.756 -3.12612 -4.77106 0
M  V30 5647 O 532.69 -4.74477 -3.70344 0
M  V30 5648 H 536.516 -2.87631 -0.974795 0
M  V30 5649 H 534.101 -1.43467 -0.416832 0
M  V30 5650 H 535.983 -2.49299 -3.39747 0
M  V30 5651 H 534.658 -1.39643 -2.9203 0
M  V30 5652 H 533.565 -3.34754 -1.67004 0
M  V30 5653 H 534.898 -4.39551 -2.21486 0
M  V30 5654 N 536.55 0.480323 -1.50102 0
M  V30 5655 C 537.797 1.23307 -1.60629 0
M  V30 5656 C 538.125 1.92135 -0.302375 0
M  V30 5657 O 537.38 1.82321 0.711154 0
M  V30 5658 C 537.679 2.30708 -2.72963 0
M  V30 5659 C 537.345 1.79195 -4.13763 0
M  V30 5660 C 536.007 1.64867 -4.52076 0
M  V30 5661 C 538.359 1.40878 -5.018 0
M  V30 5662 C 535.687 1.10631 -5.76175 0
M  V30 5663 C 538.039 0.880872 -6.26437 0
M  V30 5664 C 536.703 0.724146 -6.6356 0
M  V30 5665 H 535.973 0.451211 -0.587784 0
M  V30 5666 H 538.62 0.53051 -1.84005 0
M  V30 5667 H 536.925 3.06834 -2.43639 0
M  V30 5668 H 538.622 2.88692 -2.78313 0
M  V30 5669 H 535.212 1.91313 -3.83533 0
M  V30 5670 H 539.396 1.50786 -4.7284 0
M  V30 5671 H 534.652 0.972263 -6.0362 0
M  V30 5672 H 538.826 0.575269 -6.9402 0
M  V30 5673 H 536.453 0.301722 -7.59601 0
M  V30 5674 N 538.028 1.39524 0.732853 0
M  V30 5675 C 538.976 1.38563 1.86824 0
M  V30 5676 C 539.97 0.268467 1.67259 0
M  V30 5677 O 541.176 0.438613 1.74574 0
M  V30 5678 H 537.551 0.432737 0.615014 0
M  V30 5679 H 539.522 2.34328 1.84751 0
M  V30 5680 C 538.271 1.2481 3.24527 0
M  V30 5681 H 537.594 2.10044 3.40179 0
M  V30 5682 H 539.034 1.28194 4.04156 0
M  V30 5683 C 537.493 -0.0432825 3.36872 0
M  V30 5684 O 538.023 -1.01268 3.88726 0
M  V30 5685 N 536.229 -0.107055 2.90403 0
M  V30 5686 H 535.776 0.682512 2.48394 0
M  V30 5687 H 535.734 -0.970618 2.99042 0
M  V30 5688 N 539.506 -0.963266 1.24736 0
M  V30 5689 C 540.731 -1.74699 1.11781 0
M  V30 5690 C 541.156 -1.85267 -0.325258 0
M  V30 5691 O 540.514 -1.32681 -1.23553 0
M  V30 5692 C 540.562 -3.14322 1.76731 0
M  V30 5693 O 539.666 -3.99043 1.04109 0
M  V30 5694 H 539.007 -0.53684 0.390767 0
M  V30 5695 H 541.537 -1.20801 1.65131 0
M  V30 5696 H 541.547 -3.64824 1.82668 0
M  V30 5697 H 540.222 -3.05946 2.81726 0
M  V30 5698 H 538.799 -3.5752 1.05991 0
M  V30 5699 N 540.985 -1.06182 -1.16461 0
M  V30 5700 C 541.932 -0.671613 -2.20812 0
M  V30 5701 C 542.902 0.331186 -1.62765 0
M  V30 5702 O 544.087 0.22033 -1.89524 0
M  V30 5703 C 541.227 -0.063029 -3.45042 0
M  V30 5704 C 540.34 -1.11587 -4.1734 0
M  V30 5705 C 539.475 -0.473546 -5.29085 0
M  V30 5706 C 538.514 -1.51 -5.93182 0
M  V30 5707 N 537.651 -0.891118 -6.96422 0
M  V30 5708 H 542.491 -1.56589 -2.53542 0
M  V30 5709 H 540.028 -0.782951 -1.24532 0
M  V30 5710 H 541.986 0.307344 -4.16066 0
M  V30 5711 H 540.616 0.794663 -3.12866 0
M  V30 5712 H 539.668 -1.60396 -3.44931 0
M  V30 5713 H 540.98 -1.90221 -4.61104 0
M  V30 5714 H 540.134 -0.0501432 -6.06679 0
M  V30 5715 H 538.873 0.344687 -4.8648 0
M  V30 5716 H 537.878 -1.94331 -5.14311 0
M  V30 5717 H 539.103 -2.33031 -6.37866 0
M  V30 5718 H 537.049 -0.0935753 -6.55933 0
M  V30 5719 H 536.966 -1.61486 -7.38551 0
M  V30 5720 H 538.234 -0.492822 -7.77941 0
M  V30 5721 N 542.463 1.3308 -0.844243 0
M  V30 5722 C 543.711 1.97215 -0.441676 0
M  V30 5723 C 544.032 1.67185 1.0037 0
M  V30 5724 O 543.302 0.973588 1.69994 0
M  V30 5725 H 541.882 0.72959 -0.160335 0
M  V30 5726 H 544.544 1.62348 -1.07838 0
M  V30 5727 H 543.64 3.06698 -0.57815 0
M  V30 5728 N 543.941 0.601185 1.45683 0
M  V30 5729 C 544.873 -0.159446 2.28645 0
M  V30 5730 C 545.886 -0.837882 1.39583 0
M  V30 5731 O 547.075 -0.704344 1.64016 0
M  V30 5732 C 544.175 -1.24641 3.15147 0
M  V30 5733 C 543.348 -0.656334 4.32448 0
M  V30 5734 C 542.407 -1.63337 5.00208 0
M  V30 5735 O 541.433 -1.16217 5.57209 0
M  V30 5736 N 542.635 -2.96773 4.98905 0
M  V30 5737 H 545.4 0.5524 2.94565 0
M  V30 5738 H 542.961 0.440223 1.558 0
M  V30 5739 H 544.953 -1.8997 3.57342 0
M  V30 5740 H 543.523 -1.86087 2.51178 0
M  V30 5741 H 542.743 0.174879 3.93812 0
M  V30 5742 H 544.031 -0.242211 5.08223 0
M  V30 5743 H 543.429 -3.37662 4.53873 0
M  V30 5744 H 541.986 -3.57541 5.44984 0
M  V30 5745 N 545.419 -1.53889 0.339982 0
M  V30 5746 C 546.835 -1.59595 -0.0120752 0
M  V30 5747 C 547.035 -1.35605 -1.49042 0
M  V30 5748 O 546.091 -1.14856 -2.24865 0
M  V30 5749 C 547.404 -2.9774 0.420898 0
M  V30 5750 C 548.952 -3.1077 0.37294 0
M  V30 5751 C 549.427 -4.51286 0.781327 0
M  V30 5752 N 550.918 -4.57325 0.735374 0
M  V30 5753 C 551.653 -5.64194 1.02336 0
M  V30 5754 N 551.149 -6.7893 1.37933 0
M  V30 5755 N 552.942 -5.54051 0.947838 0
M  V30 5756 H 545.093 -1.67738 1.30299 0
M  V30 5757 H 547.356 -0.785385 0.530918 0
M  V30 5758 H 547.062 -3.20349 1.45152 0
M  V30 5759 H 546.936 -3.76639 -0.205721 0
M  V30 5760 H 549.323 -2.87886 -0.648505 0
M  V30 5761 H 549.404 -2.33939 1.03472 0
M  V30 5762 H 549.048 -4.74905 1.80077 0
M  V30 5763 H 548.978 -5.26511 0.0970679 0
M  V30 5764 H 551.469 -3.74931 0.472773 0
M  V30 5765 H 551.782 -7.56392 1.58402 0
M  V30 5766 H 550.127 -6.80386 1.41774 0
M  V30 5767 H 553.318 -4.63293 0.669115 0
M  V30 5768 H 553.491 -6.37246 1.17563 0
M  V30 5769 N 546.897 -0.0685191 -1.57451 0
M  V30 5770 C 548.125 0.610462 -1.97689 0
M  V30 5771 C 548.54 1.63346 -0.946758 0
M  V30 5772 O 547.897 1.82377 0.0669868 0
M  V30 5773 C 547.948 1.28196 -3.38006 0
M  V30 5774 O 547.669 0.299906 -4.37072 0
M  V30 5775 C 549.17 2.04907 -3.931 0
M  V30 5776 H 546.39 0.165689 -0.650222 0
M  V30 5777 H 548.934 -0.139953 -2.04021 0
M  V30 5778 H 547.089 1.98348 -3.32771 0
M  V30 5779 H 547.503 0.78126 -5.18649 0
M  V30 5780 H 548.977 2.47287 -4.93511 0
M  V30 5781 H 549.454 2.9043 -3.29465 0
M  V30 5782 H 550.06 1.39629 -4.01726 0
M  V30 5783 N 548.375 1.56261 0.205012 0
M  V30 5784 C 549.323 1.94631 1.27364 0
M  V30 5785 C 550.317 0.830434 1.47649 0
M  V30 5786 O 551.523 1.01538 1.48627 0
M  V30 5787 H 547.898 0.618755 0.427371 0
M  V30 5788 H 549.869 2.83768 0.922941 0
M  V30 5789 C 548.618 2.29358 2.61324 0
M  V30 5790 H 547.941 3.14744 2.46528 0
M  V30 5791 H 549.381 2.60076 3.34868 0
M  V30 5792 C 547.84 1.12461 3.17575 0
M  V30 5793 O 548.37 0.394407 3.99759 0
M  V30 5794 N 546.576 0.904036 2.7618 0
M  V30 5795 H 546.123 1.49956 2.09454 0
M  V30 5796 H 546.081 0.123662 3.14157 0
M  V30 5797 N 549.853 -0.472356 1.50355 0
M  V30 5798 C 551.083 -1.24603 1.64796 0
M  V30 5799 C 551.491 -1.86297 0.330156 0
M  V30 5800 O 550.834 -1.69934 -0.697728 0
M  V30 5801 C 550.896 -2.39578 2.68035 0
M  V30 5802 C 550.56 -1.98531 4.11624 0
M  V30 5803 C 551.557 -1.50856 4.97532 0
M  V30 5804 C 549.242 -2.0729 4.57532 0
M  V30 5805 C 551.236 -1.12481 6.27397 0
M  V30 5806 C 548.923 -1.68527 5.87403 0
M  V30 5807 C 549.921 -1.212 6.7216 0
M  V30 5808 O 549.609 -0.829728 7.99607 0
M  V30 5809 H 549.341 -0.383035 0.55701 0
M  V30 5810 H 551.895 -0.570392 1.97321 0
M  V30 5811 H 550.125 -3.10309 2.30749 0
M  V30 5812 H 551.814 -3.01544 2.71709 0
M  V30 5813 H 552.58 -1.43511 4.63281 0
M  V30 5814 H 548.459 -2.43076 3.91708 0
M  V30 5815 H 552.003 -0.754698 6.93506 0
M  V30 5816 H 547.9 -1.7553 6.21176 0
M  V30 5817 H 548.668 -0.958689 8.12866 0
M  V30 5818 N 551.331 -1.39911 -0.725443 0
M  V30 5819 C 552.559 -1.40949 -1.51463 0
M  V30 5820 C 552.974 -0.0065242 -1.88799 0
M  V30 5821 O 552.331 0.967163 -1.54765 0
M  V30 5822 C 552.382 -2.29119 -2.79619 0
M  V30 5823 O 552.103 -3.63952 -2.43866 0
M  V30 5824 C 553.604 -2.38642 -3.73584 0
M  V30 5825 H 550.824 -0.481091 -0.467752 0
M  V30 5826 H 553.368 -1.83843 -0.895651 0
M  V30 5827 H 551.523 -1.89612 -3.37826 0
M  V30 5828 H 551.937 -4.10677 -3.26258 0
M  V30 5829 H 553.411 -3.04563 -4.60375 0
M  V30 5830 H 553.888 -1.40846 -4.16004 0
M  V30 5831 H 554.494 -2.78659 -3.21293 0
M  V30 5832 N 552.809 0.956637 -1.25245 0
M  V30 5833 C 553.739 2.07058 -1.07931 0
M  V30 5834 C 554.72 1.70096 0.0110361 0
M  V30 5835 O 555.905 1.93555 -0.158121 0
M  V30 5836 C 553.035 3.40272 -0.695124 0
M  V30 5837 C 551.989 3.91235 -1.73549 0
M  V30 5838 C 551.315 5.20921 -1.20604 0
M  V30 5839 C 552.615 4.17837 -3.13385 0
M  V30 5840 H 554.309 2.218 -2.01109 0
M  V30 5841 H 551.855 1.06581 -0.968326 0
M  V30 5842 H 553.808 4.1765 -0.560949 0
M  V30 5843 H 552.532 3.25462 0.272355 0
M  V30 5844 H 551.191 3.16025 -1.85807 0
M  V30 5845 H 550.839 5.02479 -0.228846 0
M  V30 5846 H 550.539 5.55987 -1.90136 0
M  V30 5847 H 552.063 6.00897 -1.08421 0
M  V30 5848 H 553.477 4.8588 -3.04292 0
M  V30 5849 H 551.874 4.64154 -3.80369 0
M  V30 5850 H 552.944 3.2419 -3.60595 0
M  V30 5851 N 554.287 1.06798 1.15896 0
M  V30 5852 C 555.703 0.792423 1.38538 0
M  V30 5853 C 555.903 -0.60592 1.92174 0
M  V30 5854 O 554.959 -1.36561 2.12385 0
M  V30 5855 C 556.272 1.86157 2.36149 0
M  V30 5856 C 557.82 1.88567 2.49823 0
M  V30 5857 C 558.295 2.9455 3.5072 0
M  V30 5858 N 559.786 2.93616 3.58251 0
M  V30 5859 C 560.521 3.72267 4.36125 0
M  V30 5860 N 560.017 4.60751 5.17379 0
M  V30 5861 N 561.81 3.60637 4.31158 0
M  V30 5862 H 553.961 1.96993 0.794198 0
M  V30 5863 H 556.224 0.853942 0.411688 0
M  V30 5864 H 555.93 2.86603 2.03843 0
M  V30 5865 H 555.804 1.71692 3.3586 0
M  V30 5866 H 558.191 0.887765 2.8143 0
M  V30 5867 H 558.272 2.0711 1.5013 0
M  V30 5868 H 557.916 3.94537 3.19849 0
M  V30 5869 H 557.846 2.73255 4.50155 0
M  V30 5870 H 560.337 2.29472 3.00252 0
M  V30 5871 H 560.65 5.17408 5.74028 0
M  V30 5872 H 558.995 4.64803 5.16704 0
M  V30 5873 H 562.186 2.90892 3.66742 0
M  V30 5874 H 562.359 4.22176 4.91601 0
M  V30 5875 N 555.766 -1.3263 0.851289 0
M  V30 5876 C 557.015 -1.96633 0.449267 0
M  V30 5877 C 557.328 -1.68131 -0.999562 0
M  V30 5878 O 558.534 -2.25845 -1.50685 0
M  V30 5879 C 556.99 -3.51946 0.752446 0
M  V30 5880 C 556.598 -3.89311 2.21678 0
M  V30 5881 C 558.342 -4.22437 0.417983 0
M  V30 5882 C 556.249 -5.37655 2.46336 0
M  V30 5883 H 555.179 -0.735888 0.164269 0
M  V30 5884 H 557.83 -1.51073 1.0416 0
M  V30 5885 H 556.212 -3.95899 0.0895858 0
M  V30 5886 H 557.386 -3.56378 2.92115 0
M  V30 5887 H 555.701 -3.31836 2.51543 0
M  V30 5888 H 558.298 -5.31549 0.579674 0
M  V30 5889 H 558.641 -4.11349 -0.640115 0
M  V30 5890 H 559.174 -3.84057 1.03659 0
M  V30 5891 H 555.913 -5.5376 3.50757 0
M  V30 5892 H 555.433 -5.72005 1.80473 0
M  V30 5893 H 557.112 -6.04695 2.30115 0
M  V30 5894 N 557.244 -0.608902 -1.45362 0
M  V30 5895 C 558.174 0.0964526 -2.33301 0
M  V30 5896 C 559.155 0.857444 -1.46908 0
M  V30 5897 O 560.34 0.827735 -1.75676 0
M  V30 5898 C 557.47 1.09354 -3.29635 0
M  V30 5899 C 556.424 0.445676 -4.25673 0
M  V30 5900 C 555.75 1.5511 -5.11708 0
M  V30 5901 C 557.05 -0.633972 -5.18438 0
M  V30 5902 H 558.744 -0.637829 -2.92527 0
M  V30 5903 H 556.29 -0.308178 -1.40664 0
M  V30 5904 H 558.243 1.59556 -3.90025 0
M  V30 5905 H 556.967 1.85843 -2.6857 0
M  V30 5906 H 555.626 -0.0354897 -3.66583 0
M  V30 5907 H 555.274 2.30631 -4.4701 0
M  V30 5908 H 554.974 1.12311 -5.76767 0
M  V30 5909 H 556.498 2.05537 -5.74967 0
M  V30 5910 H 557.912 -0.215974 -5.72893 0
M  V30 5911 H 556.309 -0.983789 -5.91981 0
M  V30 5912 H 557.379 -1.51005 -4.60788 0
M  V30 5913 N 558.722 1.53707 -0.348139 0
M  V30 5914 C 559.632 2.28881 0.514857 0
M  V30 5915 C 560.648 1.34168 1.10793 0
M  V30 5916 O 561.824 1.6721 1.12262 0
M  V30 5917 C 558.889 3.05042 1.64774 0
M  V30 5918 C 557.95 4.15389 1.08398 0
M  V30 5919 C 557.183 4.87909 2.16287 0
M  V30 5920 O 557.406 4.60137 3.3709 0
M  V30 5921 O 556.34 5.74254 1.80323 0
M  V30 5922 H 560.166 3.03547 -0.0963699 0
M  V30 5923 H 557.751 1.48972 -0.113043 0
M  V30 5924 H 559.633 3.52656 2.30677 0
M  V30 5925 H 558.308 2.33228 2.24469 0
M  V30 5926 H 557.215 3.72068 0.389341 0
M  V30 5927 H 558.548 4.89318 0.531829 0
M  V30 5928 N 560.2 0.0768682 1.57412 0
M  V30 5929 C 561.147 -0.888577 2.13009 0
M  V30 5930 C 562.117 -1.29198 1.0439 0
M  V30 5931 O 563.302 -1.37694 1.3208 0
M  V30 5932 C 560.442 -2.14899 2.70023 0
M  V30 5933 C 559.555 -1.79777 3.92816 0
M  V30 5934 C 558.69 -3.00467 4.38056 0
M  V30 5935 C 557.729 -2.61385 5.53484 0
M  V30 5936 N 556.866 -3.74851 5.93659 0
M  V30 5937 H 561.706 -0.407593 2.95199 0
M  V30 5938 H 559.243 -0.189534 1.45874 0
M  V30 5939 H 561.201 -2.88688 3.0119 0
M  V30 5940 H 559.831 -2.60529 1.9059 0
M  V30 5941 H 558.883 -0.960301 3.68079 0
M  V30 5942 H 560.195 -1.47027 4.76639 0
M  V30 5943 H 559.349 -3.82529 4.7091 0
M  V30 5944 H 558.088 -3.36413 3.53097 0
M  V30 5945 H 557.093 -1.77746 5.20275 0
M  V30 5946 H 558.318 -2.26603 6.40178 0
M  V30 5947 H 556.264 -4.1055 5.11649 0
M  V30 5948 H 556.181 -3.45887 6.72234 0
M  V30 5949 H 557.449 -4.57477 6.31138 0
M  V30 5950 N 561.678 -1.56367 -0.196722 0
M  V30 5951 C 562.903 -1.84991 -0.937714 0
M  V30 5952 C 563.328 -0.660244 -1.76132 0
M  V30 5953 O 562.686 0.390967 -1.77034 0
M  V30 5954 C 562.734 -3.11828 -1.81096 0
M  V30 5955 O 561.838 -2.92266 -2.90955 0
M  V30 5956 H 561.179 -0.609193 -0.264159 0
M  V30 5957 H 563.709 -2.03595 -0.202529 0
M  V30 5958 H 563.719 -3.42579 -2.21594 0
M  V30 5959 H 562.394 -3.98037 -1.2058 0
M  V30 5960 H 560.971 -2.72809 -2.54224 0
M  V30 5961 N 563.156 0.464375 -1.50603 0
M  V30 5962 C 564.572 0.798684 -1.38178 0
M  V30 5963 C 564.772 1.96568 -0.44308 0
M  V30 5964 O 563.828 2.52252 0.111814 0
M  V30 5965 C 565.141 1.10444 -2.79683 0
M  V30 5966 C 566.689 1.2105 -2.88645 0
M  V30 5967 C 567.164 1.54934 -4.30998 0
M  V30 5968 N 568.655 1.61913 -4.3398 0
M  V30 5969 C 569.39 1.8965 -5.41129 0
M  V30 5970 N 568.886 2.15361 -6.58477 0
M  V30 5971 N 570.679 1.91207 -5.28579 0
M  V30 5972 H 562.83 -0.304603 -2.10204 0
M  V30 5973 H 565.093 -0.0737804 -0.945125 0
M  V30 5974 H 564.799 0.319934 -3.50242 0
M  V30 5975 H 564.673 2.03896 -3.17342 0
M  V30 5976 H 567.06 1.98567 -2.18301 0
M  V30 5977 H 567.141 0.255613 -2.5452 0
M  V30 5978 H 566.785 0.779549 -5.01882 0
M  V30 5979 H 566.715 2.51584 -4.62615 0
M  V30 5980 H 569.206 1.44055 -3.49366 0
M  V30 5981 H 569.519 2.35818 -7.35941 0
M  V30 5982 H 567.864 2.1274 -6.6164 0
M  V30 5983 H 571.055 1.70622 -4.35897 0
M  V30 5984 H 571.228 2.12488 -6.12171 0
M  V30 5985 N 564.634 1.40294 0.718013 0
M  V30 5986 C 565.566 1.36281 1.84283 0
M  V30 5987 C 566.579 0.268621 1.60569 0
M  V30 5988 O 567.768 0.528798 1.70487 0
M  V30 5989 C 564.868 1.09741 3.2064 0
M  V30 5990 C 564.041 2.30767 3.71571 0
M  V30 5991 C 563.1 2.00424 4.86535 0
M  V30 5992 O 562.126 2.73268 4.99313 0
M  V30 5993 N 563.328 0.980724 5.72156 0
M  V30 5994 H 566.093 2.3322 1.88225 0
M  V30 5995 H 563.654 1.34616 0.899453 0
M  V30 5996 H 565.646 0.874322 3.95143 0
M  V30 5997 H 564.216 0.214771 3.11861 0
M  V30 5998 H 563.436 2.68921 2.88228 0
M  V30 5999 H 564.724 3.11455 4.02335 0
M  V30 6000 H 564.122 0.377375 5.6444 0
M  V30 6001 H 562.679 0.817538 6.46653 0
M  V30 6002 N 566.112 -0.949982 1.2575 0
M  V30 6003 C 567.36 -1.6918 1.10555 0
M  V30 6004 C 567.681 -1.91773 -0.353298 0
M  V30 6005 O 566.951 -1.50814 -1.25027 0
M  V30 6006 H 565.531 -0.626952 0.406129 0
M  V30 6007 H 568.193 -1.1419 1.57945 0
M  V30 6008 H 567.289 -2.66915 1.61749 0
M  V30 6009 N 567.59 -1.07411 -1.15328 0
M  V30 6010 C 568.54 -0.664788 -2.18093 0
M  V30 6011 C 569.524 0.310395 -1.57878 0
M  V30 6012 O 570.716 0.124026 -1.76565 0
M  V30 6013 C 567.845 -0.0647822 -3.43239 0
M  V30 6014 C 566.931 -1.06514 -4.10506 0
M  V30 6015 N 567.322 -2.24491 -4.53252 0
M  V30 6016 C 565.62 -0.898613 -4.36853 0
M  V30 6017 C 566.321 -2.8796 -5.05424 0
M  V30 6018 N 565.297 -2.15622 -4.99007 0
M  V30 6019 H 569.099 -1.56333 -2.48872 0
M  V30 6020 H 566.613 -0.947393 -1.31902 0
M  V30 6021 H 568.61 0.246363 -4.16171 0
M  V30 6022 H 567.27 0.828866 -3.13943 0
M  V30 6023 H 568.281 -2.62205 -4.46619 0
M  V30 6024 H 564.958 -0.0579118 -4.1746 0
M  V30 6025 H 566.348 -3.88137 -5.48452 0
M  V30 6026 N 569.068 1.32177 -0.85831 0
M  V30 6027 C 570.484 1.49873 -0.548656 0
M  V30 6028 C 570.684 1.79278 0.919874 0
M  V30 6029 O 569.74 1.86451 1.70271 0
M  V30 6030 C 571.053 2.64043 -1.4388 0
M  V30 6031 C 572.601 2.77928 -1.43961 0
M  V30 6032 C 573.076 3.95182 -2.31506 0
M  V30 6033 N 574.567 4.0245 -2.29321 0
M  V30 6034 C 575.302 4.9242 -2.93786 0
M  V30 6035 N 574.798 5.87373 -3.67376 0
M  V30 6036 N 576.591 4.85572 -2.83155 0
M  V30 6037 H 568.742 1.11357 -1.80868 0
M  V30 6038 H 571.005 0.549175 -0.772729 0
M  V30 6039 H 570.711 2.49055 -2.48324 0
M  V30 6040 H 570.585 3.59912 -1.12885 0
M  V30 6041 H 572.972 2.92338 -0.402813 0
M  V30 6042 H 573.053 1.82762 -1.78974 0
M  V30 6043 H 572.697 3.81531 -3.35256 0
M  V30 6044 H 572.627 4.89633 -1.93823 0
M  V30 6045 H 575.118 3.34507 -1.75822 0
M  V30 6046 H 575.431 6.52728 -4.13722 0
M  V30 6047 H 573.776 5.87388 -3.71484 0
M  V30 6048 H 576.967 4.10363 -2.25211 0
M  V30 6049 H 577.14 5.55486 -3.33676 0
M  V30 6050 N 570.547 0.616602 1.45037 0
M  V30 6051 C 571.457 -0.0985401 2.34393 0
M  V30 6052 C 572.473 -0.850971 1.51771 0
M  V30 6053 O 573.649 -0.806521 1.84546 0
M  V30 6054 C 570.714 -1.07748 3.29532 0
M  V30 6055 C 569.775 -0.326022 4.2806 0
M  V30 6056 C 569.008 -1.25833 5.18654 0
M  V30 6057 O 569.231 -2.49652 5.12864 0
M  V30 6058 O 568.165 -0.750512 5.97203 0
M  V30 6059 H 571.991 0.636016 2.96966 0
M  V30 6060 H 569.576 0.376832 1.44569 0
M  V30 6061 H 571.458 -1.64107 3.88133 0
M  V30 6062 H 570.133 -1.79291 2.69512 0
M  V30 6063 H 569.04 0.280253 3.73049 0
M  V30 6064 H 570.373 0.349091 4.9096 0
M  V30 6065 N 572.025 -1.5352 0.356285 0
M  V30 6066 C 573.274 -2.00298 -0.237373 0
M  V30 6067 C 573.587 -1.24784 -1.50627 0
M  V30 6068 O 574.793 -1.62103 -2.17795 0
M  V30 6069 C 573.249 -3.56771 -0.473545 0
M  V30 6070 C 572.857 -4.41154 0.780183 0
M  V30 6071 C 574.601 -4.1193 -1.02537 0
M  V30 6072 C 572.508 -5.89161 0.514108 0
M  V30 6073 H 571.438 -0.748307 -0.092478 0
M  V30 6074 H 574.089 -1.77283 0.473588 0
M  V30 6075 H 572.471 -3.75902 -1.24553 0
M  V30 6076 H 573.645 -4.33797 1.55425 0
M  V30 6077 H 571.96 -3.97052 1.25455 0
M  V30 6078 H 574.557 -5.20133 -1.2396 0
M  V30 6079 H 574.9 -3.65943 -1.98473 0
M  V30 6080 H 575.433 -3.96561 -0.313775 0
M  V30 6081 H 572.172 -6.39408 1.44355 0
M  V30 6082 H 571.692 -5.9939 -0.221632 0
M  V30 6083 H 573.371 -6.46857 0.136122 0
M  V30 6084 N 573.503 -0.0852151 -1.57369 0
M  V30 6085 C 574.751 0.579658 -1.93609 0
M  V30 6086 C 575.072 1.69332 -0.967043 0
M  V30 6087 O 574.342 1.95892 -0.0174215 0
M  V30 6088 H 572.922 0.217113 -0.714752 0
M  V30 6089 H 575.584 -0.146226 -1.94351 0
M  V30 6090 H 574.68 0.996276 -2.95771 0
M  V30 6091 N 574.981 1.5647 0.188427 0
M  V30 6092 C 576.227 1.81281 0.909124 0
M  V30 6093 C 576.56 0.66034 1.82628 0
M  V30 6094 O 575.835 -0.338737 1.91528 0
M  V30 6095 C 576.118 3.16388 1.7196 0
M  V30 6096 C 575.971 4.42137 0.826714 0
M  V30 6097 C 577.29 3.48256 2.69083 0
M  V30 6098 H 574.409 0.659457 0.329068 0
M  V30 6099 H 577.051 1.89182 0.176156 0
M  V30 6100 H 575.201 3.09784 2.34448 0
M  V30 6101 H 576.873 4.60794 0.216025 0
M  V30 6102 H 575.116 4.33594 0.133792 0
M  V30 6103 H 575.787 5.33184 1.42893 0
M  V30 6104 H 578.263 3.55203 2.16726 0
M  V30 6105 H 577.139 4.43899 3.2287 0
M  V30 6106 H 577.4 2.72088 3.48455 0
M  V30 6107 N 576.459 -0.456382 1.50847 0
M  V30 6108 C 577.705 -1.20618 1.63777 0
M  V30 6109 C 578.06 -1.8936 0.340677 0
M  V30 6110 O 577.353 -1.79786 -0.662378 0
M  V30 6111 C 577.547 -2.26336 2.76599 0
M  V30 6112 C 577.376 -1.67968 4.17153 0
M  V30 6113 C 576.146 -1.47293 4.83356 0
M  V30 6114 C 578.344 -1.16643 5.00898 0
M  V30 6115 N 576.326 -0.843222 6.08081 0
M  V30 6116 C 577.697 -0.660843 6.16468 0
M  V30 6117 C 579.752 -1.05637 4.86565 0
M  V30 6118 C 578.455 -0.0560365 7.19278 0
M  V30 6119 C 580.481 -0.465485 5.89565 0
M  V30 6120 C 579.843 0.0296516 7.04394 0
M  V30 6121 H 575.942 -0.429725 0.653345 0
M  V30 6122 H 578.526 -0.505784 1.88016 0
M  V30 6123 H 576.697 -2.93785 2.54056 0
M  V30 6124 H 578.429 -2.9334 2.78808 0
M  V30 6125 H 575.184 -1.72934 4.40898 0
M  V30 6126 H 575.608 -0.546357 6.74792 0
M  V30 6127 H 580.25 -1.42508 3.98059 0
M  V30 6128 H 577.968 0.324845 8.07447 0
M  V30 6129 H 581.554 -0.382493 5.80541 0
M  V30 6130 H 580.434 0.479705 7.82731 0
M  V30 6131 N 577.937 -1.40673 -0.710563 0
M  V30 6132 C 579.167 -1.4234 -1.49742 0
M  V30 6133 C 579.575 -0.022821 -1.89186 0
M  V30 6134 O 578.918 0.964773 -1.56326 0
M  V30 6135 C 578.98 -2.25509 -2.79975 0
M  V30 6136 C 578.644 -3.73862 -2.62824 0
M  V30 6137 C 579.641 -4.66379 -2.29752 0
M  V30 6138 C 577.326 -4.17735 -2.78932 0
M  V30 6139 C 579.32 -6.00756 -2.13006 0
M  V30 6140 C 577.007 -5.5218 -2.61802 0
M  V30 6141 C 578.005 -6.43505 -2.28888 0
M  V30 6142 O 577.693 -7.75472 -2.11894 0
M  V30 6143 H 577.425 -0.487311 -0.468513 0
M  V30 6144 H 579.979 -1.8542 -0.883668 0
M  V30 6145 H 578.209 -1.77218 -3.43701 0
M  V30 6146 H 579.898 -2.19058 -3.41714 0
M  V30 6147 H 580.664 -4.33778 -2.16936 0
M  V30 6148 H 576.543 -3.46967 -3.03537 0
M  V30 6149 H 580.087 -6.72003 -1.87237 0
M  V30 6150 H 575.984 -5.84365 -2.74204 0
M  V30 6151 H 576.752 -7.86458 -2.26775 0
M  V30 6152 N 579.415 0.9433 -1.26252 0
M  V30 6153 C 580.64 1.72898 -1.14547 0
M  V30 6154 C 581.065 1.85761 0.295743 0
M  V30 6155 O 580.423 1.3463 1.21427 0
M  V30 6156 C 580.471 3.11471 -1.8171 0
M  V30 6157 O 579.575 3.97336 -1.10445 0
M  V30 6158 H 578.916 0.530555 -0.399259 0
M  V30 6159 H 581.446 1.18159 -1.67032 0
M  V30 6160 H 581.456 3.61872 -1.88449 0
M  V30 6161 H 580.131 3.01425 -2.86558 0
M  V30 6162 H 578.708 3.55788 -1.11666 0
M  V30 6163 N 580.893 1.08022 1.14757 0
M  V30 6164 C 581.841 0.701088 2.21783 0
M  V30 6165 C 582.835 -0.291311 1.66876 0
M  V30 6166 O 584.041 -0.154296 1.79337 0
M  V30 6167 H 580.416 0.208668 0.722469 0
M  V30 6168 H 582.387 1.61321 2.51034 0
M  V30 6169 C 581.136 0.122278 3.47485 0
M  V30 6170 H 580.459 0.877065 3.90061 0
M  V30 6171 H 581.899 -0.105248 4.23869 0
M  V30 6172 C 580.358 -1.13883 3.17068 0
M  V30 6173 O 580.888 -2.22429 3.34497 0
M  V30 6174 N 579.094 -1.04767 2.71058 0
M  V30 6175 H 578.641 -0.164302 2.57075 0
M  V30 6176 H 578.599 -1.89224 2.51081 0
M  V30 6177 N 582.371 -1.3172 0.865308 0
M  V30 6178 C 583.787 -1.4958 0.556596 0
M  V30 6179 C 583.987 -1.79763 -0.910353 0
M  V30 6180 O 583.043 -1.87351 -1.6928 0
M  V30 6181 C 584.356 -2.63277 1.45279 0
M  V30 6182 C 585.904 -2.77161 1.45433 0
M  V30 6183 C 586.379 -3.93949 2.33598 0
M  V30 6184 N 587.87 -4.01228 2.31453 0
M  V30 6185 C 588.605 -4.90855 2.96393 0
M  V30 6186 N 588.101 -5.85416 3.70486 0
M  V30 6187 N 589.894 -4.84063 2.85726 0
M  V30 6188 H 582.045 -1.10396 1.81456 0
M  V30 6189 H 584.308 -0.54507 0.775631 0
M  V30 6190 H 584.014 -2.47734 2.49641 0
M  V30 6191 H 583.888 -3.59309 1.14792 0
M  V30 6192 H 586.275 -2.9212 0.41831 0
M  V30 6193 H 586.356 -1.8181 1.79941 0
M  V30 6194 H 586 -3.79748 3.37274 0
M  V30 6195 H 585.93 -4.88598 1.96417 0
M  V30 6196 H 588.421 -3.3357 1.77593 0
M  V30 6197 H 588.734 -6.50525 4.17178 0
M  V30 6198 H 587.079 -5.85409 3.74594 0
M  V30 6199 H 590.27 -4.09163 2.27384 0
M  V30 6200 H 590.443 -5.53708 3.36617 0
M  V30 6201 N 583.85 -0.624285 -1.44708 0
M  V30 6202 C 585.077 -0.132919 -2.06473 0
M  V30 6203 C 585.493 1.18967 -1.46602 0
M  V30 6204 O 584.85 1.72824 -0.586341 0
M  V30 6205 C 584.901 -0.00465418 -3.615 0
M  V30 6206 O 584.622 -1.27494 -4.19138 0
M  V30 6207 C 586.123 0.516213 -4.40284 0
M  V30 6208 H 583.343 -0.0765201 -0.666623 0
M  V30 6209 H 585.887 -0.856751 -1.85688 0
M  V30 6210 H 584.042 0.669583 -3.8157 0
M  V30 6211 H 584.456 -1.11536 -5.12504 0
M  V30 6212 H 585.93 0.554994 -5.49203 0
M  V30 6213 H 586.407 1.5419 -4.11245 0
M  V30 6214 H 587.013 -0.124542 -4.25118 0
M  V30 6215 N 585.328 1.53329 -0.364422 0
M  V30 6216 C 586.258 2.28627 0.474543 0
M  V30 6217 C 587.239 1.31009 1.08492 0
M  V30 6218 O 588.424 1.59878 1.10239 0
M  V30 6219 C 585.554 3.07465 1.61501 0
M  V30 6220 C 584.508 4.1276 1.13194 0
M  V30 6221 C 583.834 4.79674 2.36255 0
M  V30 6222 C 585.134 5.21847 0.217507 0
M  V30 6223 H 586.828 2.99005 -0.153656 0
M  V30 6224 H 584.374 1.43803 -0.0753406 0
M  V30 6225 H 586.327 3.58889 2.20855 0
M  V30 6226 H 585.051 2.34775 2.27042 0
M  V30 6227 H 583.71 3.62281 0.56109 0
M  V30 6228 H 583.358 4.03557 3.00251 0
M  V30 6229 H 583.058 5.50827 2.04606 0
M  V30 6230 H 584.582 5.33892 2.96297 0
M  V30 6231 H 585.996 5.6878 0.718493 0
M  V30 6232 H 584.393 6.00099 -0.00806408 0
M  V30 6233 H 585.463 4.7921 -0.740653 0
M  V30 6234 N 586.806 0.0935595 1.57322 0
M  V30 6235 C 587.769 -0.851426 2.12799 0
M  V30 6236 C 588.769 -1.21187 1.0569 0
M  V30 6237 O 589.959 -1.14156 1.31583 0
M  V30 6238 C 587.091 -2.14779 2.64731 0
M  V30 6239 H 588.284 -0.369733 2.97612 0
M  V30 6240 H 585.837 -0.155417 1.55525 0
M  V30 6241 H 586.572 -2.67437 1.83434 0
M  V30 6242 H 586.357 -1.89907 3.43042 0
M  V30 6243 H 587.847 -2.82383 3.07651 0
M  V30 6244 N 588.284 -1.56567 -0.180126 0
M  V30 6245 C 589.217 -1.90813 -1.25163 0
M  V30 6246 C 590.195 -0.7699 -1.43218 0
M  V30 6247 O 591.379 -1.02236 -1.58367 0
M  V30 6248 C 588.506 -2.15138 -2.61597 0
M  V30 6249 C 587.552 -3.37834 -2.60328 0
M  V30 6250 S 588.385 -4.92486 -2.1028 0
M  V30 6251 C 589.541 -5.19896 -3.48509 0
M  V30 6252 H 589.774 -2.81398 -0.959283 0
M  V30 6253 H 587.307 -1.49541 -0.3843 0
M  V30 6254 H 589.265 -2.29835 -3.40127 0
M  V30 6255 H 587.926 -1.25276 -2.88036 0
M  V30 6256 H 587.119 -3.52027 -3.60684 0
M  V30 6257 H 586.721 -3.22208 -1.8989 0
M  V30 6258 H 589.013 -5.11334 -4.44459 0
M  V30 6259 H 589.956 -6.21571 -3.39198 0
M  V30 6260 H 590.364 -4.47489 -3.44114 0
M  V30 6261 N 589.762 0.448376 -1.51087 0
M  V30 6262 C 590.71 1.56407 -1.72161 0
M  V30 6263 C 591.704 1.58878 -0.587721 0
M  V30 6264 O 592.91 1.62755 -0.768822 0
M  V30 6265 H 589.285 0.519423 -0.543786 0
M  V30 6266 H 591.256 1.35803 -2.65707 0
M  V30 6267 C 590.005 2.94163 -1.85373 0
M  V30 6268 H 589.328 2.9299 -2.72024 0
M  V30 6269 H 590.768 3.71625 -2.04135 0
M  V30 6270 C 589.227 3.31317 -0.610803 0
M  V30 6271 O 589.757 4.00985 0.239636 0
M  V30 6272 N 587.963 2.86966 -0.458127 0
M  V30 6273 H 587.51 2.30443 -1.15124 0
M  V30 6274 H 587.468 3.12188 0.372289 0
M  V30 6275 N 591.24 1.41047 0.703093 0
M  V30 6276 C 592.203 1.42036 1.79884 0
M  V30 6277 C 593.203 0.312153 1.57741 0
M  V30 6278 O 594.393 0.571672 1.64553 0
M  V30 6279 C 591.525 1.22437 3.18154 0
M  V30 6280 H 592.718 2.39572 1.80403 0
M  V30 6281 H 590.271 1.27079 0.909977 0
M  V30 6282 H 591.006 0.257112 3.23279 0
M  V30 6283 H 590.791 2.02723 3.35627 0
M  V30 6284 H 592.281 1.25946 3.98155 0
M  V30 6285 N 592.718 -0.936591 1.26751 0
M  V30 6286 C 593.946 -1.71758 1.15355 0
M  V30 6287 C 594.361 -1.86549 -0.290683 0
M  V30 6288 O 593.718 -1.37616 -1.19868 0
M  V30 6289 C 593.769 -3.12193 1.82258 0
M  V30 6290 O 593.49 -2.98105 3.21038 0
M  V30 6291 C 594.991 -4.06485 1.76875 0
M  V30 6292 H 592.211 -0.537636 0.401483 0
M  V30 6293 H 594.755 -1.17382 1.67457 0
M  V30 6294 H 592.91 -3.63456 1.34083 0
M  V30 6295 H 593.324 -3.86824 3.54214 0
M  V30 6296 H 594.798 -5.02569 2.28316 0
M  V30 6297 H 595.275 -4.32986 0.736216 0
M  V30 6298 H 595.881 -3.61144 2.24623 0
M  V30 6299 N 594.196 -1.08629 -1.14182 0
M  V30 6300 C 595.424 -0.838889 -1.8913 0
M  V30 6301 C 595.839 0.609153 -1.78703 0
M  V30 6302 O 595.196 1.41876 -1.14794 0
M  V30 6303 C 595.247 -1.25477 -3.39025 0
M  V30 6304 O 594.968 -2.64601 -3.49167 0
M  V30 6305 C 596.469 -1.03856 -4.30963 0
M  V30 6306 H 593.689 -0.302377 -0.599007 0
M  V30 6307 H 596.233 -1.44615 -1.44592 0
M  V30 6308 H 594.388 -0.691571 -3.81177 0
M  V30 6309 H 594.802 -2.81922 -4.42289 0
M  V30 6310 H 596.276 -1.37892 -5.345 0
M  V30 6311 H 596.753 0.0242522 -4.39193 0
M  V30 6312 H 597.359 -1.58731 -3.94569 0
M  V30 6313 N 595.674 1.31259 -0.872281 0
M  V30 6314 C 596.604 2.30929 -0.345554 0
M  V30 6315 C 597.585 1.60449 0.5648 0
M  V30 6316 O 598.77 1.8814 0.481335 0
M  V30 6317 C 595.9 3.44348 0.451823 0
M  V30 6318 C 594.854 4.26435 -0.365641 0
M  V30 6319 C 594.18 5.31785 0.557562 0
M  V30 6320 C 595.48 4.97159 -1.60095 0
M  V30 6321 H 597.174 2.75234 -1.17841 0
M  V30 6322 H 594.72 1.3232 -0.568094 0
M  V30 6323 H 596.673 4.13128 0.830854 0
M  V30 6324 H 595.397 2.98816 1.31821 0
M  V30 6325 H 594.056 3.59326 -0.726649 0
M  V30 6326 H 593.704 4.82502 1.4213 0
M  V30 6327 H 593.404 5.87598 0.0144878 0
M  V30 6328 H 594.928 6.03424 0.933387 0
M  V30 6329 H 596.342 5.58523 -1.29323 0
M  V30 6330 H 594.739 5.62779 -2.08327 0
M  V30 6331 H 595.809 4.24012 -2.35249 0
M  V30 6332 N 597.152 0.631951 1.44375 0
M  V30 6333 C 598.429 0.067646 1.95483 0
M  V30 6334 C 598.809 -1.40683 1.57389 0
M  V30 6335 O 598.157 -2.12167 0.848375 0
M  V30 6336 C 598.367 0.291392 3.47781 0
M  V30 6337 C 599.715 0.185028 4.24197 0
M  V30 6338 O 600.739 0.222803 3.55503 0
M  V30 6339 O 599.598 0.0906642 5.46425 0
M  V30 6340 H 596.692 -0.0218379 0.826712 0
M  V30 6341 H 599.238 0.703711 1.54421 0
M  V30 6342 H 598.01 1.31449 3.68561 0
M  V30 6343 H 597.633 -0.378772 3.95792 0
M  V30 6344 N 598.631 -1.53133 0.372548 0
M  V30 6345 C 599.88 -2.00539 -0.216115 0
M  V30 6346 C 600.193 -1.26374 -1.49295 0
M  V30 6347 O 601.399 -1.64404 -2.16064 0
M  V30 6348 C 599.855 -3.57253 -0.435678 0
M  V30 6349 C 599.463 -4.40302 0.82693 0
M  V30 6350 C 601.207 -4.12995 -0.981618 0
M  V30 6351 C 599.114 -5.88583 0.576567 0
M  V30 6352 H 598.044 -0.749246 -0.084536 0
M  V30 6353 H 600.695 -1.76771 0.492364 0
M  V30 6354 H 599.077 -3.77202 -1.20559 0
M  V30 6355 H 600.251 -4.32124 1.60017 0
M  V30 6356 H 598.566 -3.95699 1.29659 0
M  V30 6357 H 601.163 -5.21418 -1.18436 0
M  V30 6358 H 601.506 -3.68027 -1.94581 0
M  V30 6359 H 602.039 -3.96871 -0.271696 0
M  V30 6360 H 598.778 -6.37841 1.51128 0
M  V30 6361 H 598.298 -5.99592 -0.158047 0
M  V30 6362 H 599.977 -6.46676 0.204722 0
M  V30 6363 N 600.109 -0.101901 -1.5727 0
M  V30 6364 C 601.057 0.872034 -2.15635 0
M  V30 6365 C 602.051 1.28742 -1.10099 0
M  V30 6366 O 603.257 1.26116 -1.28432 0
M  V30 6367 H 599.632 0.299269 -0.689886 0
M  V30 6368 H 601.603 0.355137 -2.96279 0
M  V30 6369 C 600.352 2.11886 -2.7568 0
M  V30 6370 H 599.675 1.80813 -3.56576 0
M  V30 6371 H 601.115 2.78077 -3.20077 0
M  V30 6372 C 599.574 2.89739 -1.7191 0
M  V30 6373 O 600.104 3.84522 -1.16213 0
M  V30 6374 N 598.31 2.53407 -1.42245 0
M  V30 6375 H 597.857 1.76398 -1.87727 0
M  V30 6376 H 597.815 3.05795 -0.730529 0
M  V30 6377 N 601.587 1.56661 0.17182 0
M  V30 6378 C 602.517 1.99401 1.21498 0
M  V30 6379 C 603.498 0.869516 1.46197 0
M  V30 6380 O 604.683 1.13556 1.57539 0
M  V30 6381 C 601.813 2.35346 2.55401 0
M  V30 6382 C 600.767 3.5075 2.45272 0
M  V30 6383 C 600.093 3.72437 3.8366 0
M  V30 6384 C 601.393 4.84216 1.95787 0
M  V30 6385 H 603.087 2.86792 0.859699 0
M  V30 6386 H 600.633 1.37977 0.412103 0
M  V30 6387 H 602.586 2.63843 3.2858 0
M  V30 6388 H 601.31 1.44864 2.92715 0
M  V30 6389 H 599.969 3.2238 1.74547 0
M  V30 6390 H 599.617 2.79246 4.18367 0
M  V30 6391 H 599.317 4.50087 3.77751 0
M  V30 6392 H 600.841 4.03334 4.58426 0
M  V30 6393 H 602.255 5.11592 2.5874 0
M  V30 6394 H 600.652 5.65498 2.00827 0
M  V30 6395 H 601.722 4.76243 0.912159 0
M  V30 6396 N 603.065 -0.440357 1.51323 0
M  V30 6397 C 604.29 -1.21716 1.67928 0
M  V30 6398 C 604.715 -1.84328 0.374826 0
M  V30 6399 O 604.073 -1.68675 -0.664706 0
M  V30 6400 C 604.121 -2.27914 2.79442 0
M  V30 6401 O 603.225 -3.33325 2.42834 0
M  V30 6402 H 602.566 -0.35674 0.560029 0
M  V30 6403 H 605.096 -0.520417 1.97871 0
M  V30 6404 H 605.106 -2.72746 3.03436 0
M  V30 6405 H 603.781 -1.8172 3.741 0
M  V30 6406 H 602.358 -2.9399 2.294 0
M  V30 6407 N 604.543 -1.41418 -0.695603 0
M  V30 6408 C 605.475 -1.39195 -1.82092 0
M  V30 6409 C 606.488 -0.294132 -1.60121 0
M  V30 6410 O 607.677 -0.555854 -1.69625 0
M  V30 6411 C 604.777 -1.14828 -3.18854 0
M  V30 6412 C 603.95 -2.36649 -3.67853 0
M  V30 6413 C 603.009 -2.08139 -4.83285 0
M  V30 6414 O 602.035 -2.81177 -4.94902 0
M  V30 6415 N 603.237 -1.07162 -5.70523 0
M  V30 6416 H 606.002 -2.36185 -1.84491 0
M  V30 6417 H 603.563 -1.3603 -0.877923 0
M  V30 6418 H 605.555 -0.937075 -3.93702 0
M  V30 6419 H 604.125 -0.264358 -3.1148 0
M  V30 6420 H 603.345 -2.73472 -2.83913 0
M  V30 6421 H 604.633 -3.17816 -3.97329 0
M  V30 6422 H 604.031 -0.467124 -5.63768 0
M  V30 6423 H 602.588 -0.920311 -6.4527 0
M  V30 6424 N 606.021 0.929856 -1.27246 0
M  V30 6425 C 607.249 1.71144 -1.16265 0
M  V30 6426 C 607.664 1.867 0.280786 0
M  V30 6427 O 607.021 1.38249 1.19136 0
M  V30 6428 C 607.072 3.11222 -1.83911 0
M  V30 6429 O 606.793 2.96398 -3.22614 0
M  V30 6430 C 608.294 4.05541 -1.79028 0
M  V30 6431 H 605.514 0.535499 -0.404328 0
M  V30 6432 H 608.058 1.16492 -1.68077 0
M  V30 6433 H 606.213 3.6274 -1.36009 0
M  V30 6434 H 606.627 3.8494 -3.56261 0
M  V30 6435 H 608.101 5.01351 -2.30978 0
M  V30 6436 H 608.578 4.32589 -0.759168 0
M  V30 6437 H 609.184 3.59947 -2.26535 0
M  V30 6438 N 607.499 1.09233 1.13605 0
M  V30 6439 C 608.429 0.751738 2.21068 0
M  V30 6440 C 609.41 -0.269688 1.67948 0
M  V30 6441 O 610.595 -0.13819 1.93708 0
M  V30 6442 C 607.725 0.16935 3.46887 0
M  V30 6443 C 606.679 1.12007 4.13084 0
M  V30 6444 C 606.005 0.399483 5.33206 0
M  V30 6445 C 607.305 2.46168 4.6065 0
M  V30 6446 H 608.999 1.65024 2.49815 0
M  V30 6447 H 606.545 0.794905 1.20072 0
M  V30 6448 H 608.498 -0.0809824 4.21322 0
M  V30 6449 H 607.222 -0.764335 3.1753 0
M  V30 6450 H 605.881 1.35564 3.40614 0
M  V30 6451 H 605.529 -0.538277 5.00112 0
M  V30 6452 H 605.229 1.03337 5.78442 0
M  V30 6453 H 606.753 0.157403 6.10397 0
M  V30 6454 H 608.167 2.26829 5.26518 0
M  V30 6455 H 606.564 3.05326 5.1662 0
M  V30 6456 H 607.634 3.07076 3.75276 0
M  V30 6457 N 608.977 -1.30795 0.87923 0
M  V30 6458 C 609.94 -2.26563 0.346676 0
M  V30 6459 C 610.94 -1.52578 -0.507597 0
M  V30 6460 O 612.13 -1.71318 -0.315575 0
M  V30 6461 C 609.262 -3.37115 -0.506611 0
M  V30 6462 H 610.455 -2.75183 1.19223 0
M  V30 6463 H 608.008 -1.41886 0.655598 0
M  V30 6464 H 608.743 -2.93802 -1.37299 0
M  V30 6465 H 608.528 -3.91959 0.105218 0
M  V30 6466 H 610.018 -4.08412 -0.871192 0
M  V30 6467 N 610.455 -0.639598 -1.44038 0
M  V30 6468 C 611.403 0.0723409 -2.32487 0
M  V30 6469 C 612.397 0.827129 -1.47834 0
M  V30 6470 O 613.603 0.73907 -1.64127 0
M  V30 6471 H 609.978 0.0421696 -0.750817 0
M  V30 6472 H 611.949 -0.691593 -2.90275 0
M  V30 6473 C 610.698 1.03452 -3.31953 0
M  V30 6474 H 610.021 0.46315 -3.97108 0
M  V30 6475 H 611.461 1.502 -3.96505 0
M  V30 6476 C 609.92 2.12392 -2.61518 0
M  V30 6477 O 610.45 3.2059 -2.42044 0
M  V30 6478 N 608.656 1.88563 -2.21116 0
M  V30 6479 H 608.203 1.00577 -2.37154 0
M  V30 6480 H 608.161 2.61651 -1.74316 0
M  V30 6481 N 611.933 1.52934 -0.380664 0
M  V30 6482 C 612.88 2.26197 0.458641 0
M  V30 6483 C 613.85 1.27462 1.06502 0
M  V30 6484 O 615.035 1.56274 1.09467 0
M  V30 6485 C 612.175 3.06571 1.58456 0
M  V30 6486 C 611.288 4.20222 1.00189 0
M  V30 6487 C 610.423 4.88007 2.09815 0
M  V30 6488 C 609.462 5.93665 1.49092 0
M  V30 6489 N 608.599 6.55081 2.52613 0
M  V30 6490 H 613.439 2.975 -0.172595 0
M  V30 6491 H 610.976 1.4678 -0.0969426 0
M  V30 6492 H 612.934 3.51455 2.24801 0
M  V30 6493 H 611.564 2.37494 2.18624 0
M  V30 6494 H 610.616 3.79714 0.228292 0
M  V30 6495 H 611.928 4.96102 0.518064 0
M  V30 6496 H 611.082 5.36151 2.83948 0
M  V30 6497 H 609.821 4.11632 2.61555 0
M  V30 6498 H 608.826 5.44868 0.7348 0
M  V30 6499 H 610.051 6.71969 0.981582 0
M  V30 6500 H 607.997 5.8155 3.03538 0
M  V30 6501 H 607.914 7.26548 2.08961 0
M  V30 6502 H 609.182 7.07871 3.26402 0
M  V30 6503 N 613.412 0.11024 1.57214 0
M  V30 6504 C 614.64 -0.557834 1.99238 0
M  V30 6505 C 615.055 -1.60778 0.989734 0
M  V30 6506 O 614.412 -1.82491 -0.0186092 0
M  V30 6507 C 614.463 -1.19189 3.41286 0
M  V30 6508 O 614.184 -0.183919 4.37714 0
M  V30 6509 C 615.685 -1.94413 3.98395 0
M  V30 6510 H 612.905 -0.148392 0.654386 0
M  V30 6511 H 615.449 0.193996 2.03578 0
M  V30 6512 H 613.604 -1.89456 3.37913 0
M  V30 6513 H 614.018 -0.643475 5.20538 0
M  V30 6514 H 615.492 -2.34116 4.99894 0
M  V30 6515 H 615.969 -2.81592 3.3705 0
M  V30 6516 H 616.575 -1.28928 4.05287 0
M  V30 6517 N 614.89 -1.56749 -0.16351 0
M  V30 6518 C 615.82 -2.00042 -1.20438 0
M  V30 6519 C 616.801 -0.877256 -1.45733 0
M  V30 6520 O 617.986 -1.1439 -1.56935 0
M  V30 6521 C 615.116 -2.36697 -2.54149 0
M  V30 6522 C 614.07 -3.52046 -2.43408 0
M  V30 6523 C 613.396 -3.74466 -3.81679 0
M  V30 6524 C 614.696 -4.85247 -1.93216 0
M  V30 6525 H 616.39 -2.87244 -0.844477 0
M  V30 6526 H 613.936 -1.38194 -0.40478 0
M  V30 6527 H 615.889 -2.65582 -3.27176 0
M  V30 6528 H 614.613 -1.46414 -2.91943 0
M  V30 6529 H 613.272 -3.23301 -1.72834 0
M  V30 6530 H 612.92 -2.81461 -4.1688 0
M  V30 6531 H 612.62 -4.52084 -3.75359 0
M  V30 6532 H 614.144 -4.0576 -4.5628 0
M  V30 6533 H 615.558 -5.12957 -2.56023 0
M  V30 6534 H 613.955 -5.66556 -1.97825 0
M  V30 6535 H 615.025 -4.7672 -0.88689 0
M  V30 6536 N 616.368 0.432326 -1.51554 0
M  V30 6537 C 617.614 1.18309 -1.64714 0
M  V30 6538 C 617.947 1.90745 -0.364696 0
M  V30 6539 O 617.222 1.8381 0.635936 0
M  V30 6540 C 617.505 2.1961 -2.85383 0
M  V30 6541 C 617.358 1.51223 -4.23617 0
M  V30 6542 C 618.677 3.20538 -3.01569 0
M  V30 6543 H 615.796 0.428751 -0.599451 0
M  V30 6544 H 618.438 0.471689 -1.84052 0
M  V30 6545 H 616.588 2.8028 -2.69027 0
M  V30 6546 H 618.26 0.938516 -4.51652 0
M  V30 6547 H 616.503 0.814501 -4.26085 0
M  V30 6548 H 617.174 2.25024 -5.04052 0
M  V30 6549 H 619.65 2.69926 -3.16669 0
M  V30 6550 H 618.526 3.88706 -3.87555 0
M  V30 6551 H 618.787 3.86933 -2.13859 0
M  V30 6552 N 617.846 1.41785 0.688094 0
M  V30 6553 C 619.092 1.41753 1.4503 0
M  V30 6554 C 619.425 0.0290745 1.94178 0
M  V30 6555 O 618.7 -0.944456 1.7003 0
M  V30 6556 C 618.983 2.43069 2.65686 0
M  V30 6557 C 618.836 3.91053 2.22256 0
M  V30 6558 C 620.155 2.41543 3.67893 0
M  V30 6559 H 617.274 0.516202 0.526027 0
M  V30 6560 H 619.916 1.73111 0.783105 0
M  V30 6561 H 618.066 2.1646 3.2261 0
M  V30 6562 H 619.738 4.28594 1.70602 0
M  V30 6563 H 617.981 4.05559 1.53963 0
M  V30 6564 H 618.652 4.57501 3.08863 0
M  V30 6565 H 621.128 2.65175 3.20658 0
M  V30 6566 H 620.004 3.14434 4.49914 0
M  V30 6567 H 620.265 1.43666 4.18106 0
M  V30 6568 N 619.324 -0.923095 1.27737 0
M  V30 6569 C 620.552 -1.70525 1.17171 0
M  V30 6570 C 620.967 -1.86847 -0.270881 0
M  V30 6571 O 620.324 -1.38879 -1.18401 0
M  V30 6572 C 620.375 -3.10242 1.85559 0
M  V30 6573 O 620.096 -2.94683 3.24182 0
M  V30 6574 C 621.597 -4.04586 1.81176 0
M  V30 6575 H 618.817 -0.533347 0.407163 0
M  V30 6576 H 621.361 -1.15599 1.68692 0
M  V30 6577 H 619.516 -3.62014 1.3793 0
M  V30 6578 H 619.93 -3.83045 3.58297 0
M  V30 6579 H 621.404 -5.00119 2.33633 0
M  V30 6580 H 621.881 -4.3218 0.782099 0
M  V30 6581 H 622.487 -3.58741 2.2844 0
M  V30 6582 N 620.802 -1.09834 -1.13024 0
M  V30 6583 C 622.03 -0.858902 -1.8823 0
M  V30 6584 C 622.445 0.590164 -1.79339 0
M  V30 6585 O 621.802 1.4065 -1.16292 0
M  V30 6586 C 621.853 -1.29066 -3.37675 0
M  V30 6587 O 621.574 -2.6829 -3.46341 0
M  V30 6588 C 623.075 -1.08421 -4.29837 0
M  V30 6589 H 620.295 -0.308713 -0.595766 0
M  V30 6590 H 622.839 -1.4614 -1.4305 0
M  V30 6591 H 620.994 -0.731961 -3.80422 0
M  V30 6592 H 621.408 -2.86598 -4.39274 0
M  V30 6593 H 622.882 -1.43553 -5.33007 0
M  V30 6594 H 623.359 -0.0223315 -4.39194 0
M  V30 6595 H 623.965 -1.62907 -3.92863 0
M  V30 6596 N 622.28 1.30327 -0.886154 0
M  V30 6597 C 623.529 1.95373 -0.501243 0
M  V30 6598 C 623.842 1.70722 0.954634 0
M  V30 6599 O 625.048 2.29761 1.44644 0
M  V30 6600 C 623.504 3.49828 -0.845493 0
M  V30 6601 C 623.112 3.83296 -2.31922 0
M  V30 6602 C 624.856 4.2118 -0.529838 0
M  V30 6603 C 622.763 5.30935 -2.60504 0
M  V30 6604 H 621.693 0.731274 -0.183722 0
M  V30 6605 H 624.344 1.48258 -1.08129 0
M  V30 6606 H 622.726 3.95522 -0.19452 0
M  V30 6607 H 623.9 3.48508 -3.01461 0
M  V30 6608 H 622.215 3.2505 -2.60253 0
M  V30 6609 H 624.812 5.29825 -0.720401 0
M  V30 6610 H 625.155 4.12902 0.530828 0
M  V30 6611 H 625.688 3.81173 -1.13806 0
M  V30 6612 H 622.427 5.44265 -3.65316 0
M  V30 6613 H 621.947 5.67019 -1.95575 0
M  V30 6614 H 623.626 5.98381 -2.46066 0
M  V30 6615 N 623.758 0.647228 1.43697 0
M  V30 6616 C 624.688 -0.0345631 2.33474 0
M  V30 6617 C 625.669 -0.818193 1.4913 0
M  V30 6618 O 626.854 -0.780867 1.77809 0
M  V30 6619 C 623.984 -1.00576 3.32418 0
M  V30 6620 C 622.938 -0.33266 4.26705 0
M  V30 6621 C 622.264 -1.41489 5.1564 0
M  V30 6622 C 623.564 0.771204 5.16575 0
M  V30 6623 H 625.258 0.715163 2.90733 0
M  V30 6624 H 622.804 0.345364 1.39797 0
M  V30 6625 H 624.757 -1.49159 3.94119 0
M  V30 6626 H 623.481 -1.78657 2.73403 0
M  V30 6627 H 622.14 0.13267 3.6636 0
M  V30 6628 H 621.788 -2.18698 4.52968 0
M  V30 6629 H 621.488 -0.969799 5.79542 0
M  V30 6630 H 623.012 -1.9022 5.80214 0
M  V30 6631 H 624.426 0.36779 5.72119 0
M  V30 6632 H 622.823 1.1404 5.89165 0
M  V30 6633 H 623.893 1.63169 4.56622 0
M  V30 6634 N 625.236 -1.5273 0.388769 0
M  V30 6635 C 626.146 -2.30165 -0.453993 0
M  V30 6636 C 627.162 -1.37058 -1.07197 0
M  V30 6637 O 628.338 -1.70127 -1.0779 0
M  V30 6638 C 625.403 -3.09303 -1.56628 0
M  V30 6639 C 624.464 -4.18117 -0.973467 0
M  V30 6640 C 623.697 -4.93472 -2.03275 0
M  V30 6641 O 623.92 -4.68913 -3.24772 0
M  V30 6642 O 622.854 -5.78833 -1.65034 0
M  V30 6643 H 626.68 -3.03185 0.176816 0
M  V30 6644 H 624.265 -1.4862 0.152501 0
M  V30 6645 H 626.147 -3.58648 -2.21246 0
M  V30 6646 H 624.822 -2.39098 -2.18206 0
M  V30 6647 H 623.729 -3.7297 -0.290556 0
M  V30 6648 H 625.062 -4.90556 -0.401908 0
M  V30 6649 N 626.714 -0.118576 -1.57153 0
M  V30 6650 C 627.662 0.849114 -2.16547 0
M  V30 6651 C 628.656 1.27567 -1.11458 0
M  V30 6652 O 629.862 1.24746 -1.29763 0
M  V30 6653 H 626.237 0.291935 -0.693021 0
M  V30 6654 H 628.208 0.323693 -2.96639 0
M  V30 6655 C 626.957 2.08951 -2.77912 0
M  V30 6656 H 626.28 1.77021 -3.58474 0
M  V30 6657 H 627.72 2.74666 -3.23008 0
M  V30 6658 C 626.179 2.87899 -1.74974 0
M  V30 6659 O 626.709 3.83268 -1.20285 0
M  V30 6660 N 624.915 2.51884 -1.44924 0
M  V30 6661 H 624.462 1.74397 -1.89587 0
M  V30 6662 H 624.42 3.05003 -0.762921 0
M  V30 6663 N 628.193 1.56834 0.155195 0
M  V30 6664 C 629.604 1.72421 0.716082 0
M  V30 6665 C 629.955 0.731685 1.82046 0
M  V30 6666 O 629.08 -0.103481 2.16152 0
M  V30 6667 C 629.675 3.12629 1.30571 0
M  V30 6668 C 628.234 3.29846 1.81325 0
M  V30 6669 C 627.381 2.68359 0.698494 0
M  V30 6670 H 630.332 1.58544 -0.0703861 0
M  V30 6671 H 630.353 3.12174 2.1755 0
M  V30 6672 H 629.865 3.84844 0.501701 0
M  V30 6673 H 627.966 2.62614 2.64319 0
M  V30 6674 H 628.079 4.37727 1.9476 0
M  V30 6675 H 626.443 2.28604 1.12305 0
M  V30 6676 H 627.226 3.43171 -0.0939366 0
M  V30 6677 N 629.671 -0.424282 1.51781 0
M  V30 6678 C 630.901 -1.19297 1.68677 0
M  V30 6679 C 631.309 -1.85152 0.389258 0
M  V30 6680 O 630.652 -1.72067 -0.643311 0
M  V30 6681 C 630.714 -2.30929 2.75521 0
M  V30 6682 C 630.378 -1.85335 4.17732 0
M  V30 6683 C 631.375 -1.34951 5.0208 0
M  V30 6684 C 629.06 -1.92629 4.63896 0
M  V30 6685 C 631.054 -0.924636 6.30658 0
M  V30 6686 C 628.741 -1.49754 5.92467 0
M  V30 6687 C 629.739 -0.997543 6.75676 0
M  V30 6688 O 629.427 -0.57492 8.01842 0
M  V30 6689 H 629.159 -0.36512 0.568914 0
M  V30 6690 H 631.713 -0.507327 1.99036 0
M  V30 6691 H 629.943 -3.02811 2.40505 0
M  V30 6692 H 631.632 -2.92748 2.81165 0
M  V30 6693 H 632.398 -1.287 4.67612 0
M  V30 6694 H 628.277 -2.30491 3.99243 0
M  V30 6695 H 631.821 -0.533682 6.95556 0
M  V30 6696 H 627.718 -1.55679 6.26446 0
M  V30 6697 H 628.486 -0.699597 8.15505 0
M  V30 6698 N 631.149 -1.42148 -0.680565 0
M  V30 6699 C 632.395 -1.42521 -1.44277 0
M  V30 6700 C 632.728 -0.0393718 -1.9416 0
M  V30 6701 O 632.003 0.935425 -1.70529 0
M  V30 6702 C 632.286 -2.44475 -2.64394 0
M  V30 6703 C 632.139 -3.92226 -2.20179 0
M  V30 6704 C 633.458 -2.43491 -3.66606 0
M  V30 6705 H 630.577 -0.518985 -0.523282 0
M  V30 6706 H 633.219 -1.73524 -0.773914 0
M  V30 6707 H 631.369 -2.18168 -3.21458 0
M  V30 6708 H 633.041 -4.29493 -1.68327 0
M  V30 6709 H 631.284 -4.0637 -1.5181 0
M  V30 6710 H 631.955 -4.59133 -3.06433 0
M  V30 6711 H 634.431 -2.66872 -3.19247 0
M  V30 6712 H 633.307 -3.16816 -4.4824 0
M  V30 6713 H 633.568 -1.45881 -4.17338 0
M  V30 6714 N 632.627 0.916307 -1.28225 0
M  V30 6715 C 633.56 2.01954 -1.06254 0
M  V30 6716 C 634.538 1.62587 0.0205983 0
M  V30 6717 O 635.722 1.88073 -0.126824 0
M  V30 6718 C 632.849 3.33086 -0.614141 0
M  V30 6719 C 631.895 3.91435 -1.69354 0
M  V30 6720 S 632.728 4.22603 -3.28887 0
M  V30 6721 C 633.884 5.568 -2.85876 0
M  V30 6722 H 634.117 2.20281 -1.99659 0
M  V30 6723 H 631.65 1.06085 -1.12184 0
M  V30 6724 H 633.608 4.089 -0.36213 0
M  V30 6725 H 632.269 3.12664 0.300036 0
M  V30 6726 H 631.462 4.86098 -1.33136 0
M  V30 6727 H 631.064 3.22248 -1.89821 0
M  V30 6728 H 633.356 6.3658 -2.31888 0
M  V30 6729 H 634.299 5.97927 -3.79326 0
M  V30 6730 H 634.707 5.17865 -2.24669 0
M  V30 6731 N 634.105 1.10431 1.1244 0
M  V30 6732 C 635.521 0.836096 1.35947 0
M  V30 6733 C 635.721 -0.544475 1.94004 0
M  V30 6734 O 634.777 -1.29735 2.16622 0
M  V30 6735 C 636.09 1.93575 2.30107 0
M  V30 6736 C 637.638 1.9642 2.43697 0
M  V30 6737 C 638.113 3.05559 3.41171 0
M  V30 6738 N 639.604 3.04865 3.48728 0
M  V30 6739 C 640.339 3.85954 4.24061 0
M  V30 6740 N 639.835 4.76977 5.02458 0
M  V30 6741 N 641.628 3.74172 4.19466 0
M  V30 6742 H 633.779 1.9942 0.731124 0
M  V30 6743 H 636.042 0.866607 0.384312 0
M  V30 6744 H 635.748 2.92943 1.94621 0
M  V30 6745 H 635.622 1.8229 3.30227 0
M  V30 6746 H 638.009 0.97685 2.78463 0
M  V30 6747 H 638.09 2.11782 1.43465 0
M  V30 6748 H 637.734 4.04513 3.07135 0
M  V30 6749 H 637.664 2.87438 4.41234 0
M  V30 6750 H 640.155 2.38908 2.92799 0
M  V30 6751 H 640.468 5.35409 5.57277 0
M  V30 6752 H 638.813 4.81006 5.01655 0
M  V30 6753 H 642.004 3.02412 3.57302 0
M  V30 6754 H 642.177 4.37602 4.77921 0
M  V30 6755 N 635.583 -1.29855 0.893053 0
M  V30 6756 C 636.999 -1.48366 0.588199 0
M  V30 6757 C 637.199 -1.81654 -0.872018 0
M  V30 6758 O 636.255 -1.909 -1.65268 0
M  V30 6759 C 637.568 -2.60136 1.5083 0
M  V30 6760 C 639.116 -2.74014 1.51279 0
M  V30 6761 C 639.591 -3.88905 2.41902 0
M  V30 6762 N 641.082 -3.96228 2.39911 0
M  V30 6763 C 641.817 -4.84458 3.06738 0
M  V30 6764 N 641.313 -5.77426 3.8282 0
M  V30 6765 N 643.106 -4.77894 2.95929 0
M  V30 6766 H 635.257 -1.06522 1.83757 0
M  V30 6767 H 637.52 -0.528495 0.787018 0
M  V30 6768 H 637.226 -2.42383 2.54839 0
M  V30 6769 H 637.1 -3.56793 1.22388 0
M  V30 6770 H 639.487 -2.91167 0.480179 0
M  V30 6771 H 639.568 -1.77952 1.83757 0
M  V30 6772 H 639.212 -3.72508 3.45253 0
M  V30 6773 H 639.142 -4.84322 2.06737 0
M  V30 6774 H 641.633 -3.29728 1.84629 0
M  V30 6775 H 641.946 -6.41529 4.30883 0
M  V30 6776 H 640.291 -5.77332 3.86927 0
M  V30 6777 H 643.482 -4.04248 2.36012 0
M  V30 6778 H 643.655 -5.46444 3.48286 0
M  V30 6779 N 637.061 -0.65484 -1.43351 0
M  V30 6780 C 638.472 -0.248506 -1.85039 0
M  V30 6781 C 638.823 1.20526 -1.54816 0
M  V30 6782 O 637.948 1.92016 -0.99794 0
M  V30 6783 C 638.543 -0.444241 -3.35875 0
M  V30 6784 C 637.102 -0.0922108 -3.76287 0
M  V30 6785 C 636.249 -0.746327 -2.67068 0
M  V30 6786 H 639.2 -0.8584 -1.33481 0
M  V30 6787 H 639.221 0.309762 -3.79237 0
M  V30 6788 H 638.733 -1.50239 -3.5784 0
M  V30 6789 H 636.834 0.96328 -3.59933 0
M  V30 6790 H 636.947 -0.518807 -4.76283 0
M  V30 6791 H 635.311 -0.179416 -2.54067 0
M  V30 6792 H 636.094 -1.80754 -2.91861 0
M  V30 6793 N 638.539 1.52521 -0.396863 0
M  V30 6794 C 639.487 2.28217 0.44943 0
M  V30 6795 C 640.481 1.32416 1.05652 0
M  V30 6796 O 641.687 1.49925 0.996124 0
M  V30 6797 H 638.062 0.733966 0.1637 0
M  V30 6798 H 640.033 2.97658 -0.210367 0
M  V30 6799 C 638.782 3.10713 1.56054 0
M  V30 6800 H 638.105 3.84291 1.10273 0
M  V30 6801 H 639.545 3.66803 2.12677 0
M  V30 6802 C 638.004 2.23499 2.52091 0
M  V30 6803 O 638.534 1.8669 3.55682 0
M  V30 6804 N 636.74 1.8751 2.2201 0
M  V30 6805 H 636.287 2.17643 1.37802 0
M  V30 6806 H 636.245 1.29448 2.86514 0
M  V30 6807 N 640.017 0.126909 1.57088 0
M  V30 6808 C 641.264 -0.529168 1.95464 0
M  V30 6809 C 641.592 -1.6618 1.01067 0
M  V30 6810 O 640.847 -1.95667 0.0360254 0
M  V30 6811 C 641.146 -1.095 3.40212 0
M  V30 6812 C 640.812 -0.0829015 4.50824 0
M  V30 6813 C 639.474 0.195377 4.80803 0
M  V30 6814 C 641.826 0.606411 5.1766 0
M  V30 6815 C 639.154 1.16912 5.74933 0
M  V30 6816 C 641.506 1.56884 6.12838 0
M  V30 6817 C 640.17 1.85502 6.41206 0
M  V30 6818 H 639.44 -0.193636 0.715252 0
M  V30 6819 H 642.087 0.209489 1.90351 0
M  V30 6820 H 640.392 -1.91058 3.42059 0
M  V30 6821 H 642.089 -1.61087 3.67222 0
M  V30 6822 H 638.679 -0.309979 4.27478 0
M  V30 6823 H 642.863 0.404597 4.94648 0
M  V30 6824 H 638.119 1.3975 5.95214 0
M  V30 6825 H 642.293 2.10859 6.6371 0
M  V30 6826 H 639.92 2.61109 7.13951 0
M  V30 6827 N 641.495 -1.56914 -0.146875 0
M  V30 6828 C 642.427 -1.94878 -1.20645 0
M  V30 6829 C 643.44 -0.844633 -1.39175 0
M  V30 6830 O 644.629 -1.12304 -1.38744 0
M  V30 6831 C 641.729 -2.20769 -2.57127 0
M  V30 6832 C 640.902 -3.52053 -2.59572 0
M  V30 6833 C 639.961 -3.66482 -3.77594 0
M  V30 6834 O 638.987 -4.38873 -3.62462 0
M  V30 6835 N 640.189 -3.03156 -4.95052 0
M  V30 6836 H 642.954 -2.86374 -0.883757 0
M  V30 6837 H 640.515 -1.58366 -0.336436 0
M  V30 6838 H 642.507 -2.27664 -3.34591 0
M  V30 6839 H 641.077 -1.35538 -2.81688 0
M  V30 6840 H 640.297 -3.56598 -1.68023 0
M  V30 6841 H 641.585 -4.38396 -2.58238 0
M  V30 6842 H 640.983 -2.44258 -5.10249 0
M  V30 6843 H 639.54 -3.15611 -5.70292 0
M  V30 6844 N 642.974 0.416227 -1.52004 0
M  V30 6845 C 643.937 1.48926 -1.74223 0
M  V30 6846 C 644.937 1.48693 -0.612119 0
M  V30 6847 O 646.127 1.50343 -0.879921 0
M  V30 6848 C 643.259 2.88372 -1.81809 0
M  V30 6849 H 644.452 1.3052 -2.70008 0
M  V30 6850 H 642.005 0.646271 -1.42313 0
M  V30 6851 H 642.74 3.12157 -0.879135 0
M  V30 6852 H 642.525 2.89944 -2.6396 0
M  V30 6853 H 644.015 3.66173 -2.00766 0
M  V30 6854 N 644.452 1.42507 0.673017 0
M  V30 6855 C 645.382 1.48916 1.79851 0
M  V30 6856 C 646.363 0.345566 1.66553 0
M  V30 6857 O 647.548 0.560116 1.85947 0
M  V30 6858 C 644.678 1.39258 3.18158 0
M  V30 6859 C 643.632 2.51662 3.46194 0
M  V30 6860 C 642.958 2.27062 4.84094 0
M  V30 6861 C 644.258 3.93968 3.42909 0
M  V30 6862 H 645.952 2.43114 1.74745 0
M  V30 6863 H 643.498 1.17013 0.839288 0
M  V30 6864 H 645.451 1.42349 3.96629 0
M  V30 6865 H 644.175 0.415542 3.23946 0
M  V30 6866 H 642.834 2.47891 2.70084 0
M  V30 6867 H 642.482 1.27648 4.86534 0
M  V30 6868 H 642.182 3.02398 5.03815 0
M  V30 6869 H 643.706 2.31905 5.64847 0
M  V30 6870 H 645.12 3.99332 4.11347 0
M  V30 6871 H 643.517 4.6917 3.74165 0
M  V30 6872 H 644.587 4.20512 2.41449 0
M  V30 6873 N 645.93 -0.909495 1.28709 0
M  V30 6874 C 647.155 -1.69801 1.1909 0
M  V30 6875 C 647.58 -1.86479 -0.246388 0
M  V30 6876 O 646.938 -1.37802 -1.17815 0
M  V30 6877 C 646.986 -3.06543 1.89904 0
M  V30 6878 O 646.09 -3.94268 1.2094 0
M  V30 6879 H 645.431 -0.519783 0.413185 0
M  V30 6880 H 647.961 -1.13689 1.70106 0
M  V30 6881 H 647.971 -3.56748 1.97977 0
M  V30 6882 H 646.646 -2.93722 2.94449 0
M  V30 6883 H 645.223 -3.52702 1.2106 0
M  V30 6884 N 647.408 -1.11026 -1.11852 0
M  V30 6885 C 648.656 -0.854769 -1.83134 0
M  V30 6886 C 648.977 0.621375 -1.84835 0
M  V30 6887 O 648.247 1.45129 -1.31584 0
M  V30 6888 H 646.827 -0.313229 -0.678157 0
M  V30 6889 H 649.489 -1.40178 -1.35411 0
M  V30 6890 H 648.585 -1.22311 -2.87135 0
M  V30 6891 N 648.886 1.2938 -0.899927 0
M  V30 6892 C 649.834 2.29675 -0.367698 0
M  V30 6893 C 650.828 1.60787 0.533282 0
M  V30 6894 O 652.034 1.75126 0.416058 0
M  V30 6895 H 648.409 0.745284 -0.100279 0
M  V30 6896 H 650.38 2.72008 -1.22696 0
M  V30 6897 C 649.129 3.45512 0.389483 0
M  V30 6898 H 648.452 3.98713 -0.294575 0
M  V30 6899 H 649.892 4.17725 0.726744 0
M  V30 6900 C 648.351 2.969 1.59223 0
M  V30 6901 O 648.881 2.98195 2.69152 0
M  V30 6902 N 647.087 2.52728 1.43447 0
M  V30 6903 H 646.634 2.51873 0.540148 0
M  V30 6904 H 646.592 2.20561 2.24054 0
M  V30 6905 N 650.364 0.662433 1.43002 0
M  V30 6906 C 651.274 -0.0239199 2.34588 0
M  V30 6907 C 652.29 -0.802255 1.54402 0
M  V30 6908 O 653.466 -0.747401 1.87018 0
M  V30 6909 C 650.531 -0.972098 3.32793 0
M  V30 6910 C 649.592 -0.189673 4.28881 0
M  V30 6911 C 648.825 -1.09269 5.22395 0
M  V30 6912 O 649.048 -2.33209 5.20547 0
M  V30 6913 O 647.982 -0.560136 5.99288 0
M  V30 6914 H 651.808 0.730171 2.94792 0
M  V30 6915 H 649.393 0.422635 1.43297 0
M  V30 6916 H 651.275 -1.51676 3.93157 0
M  V30 6917 H 649.95 -1.70626 2.75079 0
M  V30 6918 H 648.857 0.398794 3.71968 0
M  V30 6919 H 650.19 0.50511 4.89601 0
M  V30 6920 N 651.842 -1.52309 0.404946 0
M  V30 6921 C 653.258 -1.59503 0.0556255 0
M  V30 6922 C 653.458 -1.41805 -1.43156 0
M  V30 6923 O 652.514 -1.2429 -2.19792 0
M  V30 6924 C 653.827 -2.95687 0.546801 0
M  V30 6925 C 655.375 -3.08909 0.504413 0
M  V30 6926 C 655.85 -4.47566 0.97203 0
M  V30 6927 N 657.341 -4.53795 0.928679 0
M  V30 6928 C 658.076 -5.59346 1.26174 0
M  V30 6929 N 657.572 -6.72469 1.66604 0
M  V30 6930 N 659.365 -5.49532 1.18198 0
M  V30 6931 H 651.516 -1.6206 1.37296 0
M  V30 6932 H 653.779 -0.762161 0.563751 0
M  V30 6933 H 653.485 -3.13905 1.58609 0
M  V30 6934 H 653.359 -3.77172 -0.0457905 0
M  V30 6935 H 655.746 -2.90378 -0.525819 0
M  V30 6936 H 655.827 -2.2934 1.13301 0
M  V30 6937 H 655.471 -4.6684 2.00057 0
M  V30 6938 H 655.401 -5.25625 0.320292 0
M  V30 6939 H 657.892 -3.72588 0.631369 0
M  V30 6940 H 658.205 -7.48993 1.9034 0
M  V30 6941 H 656.55 -6.73761 1.70504 0
M  V30 6942 H 659.741 -4.60038 0.865011 0
M  V30 6943 H 659.914 -6.31687 1.44485 0
M  V30 6944 N 653.32 -0.135238 -1.57019 0
M  V30 6945 C 654.567 0.518794 -1.95742 0
M  V30 6946 C 654.895 1.65642 -1.01947 0
M  V30 6947 O 654.15 1.95645 -0.0464016 0
M  V30 6948 C 654.449 1.07694 -3.40788 0
M  V30 6949 C 654.115 0.058992 -4.50861 0
M  V30 6950 C 652.777 -0.220872 -4.80693 0
M  V30 6951 C 655.129 -0.633856 -5.17331 0
M  V30 6952 C 652.457 -1.19959 -5.74305 0
M  V30 6953 C 654.809 -1.60131 -6.11997 0
M  V30 6954 C 653.473 -1.889 -6.40213 0
M  V30 6955 H 652.743 0.18984 -0.716269 0
M  V30 6956 H 655.39 -0.219581 -1.90237 0
M  V30 6957 H 653.695 1.89241 -3.43067 0
M  V30 6958 H 655.392 1.59137 -3.68071 0
M  V30 6959 H 651.982 0.287304 -4.27636 0
M  V30 6960 H 656.166 -0.430823 -4.94427 0
M  V30 6961 H 651.422 -1.42905 -5.94465 0
M  V30 6962 H 655.596 -2.14376 -6.62583 0
M  V30 6963 H 653.223 -2.64891 -7.12556 0
M  V30 6964 N 654.798 1.5699 0.138552 0
M  V30 6965 C 655.708 2.02174 1.19008 0
M  V30 6966 C 656.724 0.938622 1.46512 0
M  V30 6967 O 657.9 1.24872 1.58016 0
M  V30 6968 C 654.965 2.40045 2.50159 0
M  V30 6969 C 654.026 3.62346 2.30226 0
M  V30 6970 C 653.259 3.98401 3.55123 0
M  V30 6971 O 653.482 3.35019 4.61647 0
M  V30 6972 O 652.416 4.91606 3.47285 0
M  V30 6973 H 656.242 2.91954 0.836452 0
M  V30 6974 H 653.827 1.45293 0.347907 0
M  V30 6975 H 655.709 2.65225 3.27465 0
M  V30 6976 H 654.384 1.53417 2.85035 0
M  V30 6977 H 653.291 3.42341 1.50843 0
M  V30 6978 H 654.624 4.49617 2.00262 0
M  V30 6979 N 656.276 -0.40816 1.52223 0
M  V30 6980 C 657.524 -1.15274 1.66001 0
M  V30 6981 C 657.845 -1.91003 0.392803 0
M  V30 6982 O 657.115 -1.8673 -0.592336 0
M  V30 6983 H 655.695 -0.428526 0.611861 0
M  V30 6984 H 658.357 -0.46512 1.89269 0
M  V30 6985 H 657.453 -1.86628 2.50153 0
M  V30 6986 N 657.755 -1.42862 -0.66545 0
M  V30 6987 C 659.002 -1.4383 -1.42546 0
M  V30 6988 C 659.33 -0.0581114 -1.94413 0
M  V30 6989 O 658.585 0.935002 -1.71919 0
M  V30 6990 C 658.884 -2.4175 -2.63233 0
M  V30 6991 C 658.55 -3.87915 -2.29854 0
M  V30 6992 C 657.212 -4.27726 -2.20463 0
M  V30 6993 C 659.564 -4.80074 -2.02924 0
M  V30 6994 C 656.892 -5.57666 -1.82279 0
M  V30 6995 C 659.244 -6.10366 -1.66242 0
M  V30 6996 C 657.908 -6.49167 -1.55367 0
M  V30 6997 H 657.178 -0.52631 -0.521612 0
M  V30 6998 H 659.825 -1.75863 -0.757914 0
M  V30 6999 H 658.13 -2.03077 -3.35063 0
M  V30 7000 H 659.827 -2.39759 -3.21429 0
M  V30 7001 H 656.417 -3.564 -2.3807 0
M  V30 7002 H 660.601 -4.50097 -2.09108 0
M  V30 7003 H 655.857 -5.8658 -1.72436 0
M  V30 7004 H 660.031 -6.81258 -1.44432 0
M  V30 7005 H 657.658 -7.49761 -1.2555 0
M  V30 7006 N 659.233 0.902656 -1.29189 0
M  V30 7007 C 660.473 1.6672 -1.18254 0
M  V30 7008 C 660.837 1.90199 0.262336 0
M  V30 7009 O 662.038 2.6421 0.494612 0
M  V30 7010 C 660.309 2.98178 -1.9704 0
M  V30 7011 S 661.868 3.89226 -2.02605 0
M  V30 7012 H 658.686 0.572432 -0.421714 0
M  V30 7013 H 661.288 1.07279 -1.63436 0
M  V30 7014 H 659.992 2.788 -3.01163 0
M  V30 7015 H 659.523 3.62661 -1.5245 0
M  V30 7016 H 661.538 4.82913 -1.14059 0
M  V30 7017 N 660.711 1.11618 1.11262 0
M  V30 7018 C 661.957 0.867463 1.83311 0
M  V30 7019 C 662.29 -0.605366 1.84524 0
M  V30 7020 O 661.565 -1.44704 1.29965 0
M  V30 7021 C 661.848 1.43207 3.30399 0
M  V30 7022 C 661.701 2.97265 3.3757 0
M  V30 7023 C 663.02 1.08454 4.26528 0
M  V30 7024 H 660.139 0.316578 0.665543 0
M  V30 7025 H 662.781 1.38137 1.30454 0
M  V30 7026 H 660.931 0.994982 3.75543 0
M  V30 7027 H 662.603 3.49591 3.00971 0
M  V30 7028 H 660.846 3.33237 2.77733 0
M  V30 7029 H 661.517 3.31859 4.41105 0
M  V30 7030 H 663.993 1.4619 3.89574 0
M  V30 7031 H 662.869 1.50633 5.27826 0
M  V30 7032 H 663.13 -0.00444568 4.421 0
M  V30 7033 N 662.189 -1.289 0.906776 0
M  V30 7034 C 663.466 -1.90221 0.455537 0
M  V30 7035 C 663.846 -1.82251 -1.06527 0
M  V30 7036 O 663.194 -1.25385 -1.91026 0
M  V30 7037 C 663.404 -3.35015 0.97806 0
M  V30 7038 C 664.752 -4.12018 1.02598 0
M  V30 7039 O 665.776 -3.43947 0.926218 0
M  V30 7040 O 664.635 -5.33677 1.17689 0
M  V30 7041 H 661.729 -0.814505 0.143214 0
M  V30 7042 H 664.275 -1.37317 0.997104 0
M  V30 7043 H 663.047 -3.35006 2.02204 0
M  V30 7044 H 662.67 -3.95408 0.416914 0
M  V30 7045 N 663.667 -0.670007 -1.42649 0
M  V30 7046 C 664.6 0.0613623 -2.28117 0
M  V30 7047 C 665.578 0.813414 -1.40792 0
M  V30 7048 O 666.762 0.809529 -1.70232 0
M  V30 7049 C 663.889 1.09399 -3.20546 0
M  V30 7050 C 662.935 0.438064 -4.24244 0
M  V30 7051 S 663.768 -0.800808 -5.29478 0
M  V30 7052 C 664.924 0.23086 -6.25474 0
M  V30 7053 H 665.157 -0.663606 -2.89799 0
M  V30 7054 H 662.69 -0.45939 -1.47407 0
M  V30 7055 H 664.648 1.68469 -3.74337 0
M  V30 7056 H 663.309 1.79137 -2.58009 0
M  V30 7057 H 662.502 1.21707 -4.89084 0
M  V30 7058 H 662.104 -0.0789346 -3.73917 0
M  V30 7059 H 664.396 1.09204 -6.68641 0
M  V30 7060 H 665.339 -0.382945 -7.07064 0
M  V30 7061 H 665.747 0.574191 -5.61572 0
M  V30 7062 N 665.145 1.52092 -0.413018 0
M  V30 7063 C 666.075 2.30021 0.401567 0
M  V30 7064 C 667.056 1.34395 1.04269 0
M  V30 7065 O 668.241 1.63304 1.05097 0
M  V30 7066 C 665.371 3.12447 1.51638 0
M  V30 7067 C 664.325 4.16153 1.00005 0
M  V30 7068 C 663.651 4.86948 2.20875 0
M  V30 7069 C 664.951 5.22275 0.0513757 0
M  V30 7070 H 666.645 2.98365 -0.248704 0
M  V30 7071 H 664.191 1.4349 -0.121052 0
M  V30 7072 H 666.144 3.65733 2.09326 0
M  V30 7073 H 664.868 2.41879 2.19458 0
M  V30 7074 H 663.527 3.63882 0.445549 0
M  V30 7075 H 663.175 4.12905 2.8726 0
M  V30 7076 H 662.875 5.57057 1.86978 0
M  V30 7077 H 664.399 5.43048 2.79162 0
M  V30 7078 H 665.813 5.70778 0.537176 0
M  V30 7079 H 664.21 5.9977 -0.198977 0
M  V30 7080 H 665.28 4.76611 -0.892736 0
M  V30 7081 N 666.623 0.143563 1.56945 0
M  V30 7082 C 668.039 -0.212877 1.58174 0
M  V30 7083 C 668.239 -1.64926 1.15766 0
M  V30 7084 O 667.295 -2.37535 0.856361 0
M  V30 7085 C 668.608 0.0427573 3.0067 0
M  V30 7086 C 670.156 -0.0212221 3.12993 0
M  V30 7087 C 670.631 0.207036 4.57532 0
M  V30 7088 N 672.122 0.153845 4.62944 0
M  V30 7089 C 672.857 0.305018 5.72588 0
M  V30 7090 N 672.353 0.513722 6.90893 0
M  V30 7091 N 674.146 0.242862 5.61575 0
M  V30 7092 H 666.297 1.08148 1.82805 0
M  V30 7093 H 668.56 0.427831 0.84597 0
M  V30 7094 H 668.266 1.03672 3.36073 0
M  V30 7095 H 668.14 -0.678195 3.71053 0
M  V30 7096 H 670.527 -1.00574 2.77433 0
M  V30 7097 H 670.608 0.732004 2.45103 0
M  V30 7098 H 670.252 1.18863 4.93795 0
M  V30 7099 H 670.182 -0.566473 5.23544 0
M  V30 7100 H 672.673 -0.00294866 3.779 0
M  V30 7101 H 672.986 0.619273 7.70315 0
M  V30 7102 H 671.331 0.550001 6.9282 0
M  V30 7103 H 674.522 0.0806015 4.68031 0
M  V30 7104 H 674.695 0.364112 6.46976 0
M  V30 7105 N 668.101 -1.57061 -0.130224 0
M  V30 7106 C 669.011 -2.02802 -1.17934 0
M  V30 7107 C 670.027 -0.946378 -1.46013 0
M  V30 7108 O 671.203 -1.25708 -1.57351 0
M  V30 7109 C 668.268 -2.41368 -2.48882 0
M  V30 7110 C 667.329 -3.63561 -2.28301 0
M  V30 7111 C 666.562 -4.00279 -3.53005 0
M  V30 7112 O 666.785 -3.37463 -4.59864 0
M  V30 7113 O 665.719 -4.93441 -3.44673 0
M  V30 7114 H 669.545 -2.92394 -0.820958 0
M  V30 7115 H 667.13 -1.45475 -0.340197 0
M  V30 7116 H 669.012 -2.66958 -3.26054 0
M  V30 7117 H 667.687 -1.54926 -2.84217 0
M  V30 7118 H 666.594 -3.43136 -1.49025 0
M  V30 7119 H 667.927 -4.50673 -1.97875 0
M  V30 7120 N 669.579 0.400081 -1.52437 0
M  V30 7121 C 670.509 1.4947 -1.7939 0
M  V30 7122 C 671.49 1.57383 -0.645329 0
M  V30 7123 O 672.675 1.72511 -0.891826 0
M  V30 7124 C 669.805 2.87201 -1.95276 0
M  V30 7125 C 668.759 2.94134 -3.10917 0
M  V30 7126 C 668.085 4.34207 -3.1204 0
M  V30 7127 C 669.385 2.64791 -4.50203 0
M  V30 7128 H 671.079 1.27165 -2.71052 0
M  V30 7129 H 668.625 0.610312 -1.30427 0
M  V30 7130 H 670.578 3.63772 -2.12715 0
M  V30 7131 H 669.302 3.10819 -1.00294 0
M  V30 7132 H 667.961 2.20009 -2.93243 0
M  V30 7133 H 667.609 4.54848 -2.14761 0
M  V30 7134 H 667.309 4.39768 -3.89715 0
M  V30 7135 H 668.833 5.127 -3.31619 0
M  V30 7136 H 670.247 3.31083 -4.68035 0
M  V30 7137 H 668.644 2.81717 -5.29864 0
M  V30 7138 H 669.714 1.60184 -4.57678 0
M  V30 7139 N 671.057 1.43213 0.657864 0
M  V30 7140 C 672.02 1.47687 1.75275 0
M  V30 7141 C 673.02 0.362179 1.56668 0
M  V30 7142 O 674.21 0.623734 1.62651 0
M  V30 7143 C 671.342 1.32497 3.14098 0
M  V30 7144 H 672.535 2.4519 1.7269 0
M  V30 7145 H 670.088 1.2991 0.869087 0
M  V30 7146 H 670.823 0.359831 3.22298 0
M  V30 7147 H 670.608 2.13299 3.29008 0
M  V30 7148 H 672.098 1.38549 3.93946 0
M  V30 7149 N 672.536 -0.895792 1.29666 0
M  V30 7150 C 673.446 -2.03329 1.17024 0
M  V30 7151 C 674.462 -1.73753 0.0925962 0
M  V30 7152 O 675.638 -1.99071 0.305431 0
M  V30 7153 C 672.703 -3.36072 0.851841 0
M  V30 7154 C 671.764 -3.7914 2.01373 0
M  V30 7155 C 670.997 -5.05549 1.71043 0
M  V30 7156 O 671.22 -5.66874 0.633213 0
M  V30 7157 O 670.154 -5.44764 2.5596 0
M  V30 7158 H 673.98 -2.16918 2.12556 0
M  V30 7159 H 671.565 -1.02007 1.09156 0
M  V30 7160 H 673.447 -4.15729 0.689006 0
M  V30 7161 H 672.122 -3.23616 -0.0736634 0
M  V30 7162 H 671.029 -3.00233 2.23183 0
M  V30 7163 H 672.362 -3.96186 2.92058 0
M  V30 7164 N 674.014 -1.12206 -1.10668 0
M  V30 7165 C 674.944 -0.810086 -2.18997 0
M  V30 7166 C 675.925 0.225065 -1.68604 0
M  V30 7167 O 677.11 0.086783 -1.94006 0
M  V30 7168 C 674.24 -0.261262 -3.46316 0
M  V30 7169 C 673.194 -1.2292 -4.09969 0
M  V30 7170 C 672.52 -0.540713 -5.31959 0
M  V30 7171 C 673.82 -2.58295 -4.53962 0
M  V30 7172 H 675.514 -1.7159 -2.45352 0
M  V30 7173 H 673.06 -0.82646 -1.17922 0
M  V30 7174 H 675.013 -0.0307522 -4.21389 0
M  V30 7175 H 673.737 0.679879 -3.19445 0
M  V30 7176 H 672.396 -1.44548 -3.369 0
M  V30 7177 H 672.044 0.405492 -5.01363 0
M  V30 7178 H 671.744 -1.18637 -5.75499 0
M  V30 7179 H 673.268 -0.319184 -6.09765 0
M  V30 7180 H 674.682 -2.40709 -5.20319 0
M  V30 7181 H 673.079 -3.18916 -5.08343 0
M  V30 7182 H 674.149 -3.16918 -3.67002 0
M  V30 7183 N 675.492 1.28418 -0.913599 0
M  V30 7184 C 676.422 2.29713 -0.418847 0
M  V30 7185 C 677.403 1.62165 0.513469 0
M  V30 7186 O 678.588 1.89576 0.421235 0
M  V30 7187 C 675.718 3.45612 0.342042 0
M  V30 7188 C 674.672 4.25056 -0.501123 0
M  V30 7189 C 673.998 5.3329 0.388097 0
M  V30 7190 C 675.298 4.91814 -1.75831 0
M  V30 7191 H 676.992 2.71346 -1.26538 0
M  V30 7192 H 674.538 1.30446 -0.609903 0
M  V30 7193 H 676.491 4.15562 0.699 0
M  V30 7194 H 675.215 3.02858 1.22248 0
M  V30 7195 H 673.874 3.56833 -0.840598 0
M  V30 7196 H 673.522 4.8678 1.26707 0
M  V30 7197 H 673.222 5.87347 -0.172459 0
M  V30 7198 H 674.746 6.06088 0.74094 0
M  V30 7199 H 676.16 5.54126 -1.47026 0
M  V30 7200 H 674.557 5.55866 -2.26126 0
M  V30 7201 H 675.627 4.16313 -2.4862 0
M  V30 7202 N 676.97 0.677563 1.42291 0
M  V30 7203 C 678.386 0.347376 1.55774 0
M  V30 7204 C 678.586 -1.14703 1.65667 0
M  V30 7205 O 677.642 -1.93252 1.62512 0
M  V30 7206 C 678.955 1.08011 2.80631 0
M  V30 7207 C 680.503 1.06271 2.94407 0
M  V30 7208 C 680.978 1.77683 4.22129 0
M  V30 7209 N 682.469 1.74564 4.29047 0
M  V30 7210 C 683.204 2.26673 5.26694 0
M  V30 7211 N 682.7 2.87176 6.30477 0
M  V30 7212 N 684.493 2.17032 5.18511 0
M  V30 7213 H 676.644 1.64703 1.34114 0
M  V30 7214 H 678.907 0.694038 0.645768 0
M  V30 7215 H 678.613 2.13518 2.79469 0
M  V30 7216 H 678.487 0.647115 3.71608 0
M  V30 7217 H 680.874 0.0159658 2.95096 0
M  V30 7218 H 680.955 1.53461 2.04654 0
M  V30 7219 H 680.599 2.82327 4.22201 0
M  V30 7220 H 680.529 1.2794 5.10822 0
M  V30 7221 H 683.02 1.30436 3.54676 0
M  V30 7222 H 683.333 3.24551 7.01346 0
M  V30 7223 H 681.678 2.91247 6.31031 0
M  V30 7224 H 684.869 1.69451 4.36353 0
M  V30 7225 H 685.042 2.57948 5.94446 0
M  V30 7226 N 678.448 -1.51871 0.421078 0
M  V30 7227 C 679.695 -2.01938 -0.15079 0
M  V30 7228 C 680.023 -1.30611 -1.44121 0
M  V30 7229 O 679.278 -0.404631 -1.91471 0
M  V30 7230 C 679.577 -3.54764 -0.433292 0
M  V30 7231 C 679.243 -4.44288 0.76936 0
M  V30 7232 C 677.905 -4.68477 1.09921 0
M  V30 7233 C 680.257 -4.96915 1.57242 0
M  V30 7234 C 677.585 -5.4254 2.2331 0
M  V30 7235 C 679.937 -5.7222 2.69716 0
M  V30 7236 C 678.601 -5.94678 3.03174 0
M  V30 7237 H 677.871 -0.738943 -0.0551781 0
M  V30 7238 H 680.518 -1.82977 0.564945 0
M  V30 7239 H 678.823 -3.71968 -1.23074 0
M  V30 7240 H 680.52 -3.91023 -0.888922 0
M  V30 7241 H 677.11 -4.25646 0.502305 0
M  V30 7242 H 681.294 -4.78125 1.3308 0
M  V30 7243 H 676.55 -5.58146 2.49565 0
M  V30 7244 H 680.724 -6.11992 3.32323 0
M  V30 7245 H 678.351 -6.51848 3.9115 0
M  V30 7246 N 679.926 -0.151884 -1.56866 0
M  V30 7247 C 681.342 0.204486 -1.58285 0
M  V30 7248 C 681.542 1.6431 -1.16639 0
M  V30 7249 O 680.598 2.37077 -0.868946 0
M  V30 7250 C 681.911 -0.0587019 -3.00643 0
M  V30 7251 C 683.459 0.00462303 -3.13 0
M  V30 7252 C 683.934 -0.231297 -4.57416 0
M  V30 7253 N 685.425 -0.178394 -4.62856 0
M  V30 7254 C 686.16 -0.335379 -5.72418 0
M  V30 7255 N 685.656 -0.550355 -6.90611 0
M  V30 7256 N 687.449 -0.272641 -5.61438 0
M  V30 7257 H 679.6 -1.09116 -1.82229 0
M  V30 7258 H 681.863 -0.432311 -0.843689 0
M  V30 7259 H 681.569 -1.05453 -3.35518 0
M  V30 7260 H 681.443 0.658508 -3.71407 0
M  V30 7261 H 683.83 0.991009 -2.77962 0
M  V30 7262 H 683.911 -0.744992 -2.44711 0
M  V30 7263 H 683.555 -1.2148 -4.93158 0
M  V30 7264 H 683.485 0.5387 -5.23837 0
M  V30 7265 H 685.976 -0.0170923 -3.77896 0
M  V30 7266 H 686.289 -0.660116 -7.69976 0
M  V30 7267 H 684.634 -0.586736 -6.92519 0
M  V30 7268 H 687.825 -0.105421 -4.67981 0
M  V30 7269 H 687.998 -0.398418 -6.46774 0
M  V30 7270 N 681.404 1.57128 0.121893 0
M  V30 7271 C 682.634 1.88609 0.843227 0
M  V30 7272 C 683.042 0.740917 1.74089 0
M  V30 7273 O 682.385 -0.297426 1.81276 0
M  V30 7274 C 682.447 3.15073 1.73117 0
M  V30 7275 C 682.111 4.45742 1.0081 0
M  V30 7276 C 683.108 5.18719 0.350255 0
M  V30 7277 C 680.793 4.92444 0.99014 0
M  V30 7278 C 682.787 6.36617 -0.315889 0
M  V30 7279 C 680.474 6.10261 0.320196 0
M  V30 7280 C 681.472 6.82194 -0.331666 0
M  V30 7281 O 681.16 7.97769 -0.990927 0
M  V30 7282 H 680.892 0.628919 0.247865 0
M  V30 7283 H 683.446 2.05096 0.111725 0
M  V30 7284 H 681.676 2.9466 2.50424 0
M  V30 7285 H 683.365 3.32597 2.32667 0
M  V30 7286 H 684.131 4.83693 0.35577 0
M  V30 7287 H 680.01 4.36361 1.48695 0
M  V30 7288 H 683.554 6.92701 -0.825272 0
M  V30 7289 H 679.451 6.44743 0.312433 0
M  V30 7290 H 680.219 8.13591 -0.895113 0
M  V30 7291 N 682.882 -0.391992 1.52647 0
M  V30 7292 C 684.298 -0.731848 1.41831 0
M  V30 7293 C 684.498 -1.9423 0.536361 0
M  V30 7294 O 683.554 -2.52499 0.00866571 0
M  V30 7295 C 684.867 -0.969743 2.84634 0
M  V30 7296 C 686.415 -1.0714 2.94092 0
M  V30 7297 C 686.89 -1.34195 4.37899 0
M  V30 7298 N 688.381 -1.41023 4.41211 0
M  V30 7299 C 689.116 -1.63616 5.49561 0
M  V30 7300 N 688.612 -1.83699 6.68002 0
M  V30 7301 N 690.405 -1.65771 5.371 0
M  V30 7302 H 682.556 0.404547 2.08512 0
M  V30 7303 H 684.819 0.11879 0.940528 0
M  V30 7304 H 684.525 -0.152465 3.51369 0
M  V30 7305 H 684.399 -1.88523 3.26709 0
M  V30 7306 H 686.786 -1.87925 2.27526 0
M  V30 7307 H 686.867 -0.133887 2.55449 0
M  V30 7308 H 686.511 -0.539207 5.0503 0
M  V30 7309 H 686.441 -2.29226 4.74092 0
M  V30 7310 H 688.932 -1.27223 3.55841 0
M  V30 7311 H 689.245 -2.00437 7.46354 0
M  V30 7312 H 687.59 -1.8093 6.71036 0
M  V30 7313 H 690.781 -1.4963 4.43541 0
M  V30 7314 H 690.954 -1.83038 6.21612 0
M  V30 7315 N 684.36 -1.4356 -0.65026 0
M  V30 7316 C 685.29 -1.51758 -1.77459 0
M  V30 7317 C 686.271 -0.372019 -1.65982 0
M  V30 7318 O 687.456 -0.589627 -1.85033 0
M  V30 7319 C 684.586 -1.44302 -3.15902 0
M  V30 7320 C 683.54 -2.57138 -3.42146 0
M  V30 7321 C 682.866 -2.34735 -4.8042 0
M  V30 7322 C 684.166 -3.99373 -3.36598 0
M  V30 7323 H 685.86 -2.45863 -1.70855 0
M  V30 7324 H 683.406 -1.18333 -0.820566 0
M  V30 7325 H 685.359 -1.48641 -3.94314 0
M  V30 7326 H 684.083 -0.467026 -3.23244 0
M  V30 7327 H 682.742 -2.52157 -2.66106 0
M  V30 7328 H 682.39 -1.35372 -4.84441 0
M  V30 7329 H 682.09 -3.10375 -4.9894 0
M  V30 7330 H 683.614 -2.40862 -5.61086 0
M  V30 7331 H 685.028 -4.05826 -4.04942 0
M  V30 7332 H 683.425 -4.75063 -3.66654 0
M  V30 7333 H 684.495 -4.243 -2.34729 0
M  V30 7334 N 685.838 0.888903 -1.30139 0
M  V30 7335 C 687.254 1.17153 -1.08385 0
M  V30 7336 C 687.454 2.0088 0.157925 0
M  V30 7337 O 686.51 2.37668 0.852652 0
M  V30 7338 C 687.823 1.882 -2.34523 0
M  V30 7339 C 689.371 2.00981 -2.39949 0
M  V30 7340 C 689.846 2.75441 -3.65918 0
M  V30 7341 N 691.337 2.82989 -3.66704 0
M  V30 7342 C 692.072 3.41167 -4.60861 0
M  V30 7343 N 691.568 4.00425 -5.6536 0
M  V30 7344 N 693.361 3.38944 -4.48412 0
M  V30 7345 H 685.512 0.33053 -2.09812 0
M  V30 7346 H 687.775 0.208964 -0.924683 0
M  V30 7347 H 687.481 1.34119 -3.25123 0
M  V30 7348 H 687.355 2.88609 -2.42868 0
M  V30 7349 H 689.742 2.54234 -1.4983 0
M  V30 7350 H 689.823 0.996725 -2.35582 0
M  V30 7351 H 689.467 2.22861 -4.56394 0
M  V30 7352 H 689.397 3.77118 -3.67546 0
M  V30 7353 H 691.888 2.40912 -2.91153 0
M  V30 7354 H 692.201 4.42871 -6.33313 0
M  V30 7355 H 690.546 3.98856 -5.69157 0
M  V30 7356 H 693.737 2.91875 -3.6596 0
M  V30 7357 H 693.91 3.83989 -5.21974 0
M  V30 7358 N 687.317 1.12792 1.10072 0
M  V30 7359 C 688.247 0.821688 2.18565 0
M  V30 7360 C 689.228 -0.21612 1.68721 0
M  V30 7361 O 690.413 -0.0764932 1.94049 0
M  V30 7362 C 687.543 0.279624 3.46172 0
M  V30 7363 C 686.497 1.25092 4.09312 0
M  V30 7364 C 685.823 0.568916 5.31665 0
M  V30 7365 C 687.123 2.60699 4.52585 0
M  V30 7366 H 688.817 1.72888 2.44438 0
M  V30 7367 H 686.363 0.832702 1.17482 0
M  V30 7368 H 688.316 0.053099 4.21367 0
M  V30 7369 H 687.04 -0.662929 3.19801 0
M  V30 7370 H 685.699 1.46332 3.36129 0
M  V30 7371 H 685.347 -0.378898 5.01571 0
M  V30 7372 H 685.047 1.21687 5.74862 0
M  V30 7373 H 686.571 0.351517 6.09587 0
M  V30 7374 H 687.985 2.43465 5.19035 0
M  V30 7375 H 686.382 3.21608 5.06644 0
M  V30 7376 H 687.452 3.1886 3.65317 0
M  V30 7377 N 688.795 -1.27931 0.920396 0
M  V30 7378 C 690.041 -1.94977 0.557832 0
M  V30 7379 C 690.374 -1.72224 -0.897365 0
M  V30 7380 O 689.649 -1.04705 -1.63912 0
M  V30 7381 C 689.932 -3.49289 0.875741 0
M  V30 7382 C 689.785 -3.81416 2.38416 0
M  V30 7383 C 691.104 -4.38486 0.376517 0
M  V30 7384 H 688.223 -0.708164 0.20414 0
M  V30 7385 H 690.865 -1.5118 1.15085 0
M  V30 7386 H 689.015 -3.86724 0.371062 0
M  V30 7387 H 690.687 -3.53813 2.95997 0
M  V30 7388 H 688.93 -3.28225 2.83639 0
M  V30 7389 H 689.601 -4.89198 2.55713 0
M  V30 7390 H 692.077 -4.08161 0.808945 0
M  V30 7391 H 690.953 -5.45296 0.627976 0
M  V30 7392 H 691.214 -4.36143 -0.723293 0
M  V30 7393 N 690.273 -0.685099 -1.4193 0
M  V30 7394 C 691.183 -0.013404 -2.34596 0
M  V30 7395 C 692.199 0.777589 -1.55658 0
M  V30 7396 O 693.375 0.717553 -1.88184 0
M  V30 7397 C 690.44 0.919031 -3.34297 0
M  V30 7398 C 689.501 0.121417 -4.29128 0
M  V30 7399 C 688.734 1.00944 -5.24067 0
M  V30 7400 O 688.957 2.24898 -5.24192 0
M  V30 7401 O 687.891 0.464724 -6.00103 0
M  V30 7402 H 691.717 -0.776978 -2.93593 0
M  V30 7403 H 689.302 -0.445379 -1.42607 0
M  V30 7404 H 691.184 1.45402 -3.9552 0
M  V30 7405 H 689.859 1.66228 -2.77759 0
M  V30 7406 H 688.766 -0.45792 -3.71287 0
M  V30 7407 H 690.099 -0.582937 -4.88736 0
M  V30 7408 N 691.751 1.51645 -0.429126 0
M  V30 7409 C 693.028 1.94579 0.199614 0
M  V30 7410 C 693.408 1.3673 1.60836 0
M  V30 7411 O 692.756 0.551062 2.21756 0
M  V30 7412 C 692.966 3.48506 0.185685 0
M  V30 7413 C 694.314 4.22756 0.395282 0
M  V30 7414 O 695.338 3.55219 0.264165 0
M  V30 7415 O 694.197 5.42555 0.655475 0
M  V30 7416 H 691.291 0.816007 0.134393 0
M  V30 7417 H 693.837 1.62577 -0.486513 0
M  V30 7418 H 692.609 3.83045 -0.799508 0
M  V30 7419 H 692.232 3.86927 0.91507 0
M  V30 7420 N 693.229 0.160201 1.56784 0
M  V30 7421 C 694.477 -0.486625 1.96154 0
M  V30 7422 C 694.798 -1.64525 1.04673 0
M  V30 7423 O 694.068 -1.95586 0.110864 0
M  V30 7424 H 692.648 -0.182764 0.724297 0
M  V30 7425 H 695.31 0.238787 1.93432 0
M  V30 7426 H 694.406 -0.854025 3.00188 0
M  V30 7427 N 694.707 -1.5719 -0.113559 0
M  V30 7428 C 695.637 -2.03772 -1.14013 0
M  V30 7429 C 696.618 -0.923176 -1.42869 0
M  V30 7430 O 697.803 -1.19325 -1.53216 0
M  V30 7431 C 694.933 -2.44663 -2.4649 0
M  V30 7432 C 693.887 -3.59612 -2.32085 0
M  V30 7433 C 693.213 -3.8642 -3.69573 0
M  V30 7434 C 694.513 -4.91149 -1.7768 0
M  V30 7435 H 696.207 -2.89785 -0.752665 0
M  V30 7436 H 693.753 -1.39412 -0.360609 0
M  V30 7437 H 695.706 -2.75857 -3.18561 0
M  V30 7438 H 694.43 -1.55628 -2.87137 0
M  V30 7439 H 693.089 -3.28636 -1.62461 0
M  V30 7440 H 692.737 -2.94581 -4.07715 0
M  V30 7441 H 692.437 -4.63797 -3.60786 0
M  V30 7442 H 693.961 -4.2007 -4.4314 0
M  V30 7443 H 695.375 -5.20843 -2.39574 0
M  V30 7444 H 693.772 -5.72562 -1.79701 0
M  V30 7445 H 694.842 -4.79301 -0.734776 0
M  V30 7446 N 696.185 0.383891 -1.52853 0
M  V30 7447 C 697.415 1.14783 -1.7178 0
M  V30 7448 C 697.823 1.84055 -0.438211 0
M  V30 7449 O 697.166 1.73713 0.597465 0
M  V30 7450 C 697.228 2.23543 -2.81547 0
M  V30 7451 C 696.892 1.74195 -4.22499 0
M  V30 7452 C 697.889 1.21591 -5.05481 0
M  V30 7453 C 695.574 1.80262 -4.6884 0
M  V30 7454 C 697.568 0.757104 -6.32888 0
M  V30 7455 C 695.255 1.33993 -5.96229 0
M  V30 7456 C 696.253 0.818049 -6.78083 0
M  V30 7457 O 695.941 0.362123 -8.03084 0
M  V30 7458 H 695.673 0.349908 -0.578395 0
M  V30 7459 H 698.227 0.454377 -2.00311 0
M  V30 7460 H 696.457 2.96328 -2.48449 0
M  V30 7461 H 698.146 2.8519 -2.88828 0
M  V30 7462 H 698.912 1.16257 -4.7086 0
M  V30 7463 H 694.791 2.19825 -4.05213 0
M  V30 7464 H 698.335 0.34908 -6.96726 0
M  V30 7465 H 694.232 1.39015 -6.30353 0
M  V30 7466 H 695 0.483134 -8.17073 0
M  V30 7467 N 697.663 1.43903 0.642637 0
M  V30 7468 C 698.911 1.45791 1.39962 0
M  V30 7469 C 699.232 0.0873144 1.94804 0
M  V30 7470 O 698.502 -0.878825 1.75081 0
M  V30 7471 H 697.082 0.536797 0.519479 0
M  V30 7472 H 699.744 1.7959 0.757189 0
M  V30 7473 H 698.84 2.17665 2.2367 0
M  V30 7474 N 699.141 -0.881989 1.30609 0
M  V30 7475 C 700.104 -1.96957 1.1722 0
M  V30 7476 C 701.104 -1.60472 0.102598 0
M  V30 7477 O 702.294 -1.70628 0.350943 0
M  V30 7478 C 699.426 -3.31463 0.796572 0
M  V30 7479 H 700.619 -2.10262 2.13846 0
M  V30 7480 H 698.172 -1.06877 1.14048 0
M  V30 7481 H 698.907 -3.23859 -0.169053 0
M  V30 7482 H 698.692 -3.59314 1.56959 0
M  V30 7483 H 700.182 -4.11233 0.72645 0
M  V30 7484 N 700.619 -1.13374 -1.09472 0
M  V30 7485 C 702.03 -0.90801 -1.63132 0
M  V30 7486 C 702.381 0.555576 -1.8817 0
M  V30 7487 O 701.506 1.42218 -1.63104 0
M  V30 7488 C 702.101 -1.64182 -2.96361 0
M  V30 7489 C 700.66 -1.46197 -3.46848 0
M  V30 7490 C 699.807 -1.67134 -2.21273 0
M  V30 7491 H 702.758 -1.2871 -0.928411 0
M  V30 7492 H 702.779 -1.09863 -3.64294 0
M  V30 7493 H 702.291 -2.707 -2.78106 0
M  V30 7494 H 700.392 -0.419788 -3.70228 0
M  V30 7495 H 700.505 -2.22472 -4.24315 0
M  V30 7496 H 698.869 -1.09616 -2.29905 0
M  V30 7497 H 699.652 -2.74971 -2.05538 0
M  V30 7498 N 702.098 1.27442 -0.927168 0
M  V30 7499 C 703.008 2.30599 -0.431448 0
M  V30 7500 C 704.024 1.67028 0.48761 0
M  V30 7501 O 705.2 1.97962 0.370546 0
M  V30 7502 C 702.265 3.45327 0.308292 0
M  V30 7503 C 701.326 4.24418 -0.645615 0
M  V30 7504 C 700.559 5.33667 0.0589164 0
M  V30 7505 O 700.782 5.5589 1.27838 0
M  V30 7506 O 699.716 5.98774 -0.612638 0
M  V30 7507 H 703.542 2.75036 -1.28797 0
M  V30 7508 H 701.127 1.32382 -0.692495 0
M  V30 7509 H 703.009 4.15107 0.725555 0
M  V30 7510 H 701.684 3.02945 1.14043 0
M  V30 7511 H 700.591 3.57174 -1.11255 0
M  V30 7512 H 701.924 4.70512 -1.44496 0
M  V30 7513 N 703.576 0.692616 1.41565 0
M  V30 7514 C 704.987 0.297478 1.84315 0
M  V30 7515 C 705.338 -1.16379 1.57957 0
M  V30 7516 O 704.463 -1.89303 1.0485 0
M  V30 7517 C 705.058 0.533136 3.34579 0
M  V30 7518 C 703.617 0.191944 3.7591 0
M  V30 7519 C 702.764 0.816873 2.64995 0
M  V30 7520 H 705.715 0.893488 1.31158 0
M  V30 7521 H 705.736 -0.209105 3.79925 0
M  V30 7522 H 705.248 1.59674 3.53731 0
M  V30 7523 H 703.349 -0.867512 3.6236 0
M  V30 7524 H 703.462 0.644902 4.7474 0
M  V30 7525 H 701.826 0.246715 2.53502 0
M  V30 7526 H 702.609 1.88429 2.86966 0
M  V30 7527 N 705.054 -1.51416 0.437162 0
M  V30 7528 C 706.002 -2.29328 -0.388765 0
M  V30 7529 C 706.996 -1.35171 -1.02104 0
M  V30 7530 O 708.202 -1.52513 -0.956024 0
M  V30 7531 H 704.577 -0.738048 -0.144183 0
M  V30 7532 H 706.548 -2.96995 0.289212 0
M  V30 7533 C 705.297 -3.14741 -1.47761 0
M  V30 7534 H 704.62 -3.8708 -1.00045 0
M  V30 7535 H 706.06 -3.72313 -2.02877 0
M  V30 7536 C 704.519 -2.30105 -2.46076 0
M  V30 7537 O 705.049 -1.96055 -3.50607 0
M  V30 7538 N 703.255 -1.93331 -2.1696 0
M  V30 7539 H 702.802 -2.2122 -1.31983 0
M  V30 7540 H 702.76 -1.36999 -2.82982 0
M  V30 7541 N 706.532 -0.168513 -1.56696 0
M  V30 7542 C 707.78 0.476216 -1.96409 0
M  V30 7543 C 708.101 1.63968 -1.05544 0
M  V30 7544 O 707.371 1.95525 -0.121235 0
M  V30 7545 H 705.951 0.178921 -0.725256 0
M  V30 7546 H 708.613 -0.249042 -1.93302 0
M  V30 7547 H 707.709 0.838094 -3.00637 0
M  V30 7548 N 708.01 1.57248 0.105221 0
M  V30 7549 C 709.235 1.90143 0.828264 0
M  V30 7550 C 709.66 0.761811 1.71983 0
M  V30 7551 O 709.018 -0.287086 1.79013 0
M  V30 7552 C 709.066 3.21856 1.62608 0
M  V30 7553 O 708.17 3.08732 2.7342 0
M  V30 7554 H 707.511 0.623558 0.228192 0
M  V30 7555 H 710.041 2.0443 0.0834826 0
M  V30 7556 H 710.051 3.54916 2.01243 0
M  V30 7557 H 708.726 4.0439 0.971687 0
M  V30 7558 H 707.303 2.87167 2.37886 0
M  V30 7559 N 709.488 -0.375779 1.53054 0
M  V30 7560 C 710.734 -1.11767 1.6994 0
M  V30 7561 C 711.089 -1.87288 0.440574 0
M  V30 7562 O 710.382 -1.83045 -0.566146 0
M  V30 7563 C 710.576 -2.11356 2.88207 0
M  V30 7564 C 710.405 -1.45619 4.25471 0
M  V30 7565 C 709.175 -1.21464 4.90484 0
M  V30 7566 C 711.373 -0.899276 5.06377 0
M  V30 7567 N 709.355 -0.519705 6.11696 0
M  V30 7568 C 710.726 -0.333138 6.19104 0
M  V30 7569 C 712.781 -0.79697 4.9148 0
M  V30 7570 C 711.484 0.325316 7.18564 0
M  V30 7571 C 713.51 -0.152315 5.91204 0
M  V30 7572 C 712.872 0.402994 7.03246 0
M  V30 7573 H 708.971 -0.394489 0.675206 0
M  V30 7574 H 711.555 -0.40541 1.90432 0
M  V30 7575 H 709.726 -2.79905 2.69272 0
M  V30 7576 H 711.458 -2.78148 2.93966 0
M  V30 7577 H 708.213 -1.49319 4.49445 0
M  V30 7578 H 708.637 -0.187896 6.76739 0
M  V30 7579 H 713.279 -1.21208 4.05054 0
M  V30 7580 H 710.997 0.752399 8.0459 0
M  V30 7581 H 714.583 -0.074223 5.81753 0
M  V30 7582 H 713.463 0.89394 7.79088 0
M  V30 7583 N 710.966 -1.44241 -0.634997 0
M  V30 7584 C 712.194 -1.50296 -1.42193 0
M  V30 7585 C 712.609 -0.12658 -1.88375 0
M  V30 7586 O 711.966 0.86678 -1.60603 0
M  V30 7587 C 712.017 -2.46437 -2.64482 0
M  V30 7588 O 711.738 -3.78724 -2.20226 0
M  V30 7589 C 713.239 -2.61918 -3.57651 0
M  V30 7590 H 710.459 -0.509865 -0.43621 0
M  V30 7591 H 713.003 -1.89167 -0.776921 0
M  V30 7592 H 711.158 -2.10712 -3.25083 0
M  V30 7593 H 711.572 -4.30595 -2.9948 0
M  V30 7594 H 713.046 -3.33225 -4.40074 0
M  V30 7595 H 713.523 -1.67017 -4.06204 0
M  V30 7596 H 714.129 -2.98528 -3.02921 0
M  V30 7597 N 712.444 0.87505 -1.31075 0
M  V30 7598 C 713.692 1.62447 -1.20231 0
M  V30 7599 C 714.013 1.93506 0.240888 0
M  V30 7600 O 713.283 1.57847 1.16022 0
M  V30 7601 H 711.863 0.602207 -0.441991 0
M  V30 7602 H 714.525 1.04788 -1.64334 0
M  V30 7603 H 713.621 2.57031 -1.77036 0
M  V30 7604 N 713.922 1.13953 1.08869 0
M  V30 7605 C 714.855 0.765765 2.14968 0
M  V30 7606 C 715.833 -0.250689 1.60656 0
M  V30 7607 O 717.017 -0.140852 1.87973 0
M  V30 7608 C 714.144 0.136146 3.38426 0
M  V30 7609 C 713.19 1.12201 4.11477 0
M  V30 7610 S 714.023 2.65711 4.64928 0
M  V30 7611 C 715.179 2.04125 5.91679 0
M  V30 7612 H 715.412 1.66444 2.46341 0
M  V30 7613 H 712.945 0.960263 1.20906 0
M  V30 7614 H 714.903 -0.220712 4.09906 0
M  V30 7615 H 713.564 -0.739887 3.05261 0
M  V30 7616 H 712.757 0.629398 5.00055 0
M  V30 7617 H 712.359 1.42262 3.45886 0
M  V30 7618 H 714.651 1.39381 6.63008 0
M  V30 7619 H 715.594 2.90808 6.45629 0
M  V30 7620 H 716.002 1.4905 5.44467 0
M  V30 7621 N 715.4 -1.26948 0.933913 0
M  V30 7622 C 716.646 -1.94374 0.57848 0
M  V30 7623 C 716.979 -1.73166 -0.879048 0
M  V30 7624 O 716.254 -1.06438 -1.62792 0
M  V30 7625 C 716.537 -3.4834 0.912739 0
M  V30 7626 C 716.39 -3.78866 2.42448 0
M  V30 7627 C 717.709 -4.38062 0.423003 0
M  V30 7628 H 714.828 -0.705959 0.211639 0
M  V30 7629 H 717.47 -1.49951 1.16682 0
M  V30 7630 H 715.62 -3.86309 0.412058 0
M  V30 7631 H 717.292 -3.50654 2.99733 0
M  V30 7632 H 715.535 -3.25198 2.87104 0
M  V30 7633 H 716.206 -4.86458 2.60887 0
M  V30 7634 H 718.682 -4.0728 0.852191 0
M  V30 7635 H 717.558 -5.44599 0.685776 0
M  V30 7636 H 717.819 -4.36886 -0.676994 0
M  V30 7637 N 716.879 -0.700114 -1.41195 0
M  V30 7638 C 718.127 -0.232546 -2.00758 0
M  V30 7639 C 718.448 1.1734 -1.55745 0
M  V30 7640 O 717.718 1.79262 -0.790058 0
M  V30 7641 H 716.298 -0.0829845 -0.742376 0
M  V30 7642 H 718.96 -0.902289 -1.72756 0
M  V30 7643 H 718.056 -0.253521 -3.11069 0
M  V30 7644 N 718.357 1.51182 -0.445186 0
M  V30 7645 C 719.267 2.31692 0.368255 0
M  V30 7646 C 720.283 1.40942 1.02036 0
M  V30 7647 O 721.459 1.74011 1.01401 0
M  V30 7648 C 718.524 3.14903 1.45041 0
M  V30 7649 C 717.585 4.21442 0.817615 0
M  V30 7650 C 716.818 5.00677 1.8482 0
M  V30 7651 O 717.041 4.80644 3.07145 0
M  V30 7652 O 715.975 5.84559 1.43438 0
M  V30 7653 H 719.801 3.0232 -0.289219 0
M  V30 7654 H 717.386 1.47951 -0.207555 0
M  V30 7655 H 719.268 3.66612 2.07783 0
M  V30 7656 H 717.943 2.47031 2.09182 0
M  V30 7657 H 716.85 3.73791 0.151931 0
M  V30 7658 H 718.183 4.9171 0.219564 0
M  V30 7659 N 719.835 0.176821 1.56605 0
M  V30 7660 C 720.765 -0.746841 2.21234 0
M  V30 7661 C 721.746 -1.23502 1.16967 0
M  V30 7662 O 722.931 -1.28718 1.45414 0
M  V30 7663 C 720.061 -1.97407 2.8574 0
M  V30 7664 C 719.015 -1.62153 3.96094 0
M  V30 7665 C 718.341 -2.92387 4.47676 0
M  V30 7666 C 719.641 -0.845353 5.15413 0
M  V30 7667 H 721.335 -0.208116 2.98676 0
M  V30 7668 H 718.881 -0.0986594 1.43662 0
M  V30 7669 H 720.834 -2.62531 3.2963 0
M  V30 7670 H 719.558 -2.53703 2.05676 0
M  V30 7671 H 718.217 -0.993964 3.52868 0
M  V30 7672 H 717.865 -3.46734 3.64396 0
M  V30 7673 H 717.565 -2.69551 5.22127 0
M  V30 7674 H 719.089 -3.5853 4.94255 0
M  V30 7675 H 720.503 -1.39929 5.55961 0
M  V30 7676 H 718.9 -0.715814 5.95815 0
M  V30 7677 H 719.97 0.157239 4.84645 0
M  V30 7678 N 721.313 -1.57302 -0.09688 0
M  V30 7679 C 722.562 -1.85183 -0.799388 0
M  V30 7680 C 722.875 -0.765818 -1.79985 0
M  V30 7681 O 724.081 -0.931696 -2.55013 0
M  V30 7682 C 722.537 -3.28399 -1.47249 0
M  V30 7683 C 722.145 -4.45066 -0.511888 0
M  V30 7684 C 723.889 -3.65506 -2.15883 0
M  V30 7685 C 721.796 -5.79315 -1.18948 0
M  V30 7686 H 720.726 -0.690752 -0.302287 0
M  V30 7687 H 723.377 -1.83425 -0.0523104 0
M  V30 7688 H 721.759 -3.24692 -2.26697 0
M  V30 7689 H 722.933 -4.60116 0.250962 0
M  V30 7690 H 721.248 -4.16343 0.0686576 0
M  V30 7691 H 723.845 -4.63087 -2.67309 0
M  V30 7692 H 724.188 -2.94041 -2.94696 0
M  V30 7693 H 724.721 -3.71094 -1.43298 0
M  V30 7694 H 721.46 -6.54007 -0.442198 0
M  V30 7695 H 720.98 -5.68111 -1.9238 0
M  V30 7696 H 722.659 -6.23816 -1.71646 0
M  V30 7697 N 722.791 0.367657 -1.53252 0
M  V30 7698 C 723.739 1.47061 -1.8021 0
M  V30 7699 C 724.733 1.55539 -0.671112 0
M  V30 7700 O 725.939 1.58451 -0.854014 0
M  V30 7701 H 722.314 0.489868 -0.570555 0
M  V30 7702 H 724.285 1.21527 -2.72532 0
M  V30 7703 C 723.034 2.83924 -2.00706 0
M  V30 7704 H 722.357 2.78158 -2.87172 0
M  V30 7705 H 723.797 3.60281 -2.23547 0
M  V30 7706 C 722.256 3.27613 -0.785568 0
M  V30 7707 O 722.786 4.01691 0.0267459 0
M  V30 7708 N 720.992 2.84134 -0.609597 0
M  V30 7709 H 720.539 2.24017 -1.27178 0
M  V30 7710 H 720.497 3.13723 0.206281 0
M  V30 7711 N 724.269 1.44576 0.627338 0
M  V30 7712 C 725.685 1.28546 0.945938 0
M  V30 7713 C 725.885 0.224003 2.00251 0
M  V30 7714 O 724.941 -0.388817 2.49488 0
M  V30 7715 C 726.254 2.65825 1.40561 0
M  V30 7716 C 727.802 2.73566 1.52088 0
M  V30 7717 C 728.277 4.11323 2.01438 0
M  V30 7718 N 729.768 4.13519 2.08702 0
M  V30 7719 C 730.503 5.16964 2.48065 0
M  V30 7720 N 729.999 6.30768 2.86538 0
M  V30 7721 N 731.792 5.04319 2.48232 0
M  V30 7722 H 723.943 2.1228 -0.0713567 0
M  V30 7723 H 726.206 0.947503 0.0307081 0
M  V30 7724 H 725.912 3.44591 0.703539 0
M  V30 7725 H 725.786 2.92969 2.37591 0
M  V30 7726 H 728.173 1.95116 2.21391 0
M  V30 7727 H 728.254 2.50159 0.534237 0
M  V30 7728 H 727.898 4.9025 1.32729 0
M  V30 7729 H 727.828 4.32109 3.0098 0
M  V30 7730 H 730.319 3.31385 1.81638 0
M  V30 7731 H 730.632 7.0551 3.15398 0
M  V30 7732 H 728.977 6.342 2.84281 0
M  V30 7733 H 732.168 4.14465 2.17569 0
M  V30 7734 H 732.341 5.85059 2.78585 0
M  V30 7735 N 725.747 -0.868086 1.31537 0
M  V30 7736 C 726.694 -1.97548 1.19346 0
M  V30 7737 C 727.664 -1.65913 0.0787922 0
M  V30 7738 O 728.849 -1.89129 0.251985 0
M  V30 7739 C 725.989 -3.32922 0.908692 0
M  V30 7740 C 725.102 -3.77141 2.10687 0
M  V30 7741 C 724.237 -5.01241 1.75873 0
M  V30 7742 C 723.276 -5.37914 2.92088 0
M  V30 7743 N 722.413 -6.53192 2.57457 0
M  V30 7744 H 727.253 -2.07307 2.14074 0
M  V30 7745 H 724.79 -1.01483 1.06487 0
M  V30 7746 H 726.748 -4.10867 0.724138 0
M  V30 7747 H 725.378 -3.228 -0.0017611 0
M  V30 7748 H 724.43 -2.94961 2.40213 0
M  V30 7749 H 725.742 -4.00248 2.97663 0
M  V30 7750 H 724.896 -5.86858 1.53891 0
M  V30 7751 H 723.635 -4.80041 0.86091 0
M  V30 7752 H 722.64 -4.50814 3.14717 0
M  V30 7753 H 723.865 -5.61077 3.82582 0
M  V30 7754 H 721.811 -6.33536 1.702 0
M  V30 7755 H 721.728 -6.76252 3.37963 0
M  V30 7756 H 722.996 -7.41997 2.38873 0
M  V30 7757 N 727.225 -1.14528 -1.08264 0
M  V30 7758 C 728.188 -0.83632 -2.13397 0
M  V30 7759 C 729.188 0.159715 -1.60005 0
M  V30 7760 O 730.378 -0.0688098 -1.74064 0
M  V30 7761 C 727.51 -0.246973 -3.40004 0
M  V30 7762 H 728.703 -1.76808 -2.42237 0
M  V30 7763 H 726.256 -0.951509 -1.24 0
M  V30 7764 H 726.991 0.693436 -3.168 0
M  V30 7765 H 726.776 -0.964412 -3.80055 0
M  V30 7766 H 728.266 -0.0480679 -4.17572 0
M  V30 7767 N 728.703 1.26451 -0.940633 0
M  V30 7768 C 729.98 1.88947 -0.505811 0
M  V30 7769 C 730.36 1.85011 1.01657 0
M  V30 7770 O 729.708 1.30406 1.87634 0
M  V30 7771 C 729.918 3.32304 -1.06654 0
M  V30 7772 C 731.266 4.09153 -1.13486 0
M  V30 7773 O 732.29 3.41371 -1.01708 0
M  V30 7774 O 731.149 5.30369 -1.31797 0
M  V30 7775 H 728.243 0.810422 -0.164759 0
M  V30 7776 H 730.789 1.34625 -1.03316 0
M  V30 7777 H 729.561 3.29527 -2.11015 0
M  V30 7778 H 729.184 3.94164 -0.521603 0
M  V30 7779 N 730.181 0.707592 1.40822 0
M  V30 7780 C 731.111 0.0644925 2.33411 0
M  V30 7781 C 732.092 -0.754205 1.52466 0
M  V30 7782 O 733.277 -0.704749 1.80961 0
M  V30 7783 C 730.407 -0.863865 3.36385 0
M  V30 7784 C 729.361 -0.15138 4.27732 0
M  V30 7785 C 728.687 -1.19491 5.21177 0
M  V30 7786 C 729.987 0.989607 5.12839 0
M  V30 7787 H 731.681 0.837829 2.87438 0
M  V30 7788 H 729.227 0.404346 1.38207 0
M  V30 7789 H 731.18 -1.32309 4.0009 0
M  V30 7790 H 729.904 -1.66901 2.80734 0
M  V30 7791 H 728.563 0.287937 3.65467 0
M  V30 7792 H 728.211 -1.9929 4.61836 0
M  V30 7793 H 727.911 -0.723123 5.83134 0
M  V30 7794 H 729.435 -1.6544 5.8776 0
M  V30 7795 H 730.849 0.610114 5.70044 0
M  V30 7796 H 729.246 1.38926 5.83798 0
M  V30 7797 H 730.316 1.82389 4.49291 0
M  V30 7798 N 731.66 -1.50943 0.453197 0
M  V30 7799 C 732.623 -2.26684 -0.338705 0
M  V30 7800 C 733.623 -1.30748 -0.936032 0
M  V30 7801 O 734.813 -1.54327 -0.808002 0
M  V30 7802 C 731.945 -3.07063 -1.48071 0
M  V30 7803 H 733.138 -2.98131 0.325289 0
M  V30 7804 H 730.691 -1.54926 0.206771 0
M  V30 7805 H 731.426 -2.4007 -2.18029 0
M  V30 7806 H 731.211 -3.77545 -1.0584 0
M  V30 7807 H 732.701 -3.64393 -2.0398 0
M  V30 7808 N 733.138 -0.185124 -1.56509 0
M  V30 7809 C 734.384 0.456934 -1.97585 0
M  V30 7810 C 734.717 1.61957 -1.07161 0
M  V30 7811 O 733.992 1.9412 -0.121546 0
M  V30 7812 C 734.275 0.926666 -3.47973 0
M  V30 7813 C 734.128 -0.237097 -4.49175 0
M  V30 7814 C 735.447 1.79561 -4.01803 0
M  V30 7815 H 732.566 0.164619 -0.71838 0
M  V30 7816 H 735.208 -0.274039 -1.88013 0
M  V30 7817 H 733.358 1.54954 -3.56261 0
M  V30 7818 H 735.03 -0.87454 -4.52934 0
M  V30 7819 H 733.273 -0.890446 -4.24563 0
M  V30 7820 H 733.944 0.133924 -5.51838 0
M  V30 7821 H 736.42 1.27039 -3.96232 0
M  V30 7822 H 735.296 2.09327 -5.07418 0
M  V30 7823 H 735.557 2.74629 -3.46455 0
M  V30 7824 N 734.616 1.57351 0.0885366 0
M  V30 7825 C 735.579 2.01557 1.09121 0
M  V30 7826 C 736.579 0.910052 1.3257 0
M  V30 7827 O 737.769 1.17537 1.28572 0
M  V30 7828 C 734.901 2.38189 2.43883 0
M  V30 7829 H 736.094 2.91361 0.710562 0
M  V30 7830 H 733.647 1.52694 0.333779 0
M  V30 7831 H 734.382 1.5136 2.86811 0
M  V30 7832 H 734.167 3.18846 2.28209 0
M  V30 7833 H 735.657 2.73025 3.15986 0
M  V30 7834 N 736.094 -0.359525 1.53444 0
M  V30 7835 C 737.057 -1.42357 1.7963 0
M  V30 7836 C 738.057 -1.46319 0.666884 0
M  V30 7837 O 739.247 -1.46974 0.935113 0
M  V30 7838 C 736.379 -2.81425 1.92387 0
M  V30 7839 H 737.572 -1.20409 2.74666 0
M  V30 7840 H 735.125 -0.593007 1.44614 0
M  V30 7841 H 735.86 -3.08679 0.994384 0
M  V30 7842 H 735.645 -2.79947 2.74539 0
M  V30 7843 H 737.135 -3.5847 2.14218 0
M  V30 7844 N 737.572 -1.44907 -0.619662 0
M  V30 7845 C 738.819 -1.48292 -1.37898 0
M  V30 7846 C 739.147 -0.119933 -1.9413 0
M  V30 7847 O 738.402 0.879834 -1.74807 0
M  V30 7848 C 738.701 -2.50002 -2.55409 0
M  V30 7849 C 738.367 -3.95031 -2.17397 0
M  V30 7850 C 737.029 -4.34524 -2.06743 0
M  V30 7851 C 739.381 -4.86287 -1.87548 0
M  V30 7852 C 736.709 -5.63183 -1.64445 0
M  V30 7853 C 739.061 -6.15346 -1.4674 0
M  V30 7854 C 737.725 -6.53781 -1.34636 0
M  V30 7855 H 736.995 -0.542638 -0.504603 0
M  V30 7856 H 739.642 -1.78186 -0.701581 0
M  V30 7857 H 737.947 -2.13634 -3.28433 0
M  V30 7858 H 739.644 -2.49864 -3.13639 0
M  V30 7859 H 736.234 -3.63793 -2.26611 0
M  V30 7860 H 740.418 -4.56522 -1.94682 0
M  V30 7861 H 735.674 -5.91769 -1.53687 0
M  V30 7862 H 739.848 -6.85508 -1.22685 0
M  V30 7863 H 737.475 -7.53375 -1.01634 0
M  V30 7864 N 739.05 0.861098 -1.31996 0
M  V30 7865 C 740.278 1.6474 -1.25173 0
M  V30 7866 C 740.693 1.87926 0.181425 0
M  V30 7867 O 740.05 1.4437 1.1164 0
M  V30 7868 C 740.101 3.01036 -2.0015 0
M  V30 7869 O 739.822 2.7888 -3.37872 0
M  V30 7870 C 741.323 3.95481 -2.00273 0
M  V30 7871 H 738.543 0.513314 -0.432146 0
M  V30 7872 H 741.087 1.07419 -1.74016 0
M  V30 7873 H 739.242 3.55021 -1.55046 0
M  V30 7874 H 739.656 3.65514 -3.76165 0
M  V30 7875 H 741.13 4.88403 -2.57229 0
M  V30 7876 H 741.607 4.27957 -0.987407 0
M  V30 7877 H 742.213 3.47433 -2.45296 0
M  V30 7878 N 740.528 1.15101 1.07655 0
M  V30 7879 C 741.777 0.918528 1.79572 0
M  V30 7880 C 742.09 -0.555922 1.87534 0
M  V30 7881 O 743.296 -0.905893 2.55941 0
M  V30 7882 C 741.752 1.59394 3.22679 0
M  V30 7883 C 741.36 3.1052 3.22927 0
M  V30 7884 C 743.104 1.44289 3.99225 0
M  V30 7885 C 741.011 3.70862 4.60668 0
M  V30 7886 H 739.941 0.340006 0.672987 0
M  V30 7887 H 742.592 1.38079 1.20857 0
M  V30 7888 H 740.974 1.05936 3.81567 0
M  V30 7889 H 742.148 3.70708 2.737 0
M  V30 7890 H 740.463 3.25351 2.59876 0
M  V30 7891 H 743.06 1.86766 5.01022 0
M  V30 7892 H 743.403 0.389975 4.14469 0
M  V30 7893 H 743.936 1.94826 3.46825 0
M  V30 7894 H 740.675 4.7604 4.50628 0
M  V30 7895 H 740.195 3.15456 5.10145 0
M  V30 7896 H 741.874 3.71607 5.29639 0
M  V30 7897 N 742.006 -1.2595 0.947325 0
M  V30 7898 C 743.234 -1.97544 0.615127 0
M  V30 7899 C 743.649 -1.70484 -0.811221 0
M  V30 7900 O 743.006 -0.97662 -1.5417 0
M  V30 7901 C 743.057 -3.51236 0.855328 0
M  V30 7902 O 742.778 -3.77359 2.22558 0
M  V30 7903 C 744.279 -4.40066 0.534515 0
M  V30 7904 H 741.499 -0.629888 0.231263 0
M  V30 7905 H 744.043 -1.60308 1.26971 0
M  V30 7906 H 742.198 -3.8661 0.247266 0
M  V30 7907 H 742.612 -4.71857 2.29022 0
M  V30 7908 H 744.086 -5.46838 0.753168 0
M  V30 7909 H 744.563 -4.35982 -0.530701 0
M  V30 7910 H 745.169 -4.10245 1.12158 0
M  V30 7911 N 743.484 -0.715051 -1.40445 0
M  V30 7912 C 744.447 -0.0708726 -2.2909 0
M  V30 7913 C 745.447 0.687926 -1.45342 0
M  V30 7914 O 746.637 0.519908 -1.66261 0
M  V30 7915 C 743.769 0.909528 -3.28543 0
M  V30 7916 H 744.962 -0.851611 -2.87555 0
M  V30 7917 H 742.515 -0.479674 -1.48758 0
M  V30 7918 H 743.25 1.71734 -2.75096 0
M  V30 7919 H 743.035 0.368318 -3.90366 0
M  V30 7920 H 744.525 1.35744 -3.94922 0
M  V30 7921 N 744.962 1.50701 -0.461195 0
M  V30 7922 C 745.872 2.32069 0.343661 0
M  V30 7923 C 746.888 1.42016 1.00535 0
M  V30 7924 O 748.064 1.75077 0.995498 0
M  V30 7925 C 745.129 3.16424 1.41692 0
M  V30 7926 C 744.19 4.22286 0.772869 0
M  V30 7927 C 743.423 5.02609 1.79499 0
M  V30 7928 O 743.646 4.83874 3.0203 0
M  V30 7929 O 742.58 5.86047 1.3723 0
M  V30 7930 H 746.406 3.01996 -0.321268 0
M  V30 7931 H 743.991 1.47723 -0.223235 0
M  V30 7932 H 745.873 3.68795 2.03883 0
M  V30 7933 H 744.548 2.49236 2.0655 0
M  V30 7934 H 743.455 3.73931 0.112277 0
M  V30 7935 H 744.788 4.91915 0.167399 0
M  V30 7936 N 746.441 0.193421 1.56409 0
M  V30 7937 C 747.857 -0.162447 1.58771 0
M  V30 7938 C 748.057 -1.6116 1.20954 0
M  V30 7939 O 747.113 -2.3469 0.931497 0
M  V30 7940 C 748.426 0.138391 3.00381 0
M  V30 7941 C 749.974 0.0783649 3.12902 0
M  V30 7942 C 750.449 0.352491 4.56642 0
M  V30 7943 N 751.94 0.30105 4.62221 0
M  V30 7944 C 752.675 0.487028 5.71328 0
M  V30 7945 N 752.171 0.733265 6.88909 0
M  V30 7946 N 753.964 0.4214 5.60518 0
M  V30 7947 H 746.115 1.13909 1.79272 0
M  V30 7948 H 748.378 0.454528 0.83193 0
M  V30 7949 H 748.084 1.14312 3.32604 0
M  V30 7950 H 747.958 -0.559804 3.73023 0
M  V30 7951 H 750.345 -0.916963 2.80492 0
M  V30 7952 H 750.426 0.809611 2.4265 0
M  V30 7953 H 750.07 1.34513 4.89764 0
M  V30 7954 H 750 -0.399624 5.25081 0
M  V30 7955 H 752.491 0.117279 3.77718 0
M  V30 7956 H 752.804 0.86403 7.67955 0
M  V30 7957 H 751.149 0.770138 6.9072 0
M  V30 7958 H 754.34 0.229461 4.67537 0
M  V30 7959 H 754.513 0.569758 6.4549 0
M  V30 7960 N 747.919 -1.57396 -0.0801906 0
M  V30 7961 C 748.829 -2.06451 -1.11423 0
M  V30 7962 C 749.845 -0.992352 -1.42928 0
M  V30 7963 O 751.021 -1.30651 -1.53272 0
M  V30 7964 C 748.086 -2.49164 -2.41077 0
M  V30 7965 C 747.147 -3.70641 -2.16619 0
M  V30 7966 C 746.38 -4.11307 -3.40092 0
M  V30 7967 O 746.603 -3.51922 -4.48895 0
M  V30 7968 O 745.537 -5.04157 -3.288 0
M  V30 7969 H 749.363 -2.94857 -0.727519 0
M  V30 7970 H 746.948 -1.46484 -0.293743 0
M  V30 7971 H 748.83 -2.77196 -3.17396 0
M  V30 7972 H 747.505 -1.6389 -2.79145 0
M  V30 7973 H 746.412 -3.47703 -1.38033 0
M  V30 7974 H 747.745 -4.5674 -1.83437 0
M  V30 7975 N 749.397 0.351382 -1.53633 0
M  V30 7976 C 750.344 1.43115 -1.81071 0
M  V30 7977 C 751.314 1.52601 -0.655913 0
M  V30 7978 O 752.499 1.68264 -0.89955 0
M  V30 7979 C 749.639 2.79874 -2.01903 0
M  V30 7980 C 748.752 2.79242 -3.29618 0
M  V30 7981 C 747.887 4.07667 -3.40559 0
M  V30 7982 C 746.926 4.01233 -4.62254 0
M  V30 7983 N 746.063 5.21334 -4.70271 0
M  V30 7984 H 750.903 1.19017 -2.73201 0
M  V30 7985 H 748.44 0.576691 -1.35324 0
M  V30 7986 H 750.398 3.5934 -2.11969 0
M  V30 7987 H 749.028 3.0234 -1.13094 0
M  V30 7988 H 748.08 1.91927 -3.28433 0
M  V30 7989 H 749.392 2.70363 -4.19172 0
M  V30 7990 H 748.546 4.95555 -3.50015 0
M  V30 7991 H 747.285 4.19317 -2.49047 0
M  V30 7992 H 746.29 3.11732 -4.52884 0
M  V30 7993 H 747.515 3.91173 -5.55122 0
M  V30 7994 H 745.461 5.33543 -3.81665 0
M  V30 7995 H 745.378 5.14681 -5.5375 0
M  V30 7996 H 746.646 6.11014 -4.84027 0
M  V30 7997 N 750.875 1.45233 0.611969 0
M  V30 7998 C 752.121 1.49242 1.37312 0
M  V30 7999 C 752.454 0.131963 1.93751 0
M  V30 8000 O 751.729 -0.852999 1.74798 0
M  V30 8001 C 752.012 2.56811 2.52428 0
M  V30 8002 C 751.865 4.02284 2.01215 0
M  V30 8003 C 753.184 2.60705 3.54572 0
M  V30 8004 H 750.303 0.54336 0.497925 0
M  V30 8005 H 752.945 1.77019 0.690242 0
M  V30 8006 H 751.095 2.33256 3.10683 0
M  V30 8007 H 752.767 4.37035 1.47643 0
M  V30 8008 H 751.01 4.1315 1.32248 0
M  V30 8009 H 751.681 4.7323 2.84178 0
M  V30 8010 H 754.157 2.81799 3.06151 0
M  V30 8011 H 753.033 3.37841 4.32614 0
M  V30 8012 H 753.294 1.65627 4.09903 0
M  V30 8013 N 752.353 -0.854086 1.3245 0
M  V30 8014 C 753.602 -1.60318 1.22397 0
M  V30 8015 C 753.915 -1.9444 -0.212664 0
M  V30 8016 O 755.121 -2.67991 -0.435066 0
M  V30 8017 C 753.577 -2.8909 2.1437 0
M  V30 8018 C 753.185 -2.62391 3.63119 0
M  V30 8019 C 754.929 -3.67104 2.13155 0
M  V30 8020 C 752.836 -3.87167 4.47052 0
M  V30 8021 H 751.766 -0.601586 0.454544 0
M  V30 8022 H 754.417 -0.943023 1.57415 0
M  V30 8023 H 752.799 -3.56567 1.72268 0
M  V30 8024 H 753.973 -2.03222 4.13567 0
M  V30 8025 H 752.288 -1.97706 3.66471 0
M  V30 8026 H 754.885 -4.59696 2.731 0
M  V30 8027 H 755.228 -4.00876 1.12268 0
M  V30 8028 H 755.761 -3.06533 2.5354 0
M  V30 8029 H 752.5 -3.58536 5.48755 0
M  V30 8030 H 752.02 -4.45729 4.01355 0
M  V30 8031 H 753.699 -4.549 4.60081 0
M  V30 8032 N 753.831 -1.1567 -1.07043 0
M  V30 8033 C 755.108 -0.843948 -1.76456 0
M  V30 8034 C 755.488 0.659806 -2.00524 0
M  V30 8035 O 754.836 1.60518 -1.62623 0
M  V30 8036 C 755.046 -1.65822 -3.0709 0
M  V30 8037 C 756.394 -1.8664 -3.8138 0
M  V30 8038 O 757.418 -1.62624 -3.1691 0
M  V30 8039 O 756.277 -2.26884 -4.97178 0
M  V30 8040 H 753.371 -0.310677 -0.766426 0
M  V30 8041 H 755.917 -1.26266 -1.1338 0
M  V30 8042 H 754.689 -2.67902 -2.85209 0
M  V30 8043 H 754.312 -1.23605 -3.77899 0
M  V30 8044 N 755.309 1.25446 -0.953992 0
M  V30 8045 C 756.556 1.93143 -0.608429 0
M  V30 8046 C 756.884 1.74727 0.854451 0
M  V30 8047 O 756.139 1.0855 1.62836 0
M  V30 8048 C 756.438 3.45555 -0.912496 0
M  V30 8049 C 756.104 3.84126 -2.36131 0
M  V30 8050 C 754.766 3.94367 -2.75732 0
M  V30 8051 C 757.118 4.0324 -3.30223 0
M  V30 8052 C 754.446 4.21127 -4.08496 0
M  V30 8053 C 756.798 4.31493 -4.62598 0
M  V30 8054 C 755.462 4.3995 -5.01996 0
M  V30 8055 H 754.732 0.706762 -0.22264 0
M  V30 8056 H 757.379 1.49005 -1.20291 0
M  V30 8057 H 755.684 3.91091 -0.235618 0
M  V30 8058 H 757.381 3.9612 -0.623714 0
M  V30 8059 H 753.971 3.76711 -2.04418 0
M  V30 8060 H 758.155 3.94744 -3.00817 0
M  V30 8061 H 753.411 4.2589 -4.38665 0
M  V30 8062 H 757.585 4.45227 -5.35486 0
M  V30 8063 H 755.212 4.60439 -6.04896 0
M  V30 8064 N 756.787 0.722489 1.40064 0
M  V30 8065 C 758.012 0.273446 2.05589 0
M  V30 8066 C 758.437 -1.07875 1.54093 0
M  V30 8067 O 757.795 -1.68095 0.679252 0
M  V30 8068 C 757.843 0.271023 3.5958 0
M  V30 8069 O 756.947 -0.745499 4.05606 0
M  V30 8070 H 756.288 0.126856 0.65177 0
M  V30 8071 H 758.818 0.984906 1.79334 0
M  V30 8072 H 758.828 0.111084 4.07849 0
M  V30 8073 H 757.503 1.25776 3.96425 0
M  V30 8074 H 756.08 -0.552719 3.68781 0
M  V30 8075 N 758.265 -1.50454 0.469181 0
M  V30 8076 C 759.212 -2.28486 -0.325982 0
M  V30 8077 C 760.182 -1.33455 -0.988893 0
M  V30 8078 O 761.367 -1.6239 -1.0017 0
M  V30 8079 C 758.507 -3.15288 -1.40313 0
M  V30 8080 C 757.62 -4.25348 -0.755183 0
M  V30 8081 C 756.755 -4.9941 -1.81006 0
M  V30 8082 C 755.794 -6.01348 -1.14226 0
M  V30 8083 N 754.931 -6.68695 -2.1399 0
M  V30 8084 H 759.771 -2.95987 0.345753 0
M  V30 8085 H 757.308 -1.45965 0.182355 0
M  V30 8086 H 759.266 -3.63964 -2.03927 0
M  V30 8087 H 757.896 -2.49837 -2.04405 0
M  V30 8088 H 756.948 -3.80399 -0.00651901 0
M  V30 8089 H 758.26 -4.98279 -0.227941 0
M  V30 8090 H 757.414 -5.51794 -2.52206 0
M  V30 8091 H 756.153 -4.26181 -2.3711 0
M  V30 8092 H 755.158 -5.48225 -0.415876 0
M  V30 8093 H 756.383 -6.76548 -0.588135 0
M  V30 8094 H 754.329 -5.98258 -2.69115 0
M  V30 8095 H 754.246 -7.37495 -1.66246 0
M  V30 8096 H 755.514 -7.25697 -2.84576 0
M  V30 8097 N 759.743 -0.201713 -1.56304 0
M  V30 8098 C 761.154 0.309711 -1.84113 0
M  V30 8099 C 761.505 1.60912 -1.12258 0
M  V30 8100 O 760.63 2.12937 -0.385587 0
M  V30 8101 C 761.225 0.568706 -3.33993 0
M  V30 8102 C 759.784 1.02448 -3.6219 0
M  V30 8103 C 758.931 0.0766842 -2.77194 0
M  V30 8104 H 761.882 -0.425356 -1.52893 0
M  V30 8105 H 761.903 1.41721 -3.53122 0
M  V30 8106 H 761.415 -0.37719 -3.86263 0
M  V30 8107 H 759.516 1.98443 -3.15359 0
M  V30 8108 H 759.629 0.912619 -4.70328 0
M  V30 8109 H 757.993 0.579809 -2.48013 0
M  V30 8110 H 758.776 -0.863774 -3.32256 0
M  V30 8111 N 761.222 1.57436 0.0718424 0
M  V30 8112 C 762.469 1.87248 0.771007 0
M  V30 8113 C 762.797 0.793441 1.7758 0
M  V30 8114 O 762.052 -0.210565 1.94564 0
M  V30 8115 C 762.351 3.23723 1.51455 0
M  V30 8116 C 762.017 4.46194 0.649736 0
M  V30 8117 C 760.679 4.79438 0.411409 0
M  V30 8118 C 763.031 5.21176 0.05004 0
M  V30 8119 C 760.359 5.85077 -0.436096 0
M  V30 8120 C 762.711 6.27712 -0.784919 0
M  V30 8121 C 761.375 6.59457 -1.03312 0
M  V30 8122 H 760.645 0.685188 0.282132 0
M  V30 8123 H 763.292 1.91474 0.0317896 0
M  V30 8124 H 761.597 3.15287 2.32597 0
M  V30 8125 H 763.294 3.44023 2.06031 0
M  V30 8126 H 759.884 4.20175 0.84562 0
M  V30 8127 H 764.068 4.95806 0.221282 0
M  V30 8128 H 759.324 6.08071 -0.637136 0
M  V30 8129 H 763.498 6.84974 -1.25635 0
M  V30 8130 H 761.125 7.4114 -1.6916 0
M  V30 8131 N 762.7 -0.34323 1.53817 0
M  V30 8132 C 763.633 -1.44472 1.76644 0
M  V30 8133 C 764.611 -1.50498 0.615556 0
M  V30 8134 O 765.795 -1.6821 0.850751 0
M  V30 8135 C 762.922 -2.82705 1.86536 0
M  V30 8136 C 761.968 -2.94302 3.08688 0
M  V30 8137 S 762.801 -2.60739 4.67735 0
M  V30 8138 C 763.957 -4.01079 4.80506 0
M  V30 8139 H 764.19 -1.24893 2.69794 0
M  V30 8140 H 761.723 -0.538915 1.4469 0
M  V30 8141 H 763.681 -3.62342 1.92921 0
M  V30 8142 H 762.342 -2.9958 0.943975 0
M  V30 8143 H 761.535 -3.95593 3.12286 0
M  V30 8144 H 761.137 -2.22614 3.00531 0
M  V30 8145 H 763.429 -4.95603 4.61935 0
M  V30 8146 H 764.372 -4.02475 5.82597 0
M  V30 8147 H 764.78 -3.89119 4.08958 0
M  V30 8148 N 764.178 -1.45556 -0.604258 0
M  V30 8149 C 765.406 -1.53278 -1.38973 0
M  V30 8150 C 765.821 -0.166509 -1.88064 0
M  V30 8151 O 765.178 0.832519 -1.62405 0
M  V30 8152 C 765.229 -2.51992 -2.59195 0
M  V30 8153 O 764.95 -3.8331 -2.12143 0
M  V30 8154 C 766.451 -2.69445 -3.52015 0
M  V30 8155 H 763.671 -0.519003 -0.425297 0
M  V30 8156 H 766.215 -1.90773 -0.736621 0
M  V30 8157 H 764.37 -2.17561 -3.2054 0
M  V30 8158 H 764.784 -4.3685 -2.90279 0
M  V30 8159 H 766.258 -3.42485 -4.32907 0
M  V30 8160 H 766.735 -1.75596 -4.0257 0
M  V30 8161 H 767.341 -3.04886 -2.9652 0
M  V30 8162 N 765.656 0.84705 -1.32902 0
M  V30 8163 C 766.586 1.97166 -1.25091 0
M  V30 8164 C 767.567 1.69578 -0.133161 0
M  V30 8165 O 768.752 1.91519 -0.321591 0
M  V30 8166 C 765.882 3.33157 -0.981006 0
M  V30 8167 C 764.836 3.75119 -2.06082 0
M  V30 8168 C 764.162 5.08826 -1.64318 0
M  V30 8169 C 765.462 3.89774 -3.47669 0
M  V30 8170 H 767.156 2.03958 -2.19184 0
M  V30 8171 H 764.702 0.979907 -1.05517 0
M  V30 8172 H 766.655 4.11393 -0.912891 0
M  V30 8173 H 765.379 3.266 -0.00445559 0
M  V30 8174 H 764.038 2.9914 -2.11921 0
M  V30 8175 H 763.686 4.98732 -0.653876 0
M  V30 8176 H 763.386 5.37873 -2.36572 0
M  V30 8177 H 764.91 5.89546 -1.58958 0
M  V30 8178 H 766.324 4.58343 -3.44376 0
M  V30 8179 H 764.721 4.30248 -4.18338 0
M  V30 8180 H 765.791 2.92463 -3.86773 0
M  V30 8181 N 767.134 1.16236 1.06428 0
M  V30 8182 C 768.382 0.941171 1.78847 0
M  V30 8183 C 768.703 -0.53248 1.87589 0
M  V30 8184 O 767.973 -1.38686 1.38358 0
M  V30 8185 H 766.553 0.345228 0.66244 0
M  V30 8186 H 769.215 1.46479 1.28569 0
M  V30 8187 H 768.311 1.35871 2.80972 0
M  V30 8188 N 768.612 -1.24939 0.960631 0
M  V30 8189 C 769.861 -1.92118 0.614298 0
M  V30 8190 C 770.174 -1.75998 -0.853474 0
M  V30 8191 O 771.38 -2.37804 -1.31003 0
M  V30 8192 C 769.836 -3.44303 1.04801 0
M  V30 8193 C 769.444 -3.69123 2.53875 0
M  V30 8194 C 771.188 -4.17375 0.774497 0
M  V30 8195 C 769.095 -5.14843 2.91016 0
M  V30 8196 H 768.025 -0.719319 0.226045 0
M  V30 8197 H 770.676 -1.41701 1.16589 0
M  V30 8198 H 769.058 -3.93715 0.42479 0
M  V30 8199 H 770.232 -3.30339 3.21267 0
M  V30 8200 H 768.547 -3.09323 2.78762 0
M  V30 8201 H 771.144 -5.24723 1.02808 0
M  V30 8202 H 771.487 -4.15294 -0.289192 0
M  V30 8203 H 772.02 -3.7389 1.35835 0
M  V30 8204 H 768.759 -5.2204 3.96427 0
M  V30 8205 H 768.279 -5.54652 2.28302 0
M  V30 8206 H 769.958 -5.83017 2.80535 0
M  V30 8207 N 770.09 -0.729906 -1.39679 0
M  V30 8208 C 771.315 -0.284345 -2.05442 0
M  V30 8209 C 771.74 1.07056 -1.54663 0
M  V30 8210 O 771.098 1.67732 -0.688157 0
M  V30 8211 C 771.146 -0.290089 -3.59431 0
M  V30 8212 O 770.25 0.723978 -4.05995 0
M  V30 8213 H 769.591 -0.130311 -0.651088 0
M  V30 8214 H 772.121 -0.994403 -1.78809 0
M  V30 8215 H 772.131 -0.132712 -4.07784 0
M  V30 8216 H 770.806 -1.27877 -3.95753 0
M  V30 8217 H 769.383 0.533154 -3.69069 0
M  V30 8218 N 771.568 1.50203 -0.477153 0
M  V30 8219 C 772.817 2.01551 0.0774548 0
M  V30 8220 C 773.13 1.36359 1.40234 0
M  V30 8221 O 774.336 1.78898 2.04225 0
M  V30 8222 C 772.792 3.59406 0.188539 0
M  V30 8223 C 772.4 4.3356 -1.12828 0
M  V30 8224 C 774.144 4.18776 0.694782 0
M  V30 8225 C 772.051 5.83213 -0.98066 0
M  V30 8226 H 770.981 0.75329 0.0327212 0
M  V30 8227 H 773.632 1.72959 -0.612969 0
M  V30 8228 H 772.014 3.84611 0.942881 0
M  V30 8229 H 773.188 4.20074 -1.89405 0
M  V30 8230 H 771.503 3.85827 -1.5661 0
M  V30 8231 H 774.1 5.28338 0.822356 0
M  V30 8232 H 774.443 3.80557 1.68766 0
M  V30 8233 H 774.976 3.978 -0.00234519 0
M  V30 8234 H 771.715 6.25914 -1.94709 0
M  V30 8235 H 771.235 5.99256 -0.255375 0
M  V30 8236 H 772.914 6.4373 -0.649717 0
M  V30 8237 N 773.046 0.209999 1.56195 0
M  V30 8238 C 773.976 -0.699746 2.22769 0
M  V30 8239 C 774.957 -1.20993 1.1956 0
M  V30 8240 O 776.142 -1.25605 1.48112 0
M  V30 8241 C 773.272 -1.91302 2.89863 0
M  V30 8242 C 772.226 -1.53715 3.99444 0
M  V30 8243 C 771.552 -2.82826 4.53777 0
M  V30 8244 C 772.852 -0.735836 5.17091 0
M  V30 8245 H 774.546 -0.144716 2.9905 0
M  V30 8246 H 772.092 -0.0681645 1.43839 0
M  V30 8247 H 774.045 -2.5548 3.35124 0
M  V30 8248 H 772.769 -2.49283 2.11011 0
M  V30 8249 H 771.428 -0.918892 3.54897 0
M  V30 8250 H 771.076 -3.38927 3.71669 0
M  V30 8251 H 770.776 -2.58415 5.27727 0
M  V30 8252 H 772.3 -3.47966 5.01749 0
M  V30 8253 H 773.714 -1.28105 5.58804 0
M  V30 8254 H 772.111 -0.589272 5.972 0
M  V30 8255 H 773.181 0.260004 4.84202 0
M  V30 8256 N 774.524 -1.57472 -0.0634922 0
M  V30 8257 C 775.754 -1.91608 -0.772645 0
M  V30 8258 C 776.162 -0.805019 -1.71219 0
M  V30 8259 O 775.505 0.229941 -1.82255 0
M  V30 8260 C 775.567 -3.21281 -1.61304 0
M  V30 8261 C 775.231 -4.49177 -0.841973 0
M  V30 8262 C 776.228 -5.19661 -0.157494 0
M  V30 8263 C 773.913 -4.9578 -0.80669 0
M  V30 8264 C 775.907 -6.35006 0.551948 0
M  V30 8265 C 773.594 -6.11028 -0.0934812 0
M  V30 8266 C 774.592 -6.80493 0.58463 0
M  V30 8267 O 774.28 -7.93542 1.28633 0
M  V30 8268 H 774.012 -0.637685 -0.224352 0
M  V30 8269 H 776.566 -2.05369 -0.0355279 0
M  V30 8270 H 774.796 -3.03752 -2.39315 0
M  V30 8271 H 776.485 -3.41003 -2.20162 0
M  V30 8272 H 777.251 -4.84681 -0.176006 0
M  V30 8273 H 773.13 -4.41579 -1.32397 0
M  V30 8274 H 776.674 -6.89161 1.0818 0
M  V30 8275 H 772.571 -6.45459 -0.0729258 0
M  V30 8276 H 773.339 -8.09708 1.19646 0
M  V30 8277 N 776.003 0.335068 -1.53997 0
M  V30 8278 C 777.419 0.678704 -1.4445 0
M  V30 8279 C 777.619 1.92106 -0.608078 0
M  V30 8280 O 776.675 2.52292 -0.102373 0
M  V30 8281 C 777.988 0.863435 -2.88037 0
M  V30 8282 C 779.536 0.961513 -2.97866 0
M  V30 8283 C 780.011 1.1785 -4.42578 0
M  V30 8284 N 781.502 1.2455 -4.46141 0
M  V30 8285 C 782.237 1.43106 -5.55255 0
M  V30 8286 N 781.733 1.5878 -6.74359 0
M  V30 8287 N 783.526 1.45722 -5.42883 0
M  V30 8288 H 775.677 -0.481656 -2.06867 0
M  V30 8289 H 777.94 -0.153615 -0.935471 0
M  V30 8290 H 777.646 0.0219511 -3.51693 0
M  V30 8291 H 777.52 1.76268 -3.33481 0
M  V30 8292 H 779.907 1.79351 -2.34344 0
M  V30 8293 H 779.988 0.0389862 -2.5577 0
M  V30 8294 H 779.632 0.351397 -5.06683 0
M  V30 8295 H 779.562 2.11472 -4.82273 0
M  V30 8296 H 782.053 1.13928 -3.60318 0
M  V30 8297 H 782.366 1.72599 -7.53279 0
M  V30 8298 H 780.711 1.559 -6.77289 0
M  V30 8299 H 783.902 1.33065 -4.48789 0
M  V30 8300 H 784.075 1.59841 -6.27977 0
M  V30 8301 N 777.481 1.45874 0.596531 0
M  V30 8302 C 778.727 1.5069 1.35722 0
M  V30 8303 C 779.06 0.152506 1.936 0
M  V30 8304 O 778.335 -0.834411 1.75692 0
M  V30 8305 C 778.618 2.59474 2.4969 0
M  V30 8306 C 778.471 4.04396 1.96937 0
M  V30 8307 C 779.79 2.64451 3.51787 0
M  V30 8308 H 776.909 0.548611 0.492133 0
M  V30 8309 H 779.551 1.77741 0.671428 0
M  V30 8310 H 777.701 2.36539 3.08191 0
M  V30 8311 H 779.373 4.38576 1.43 0
M  V30 8312 H 777.616 4.14529 1.27859 0
M  V30 8313 H 778.287 4.76218 2.79143 0
M  V30 8314 H 780.763 2.85031 3.03145 0
M  V30 8315 H 779.639 3.42411 4.29006 0
M  V30 8316 H 779.9 1.69965 4.08123 0
M  V30 8317 N 778.959 -0.83999 1.33349 0
M  V30 8318 C 779.909 -1.93817 1.20079 0
M  V30 8319 C 780.893 -1.60564 0.103978 0
M  V30 8320 O 782.085 -1.73859 0.331964 0
M  V30 8321 C 779.214 -3.30151 0.941031 0
M  V30 8322 C 778.3 -3.69577 2.08023 0
M  V30 8323 N 778.691 -3.80707 3.3301 0
M  V30 8324 C 776.989 -3.99309 1.98667 0
M  V30 8325 C 777.69 -4.14899 4.07717 0
M  V30 8326 N 776.666 -4.27208 3.36146 0
M  V30 8327 H 780.468 -2.00576 2.14817 0
M  V30 8328 H 777.982 -1.03264 1.2534 0
M  V30 8329 H 779.979 -4.08617 0.826894 0
M  V30 8330 H 778.639 -3.247 0.00216738 0
M  V30 8331 H 779.65 -3.64644 3.67771 0
M  V30 8332 H 776.327 -4.02076 1.12433 0
M  V30 8333 H 777.717 -4.30857 5.15569 0
M  V30 8334 N 780.437 -1.16799 -1.0581 0
M  V30 8335 C 781.37 -0.822491 -2.12862 0
M  V30 8336 C 782.348 0.208006 -1.61264 0
M  V30 8337 O 783.532 0.0909652 -1.8828 0
M  V30 8338 C 780.659 -0.225826 -3.37946 0
M  V30 8339 C 779.705 -1.23071 -4.08357 0
M  V30 8340 S 780.538 -2.77944 -4.5772 0
M  V30 8341 C 781.694 -2.19741 -5.86059 0
M  V30 8342 H 781.927 -1.72917 -2.41841 0
M  V30 8343 H 779.46 -0.991982 -1.18318 0
M  V30 8344 H 781.418 0.111955 -4.10347 0
M  V30 8345 H 780.079 0.658692 -3.07116 0
M  V30 8346 H 779.272 -0.761758 -4.9821 0
M  V30 8347 H 778.874 -1.51383 -3.41993 0
M  V30 8348 H 781.166 -1.5691 -6.59079 0
M  V30 8349 H 782.109 -3.07823 -6.37692 0
M  V30 8350 H 782.517 -1.63433 -5.40324 0
M  V30 8351 N 781.915 1.24427 -0.967243 0
M  V30 8352 C 783.163 1.92107 -0.627638 0
M  V30 8353 C 783.484 1.75991 0.83978 0
M  V30 8354 O 782.754 1.13118 1.59941 0
M  V30 8355 H 781.334 0.710986 -0.229145 0
M  V30 8356 H 783.996 1.51331 -1.22821 0
M  V30 8357 H 783.092 2.99791 -0.867844 0
M  V30 8358 N 783.393 0.737304 1.3929 0
M  V30 8359 C 784.809 0.413132 1.5416 0
M  V30 8360 C 785.009 -1.07574 1.70382 0
M  V30 8361 O 784.065 -1.86185 1.70562 0
M  V30 8362 C 785.378 1.19817 2.75798 0
M  V30 8363 C 786.926 1.18662 2.89635 0
M  V30 8364 C 787.401 1.95427 4.14213 0
M  V30 8365 N 788.892 1.92605 4.21257 0
M  V30 8366 C 789.627 2.48808 5.16606 0
M  V30 8367 N 789.123 3.13659 6.1773 0
M  V30 8368 N 790.916 2.38829 5.08839 0
M  V30 8369 H 783.067 1.70243 1.27008 0
M  V30 8370 H 785.33 0.720802 0.61575 0
M  V30 8371 H 785.036 2.25179 2.70161 0
M  V30 8372 H 784.91 0.804144 3.68529 0
M  V30 8373 H 787.297 0.141112 2.94762 0
M  V30 8374 H 787.378 1.62003 1.97961 0
M  V30 8375 H 787.022 2.9998 4.09847 0
M  V30 8376 H 786.952 1.4949 5.04936 0
M  V30 8377 H 789.443 1.45362 3.48824 0
M  V30 8378 H 789.756 3.54006 6.8695 0
M  V30 8379 H 788.101 3.17749 6.1811 0
M  V30 8380 H 791.292 1.87806 4.28773 0
M  V30 8381 H 791.465 2.82929 5.82971 0
M  V30 8382 N 784.871 -1.49948 0.485112 0
M  V30 8383 C 785.818 -2.28819 -0.301729 0
M  V30 8384 C 786.788 -1.34496 -0.974683 0
M  V30 8385 O 787.973 -1.63444 -0.984418 0
M  V30 8386 C 785.113 -3.16758 -1.36961 0
M  V30 8387 C 784.226 -4.26125 -0.710027 0
M  V30 8388 C 783.361 -5.01302 -1.75699 0
M  V30 8389 C 782.4 -6.02525 -1.07841 0
M  V30 8390 N 781.537 -6.70927 -2.06886 0
M  V30 8391 H 786.377 -2.95604 0.377127 0
M  V30 8392 H 783.914 -1.45764 0.197826 0
M  V30 8393 H 785.872 -3.66106 -2.00056 0
M  V30 8394 H 784.502 -2.51991 -2.01744 0
M  V30 8395 H 783.554 -3.80385 0.0338278 0
M  V30 8396 H 784.866 -4.98493 -0.175079 0
M  V30 8397 H 784.02 -5.54438 -2.46339 0
M  V30 8398 H 782.759 -4.28672 -2.32577 0
M  V30 8399 H 781.764 -5.48635 -0.357706 0
M  V30 8400 H 782.989 -6.77134 -0.516345 0
M  V30 8401 H 780.935 -6.01079 -2.62755 0
M  V30 8402 H 780.852 -7.39216 -1.58414 0
M  V30 8403 H 782.12 -7.28675 -2.76863 0
M  V30 8404 N 786.349 -0.21828 -1.56081 0
M  V30 8405 C 787.76 0.290166 -1.84431 0
M  V30 8406 C 788.111 1.59712 -1.13958 0
M  V30 8407 O 787.236 2.12516 -0.40815 0
M  V30 8408 C 787.831 0.53325 -3.34577 0
M  V30 8409 C 786.39 0.986011 -3.63256 0
M  V30 8410 C 785.537 0.0472798 -2.7726 0
M  V30 8411 H 788.488 -0.441548 -1.52434 0
M  V30 8412 H 788.509 1.37967 -3.54606 0
M  V30 8413 H 788.021 -0.418137 -3.85841 0
M  V30 8414 H 786.122 1.95087 -3.17446 0
M  V30 8415 H 786.235 0.862684 -4.71269 0
M  V30 8416 H 784.599 0.553471 -2.48614 0
M  V30 8417 H 785.382 -0.898966 -3.31321 0
M  V30 8418 N 787.827 1.57504 0.0551401 0
M  V30 8419 C 789.075 1.87684 0.74962 0
M  V30 8420 C 789.396 0.812547 1.77264 0
M  V30 8421 O 788.666 -0.15694 1.9527 0
M  V30 8422 H 787.246 0.6926 0.279846 0
M  V30 8423 H 789.908 1.94881 0.0272745 0
M  V30 8424 H 789.004 2.85734 1.25548 0
M  V30 8425 N 789.305 -0.326896 1.54172 0
M  V30 8426 C 790.535 -1.08328 1.75922 0
M  V30 8427 C 790.943 -1.82302 0.50622 0
M  V30 8428 O 790.286 -1.7581 -0.532581 0
M  V30 8429 C 790.348 -2.1294 2.8965 0
M  V30 8430 C 790.012 -1.58394 4.28673 0
M  V30 8431 C 791.009 -1.02747 5.09646 0
M  V30 8432 C 788.694 -1.62737 4.75207 0
M  V30 8433 C 790.688 -0.52169 6.35261 0
M  V30 8434 C 788.375 -1.11772 6.00791 0
M  V30 8435 C 789.373 -0.565819 6.80652 0
M  V30 8436 O 789.061 -0.0638146 8.03875 0
M  V30 8437 H 788.793 -0.3282 0.590983 0
M  V30 8438 H 791.347 -0.37972 2.0186 0
M  V30 8439 H 789.577 -2.86903 2.59275 0
M  V30 8440 H 791.266 -2.74274 2.99213 0
M  V30 8441 H 792.032 -0.987007 4.74851 0
M  V30 8442 H 787.911 -2.04635 4.13093 0
M  V30 8443 H 791.455 -0.0902544 6.97542 0
M  V30 8444 H 787.352 -1.15524 6.35078 0
M  V30 8445 H 788.12 -0.17955 8.18303 0
M  V30 8446 N 790.784 -1.46188 -0.588786 0
M  V30 8447 C 792.031 -1.51184 -1.34721 0
M  V30 8448 C 792.359 -0.161084 -1.93832 0
M  V30 8449 O 791.614 0.842557 -1.76634 0
M  V30 8450 C 791.913 -2.55364 -2.50048 0
M  V30 8451 C 791.579 -3.99553 -2.08969 0
M  V30 8452 C 790.241 -4.38811 -1.9748 0
M  V30 8453 C 792.593 -4.90156 -1.77191 0
M  V30 8454 C 789.921 -5.66544 -1.52463 0
M  V30 8455 C 792.273 -6.1832 -1.33654 0
M  V30 8456 C 790.937 -6.5649 -1.20738 0
M  V30 8457 H 790.207 -0.55322 -0.49298 0
M  V30 8458 H 792.854 -1.79634 -0.663627 0
M  V30 8459 H 791.159 -2.20552 -3.23827 0
M  V30 8460 H 792.856 -2.5646 -3.08268 0
M  V30 8461 H 789.446 -3.68518 -2.18843 0
M  V30 8462 H 793.63 -4.60549 -1.84955 0
M  V30 8463 H 788.886 -5.94895 -1.411 0
M  V30 8464 H 793.06 -6.87956 -1.08117 0
M  V30 8465 H 790.687 -7.55362 -0.856307 0
M  V30 8466 N 792.262 0.832906 -1.33792 0
M  V30 8467 C 793.487 1.62568 -1.28788 0
M  V30 8468 C 793.912 1.87599 0.137246 0
M  V30 8469 O 793.27 1.44436 1.0958 0
M  V30 8470 C 793.318 2.9495 -2.07453 0
M  V30 8471 O 792.422 3.86546 -1.43722 0
M  V30 8472 H 791.763 0.494809 -0.442787 0
M  V30 8473 H 794.293 1.03578 -1.76445 0
M  V30 8474 H 794.303 3.44599 -2.1844 0
M  V30 8475 H 792.978 2.76055 -3.11073 0
M  V30 8476 H 791.555 3.45044 -1.41417 0
M  V30 8477 N 793.74 1.17359 1.05189 0
M  V30 8478 C 794.987 0.961987 1.78191 0
M  V30 8479 C 795.315 -0.509363 1.87712 0
M  V30 8480 O 794.57 -1.39425 1.37329 0
M  V30 8481 C 794.869 1.54821 3.22126 0
M  V30 8482 C 794.535 3.04378 3.32663 0
M  V30 8483 C 793.197 3.45201 3.35246 0
M  V30 8484 C 795.549 4.00387 3.33677 0
M  V30 8485 C 792.877 4.80629 3.36471 0
M  V30 8486 C 795.229 5.35715 3.36441 0
M  V30 8487 C 793.893 5.76002 3.37311 0
M  V30 8488 H 793.163 0.352016 0.652047 0
M  V30 8489 H 795.81 1.46249 1.23627 0
M  V30 8490 H 794.115 0.969432 3.79617 0
M  V30 8491 H 795.812 1.36004 3.77232 0
M  V30 8492 H 792.402 2.71836 3.31366 0
M  V30 8493 H 796.586 3.69906 3.30882 0
M  V30 8494 H 791.842 5.11155 3.35455 0
M  V30 8495 H 796.016 6.09886 3.36173 0
M  V30 8496 H 793.643 6.80919 3.38013 0
M  V30 8497 N 795.218 -1.23913 0.973828 0
M  V30 8498 C 796.148 -2.27453 0.527969 0
M  V30 8499 C 797.129 -1.6443 -0.435513 0
M  V30 8500 O 798.314 -1.9137 -0.330306 0
M  V30 8501 C 795.444 -3.4685 -0.176757 0
M  V30 8502 C 794.398 -4.22181 0.703352 0
M  V30 8503 C 793.724 -5.34534 -0.133215 0
M  V30 8504 C 795.024 -4.82865 1.99096 0
M  V30 8505 H 796.718 -2.65 1.3934 0
M  V30 8506 H 794.264 -1.27388 0.671446 0
M  V30 8507 H 796.217 -4.18424 -0.499934 0
M  V30 8508 H 794.941 -3.08346 -1.07659 0
M  V30 8509 H 793.6 -3.52416 1.00989 0
M  V30 8510 H 793.248 -4.92271 -1.03338 0
M  V30 8511 H 792.948 -5.85855 0.452494 0
M  V30 8512 H 794.472 -6.08933 -0.450924 0
M  V30 8513 H 795.886 -5.46481 1.73297 0
M  V30 8514 H 794.283 -5.44444 2.52389 0
M  V30 8515 H 795.353 -4.03977 2.68199 0
M  V30 8516 N 796.696 -0.74468 -1.38897 0
M  V30 8517 C 797.973 -0.222773 -1.94327 0
M  V30 8518 C 798.353 1.27731 -1.68071 0
M  V30 8519 O 797.701 2.04754 -1.01429 0
M  V30 8520 C 797.911 -0.566836 -3.44366 0
M  V30 8521 C 799.259 -0.521531 -4.21385 0
M  V30 8522 O 800.283 -0.504599 -3.52608 0
M  V30 8523 O 799.142 -0.524595 -5.43976 0
M  V30 8524 H 796.236 -0.0439259 -0.825833 0
M  V30 8525 H 798.782 -0.824197 -1.48341 0
M  V30 8526 H 797.554 -1.60321 -3.56949 0
M  V30 8527 H 797.177 0.0630577 -3.9755 0
M  V30 8528 N 798.174 1.49689 -0.493057 0
M  V30 8529 C 799.585 1.8665 -0.0433032 0
M  V30 8530 C 799.936 1.40607 1.36836 0
M  V30 8531 O 799.061 0.780503 2.01834 0
M  V30 8532 C 799.656 3.38724 -0.0718069 0
M  V30 8533 C 798.215 3.75015 0.32257 0
M  V30 8534 C 797.362 2.7366 -0.4478 0
M  V30 8535 H 800.313 1.42119 -0.706246 0
M  V30 8536 H 800.334 3.73522 0.725347 0
M  V30 8537 H 799.846 3.72204 -1.09935 0
M  V30 8538 H 797.947 3.47142 1.35364 0
M  V30 8539 H 798.06 4.79099 0.00864259 0
M  V30 8540 H 796.424 2.54498 0.101354 0
M  V30 8541 H 797.207 3.09985 -1.47527 0
M  V30 8542 N 799.652 0.226554 1.55963 0
M  V30 8543 C 800.899 -0.403789 1.98433 0
M  V30 8544 C 801.227 -1.59416 1.1143 0
M  V30 8545 O 800.482 -1.95042 0.160389 0
M  V30 8546 C 800.781 -0.87642 3.46488 0
M  V30 8547 C 800.447 0.203973 4.50438 0
M  V30 8548 C 799.109 0.500754 4.78587 0
M  V30 8549 C 801.461 0.934396 5.12756 0
M  V30 8550 C 798.789 1.53239 5.66334 0
M  V30 8551 C 801.141 1.9554 6.0162 0
M  V30 8552 C 799.805 2.25905 6.28111 0
M  V30 8553 H 799.075 -0.147757 0.726119 0
M  V30 8554 H 801.722 0.330121 1.88633 0
M  V30 8555 H 800.027 -1.68918 3.53517 0
M  V30 8556 H 801.724 -1.37407 3.76723 0
M  V30 8557 H 798.314 -0.0374917 4.28584 0
M  V30 8558 H 802.498 0.718355 4.91074 0
M  V30 8559 H 797.754 1.77321 5.85122 0
M  V30 8560 H 801.928 2.52642 6.48957 0
M  V30 8561 H 799.555 3.05985 6.959 0
M  V30 8562 N 801.13 -1.57531 -0.0467866 0
M  V30 8563 C 802.355 -1.93087 -0.757123 0
M  V30 8564 C 802.78 -0.825116 -1.69037 0
M  V30 8565 O 802.138 0.220449 -1.79955 0
M  V30 8566 C 802.186 -3.27669 -1.5055 0
M  V30 8567 O 801.29 -3.18667 -2.61773 0
M  V30 8568 H 800.631 -0.631597 -0.204892 0
M  V30 8569 H 803.161 -2.04599 -0.00755232 0
M  V30 8570 H 803.171 -3.6214 -1.87932 0
M  V30 8571 H 801.846 -4.07717 -0.820931 0
M  V30 8572 H 800.423 -2.95798 -2.27064 0
M  V30 8573 N 802.608 0.318715 -1.54344 0
M  V30 8574 C 804.019 0.89285 -1.63967 0
M  V30 8575 C 804.37 1.88712 -0.536855 0
M  V30 8576 O 803.495 2.13877 0.329457 0
M  V30 8577 C 804.09 1.62618 -2.97222 0
M  V30 8578 C 802.649 2.14897 -3.09025 0
M  V30 8579 C 801.796 0.975909 -2.5956 0
M  V30 8580 H 804.747 0.0961687 -1.58408 0
M  V30 8581 H 804.768 2.4907 -2.87653 0
M  V30 8582 H 804.28 0.902286 -3.77466 0
M  V30 8583 H 802.381 2.90387 -2.33465 0
M  V30 8584 H 802.494 2.39565 -4.14904 0
M  V30 8585 H 800.858 1.35646 -2.15574 0
M  V30 8586 H 801.641 0.266253 -3.42266 0
M  V30 8587 N 804.086 1.46499 0.581025 0
M  V30 8588 C 805.049 1.5677 1.672 0
M  V30 8589 C 806.049 0.444716 1.54528 0
M  V30 8590 O 807.239 0.709074 1.59116 0
M  V30 8591 C 804.371 1.4896 3.06633 0
M  V30 8592 H 805.564 2.54 1.5945 0
M  V30 8593 H 803.117 1.34334 0.799003 0
M  V30 8594 H 803.852 0.530168 3.19937 0
M  V30 8595 H 803.637 2.30439 3.17239 0
M  V30 8596 H 805.127 1.59237 3.86048 0
M  V30 8597 N 805.565 -0.825799 1.34232 0
M  V30 8598 C 806.811 -1.58419 1.26614 0
M  V30 8599 C 807.144 -1.93503 -0.164341 0
M  V30 8600 O 806.419 -1.59785 -1.109 0
M  V30 8601 C 806.702 -2.8856 2.15418 0
M  V30 8602 C 806.555 -2.60075 3.66989 0
M  V30 8603 C 807.874 -3.90107 2.03726 0
M  V30 8604 H 804.993 -0.574794 0.461282 0
M  V30 8605 H 807.635 -0.951519 1.64457 0
M  V30 8606 H 805.785 -3.42553 1.83275 0
M  V30 8607 H 807.457 -2.12414 4.09485 0
M  V30 8608 H 805.7 -1.93565 3.88221 0
M  V30 8609 H 806.371 -3.52866 4.24488 0
M  V30 8610 H 808.847 -3.45459 2.31942 0
M  V30 8611 H 807.723 -4.78976 2.68092 0
M  V30 8612 H 807.984 -4.30329 1.01337 0
M  V30 8613 N 807.043 -1.17915 -1.04565 0
M  V30 8614 C 808.289 -0.982872 -1.78076 0
M  V30 8615 C 808.644 0.482843 -1.86243 0
M  V30 8616 O 807.937 1.35383 -1.3558 0
M  V30 8617 C 808.131 -1.56528 -3.213 0
M  V30 8618 C 807.96 -3.0861 -3.27093 0
M  V30 8619 C 806.73 -3.77389 -3.36014 0
M  V30 8620 C 808.928 -4.06146 -3.15515 0
M  V30 8621 N 806.91 -5.1702 -3.31004 0
M  V30 8622 C 808.281 -5.32268 -3.17948 0
M  V30 8623 C 810.336 -3.97732 -2.99522 0
M  V30 8624 C 809.039 -6.50951 -3.06031 0
M  V30 8625 C 811.065 -5.16007 -2.88948 0
M  V30 8626 C 810.427 -6.41018 -2.9202 0
M  V30 8627 H 806.526 -0.413617 -0.66366 0
M  V30 8628 H 809.11 -1.49607 -1.24603 0
M  V30 8629 H 807.281 -1.07833 -3.73131 0
M  V30 8630 H 809.013 -1.30501 -3.83082 0
M  V30 8631 H 805.768 -3.28098 -3.41538 0
M  V30 8632 H 806.192 -5.90031 -3.31952 0
M  V30 8633 H 810.834 -3.01919 -2.95981 0
M  V30 8634 H 808.552 -7.46968 -3.08326 0
M  V30 8635 H 812.138 -5.11283 -2.77635 0
M  V30 8636 H 811.018 -7.30999 -2.83919 0
M  V30 8637 N 808.521 1.23394 -0.980386 0
M  V30 8638 C 809.451 2.2717 -0.540024 0
M  V30 8639 C 810.432 1.64659 0.426787 0
M  V30 8640 O 811.617 1.91543 0.320153 0
M  V30 8641 C 808.747 3.46939 0.15836 0
M  V30 8642 C 807.701 4.21802 -0.725732 0
M  V30 8643 C 807.027 5.34597 0.104866 0
M  V30 8644 C 808.327 4.81802 -2.01654 0
M  V30 8645 H 810.021 2.64257 -1.40743 0
M  V30 8646 H 807.567 1.2703 -0.678193 0
M  V30 8647 H 809.52 4.18683 0.477737 0
M  V30 8648 H 808.244 3.08912 1.06022 0
M  V30 8649 H 806.903 3.51875 -1.02857 0
M  V30 8650 H 806.551 4.92812 1.00726 0
M  V30 8651 H 806.251 5.85607 -0.483557 0
M  V30 8652 H 807.775 6.09163 0.418624 0
M  V30 8653 H 809.189 5.45554 -1.76193 0
M  V30 8654 H 807.586 5.43098 -2.55273 0
M  V30 8655 H 808.656 4.02549 -2.70338 0
M  V30 8656 N 809.999 0.752036 1.385 0
M  V30 8657 C 811.246 0.307503 2.00152 0
M  V30 8658 C 811.574 -1.11033 1.59693 0
M  V30 8659 O 810.829 -1.77455 0.825125 0
M  V30 8660 C 811.128 0.376155 3.55415 0
M  V30 8661 C 810.794 1.74942 4.15579 0
M  V30 8662 C 809.456 2.12525 4.31725 0
M  V30 8663 C 811.808 2.65031 4.48785 0
M  V30 8664 C 809.136 3.39671 4.78373 0
M  V30 8665 C 811.488 3.91567 4.96848 0
M  V30 8666 C 810.152 4.2922 5.11201 0
M  V30 8667 H 809.422 0.112523 0.732407 0
M  V30 8668 H 812.069 0.962213 1.65571 0
M  V30 8669 H 810.374 -0.362121 3.90123 0
M  V30 8670 H 812.071 0.0138065 4.00998 0
M  V30 8671 H 808.661 1.44726 4.03426 0
M  V30 8672 H 812.845 2.3726 4.35914 0
M  V30 8673 H 808.101 3.68765 4.8767 0
M  V30 8674 H 812.275 4.61517 5.21512 0
M  V30 8675 H 809.902 5.27805 5.47107 0
M  V30 8676 N 811.477 -1.49425 0.500989 0
M  V30 8677 C 812.41 -2.25887 -0.324087 0
M  V30 8678 C 813.388 -1.30469 -0.970388 0
M  V30 8679 O 814.572 -1.59758 -1.00049 0
M  V30 8680 C 811.699 -3.05787 -1.45643 0
M  V30 8681 C 810.745 -4.16359 -0.924508 0
M  V30 8682 S 811.578 -5.35181 0.184707 0
M  V30 8683 C 812.734 -6.18636 -0.950806 0
M  V30 8684 H 812.967 -2.95519 0.324891 0
M  V30 8685 H 810.5 -1.51723 0.286289 0
M  V30 8686 H 812.458 -3.52405 -2.10525 0
M  V30 8687 H 811.119 -2.35624 -2.07703 0
M  V30 8688 H 810.312 -4.71781 -1.77311 0
M  V30 8689 H 809.914 -3.72331 -0.352907 0
M  V30 8690 H 812.206 -6.51581 -1.85603 0
M  V30 8691 H 813.149 -7.06761 -0.435212 0
M  V30 8692 H 813.557 -5.512 -1.21813 0
M  V30 8693 N 812.955 -0.234822 -1.55841 0
M  V30 8694 C 813.885 0.664217 -2.23854 0
M  V30 8695 C 814.866 1.19076 -1.2147 0
M  V30 8696 O 816.051 1.23232 -1.50091 0
M  V30 8697 C 813.181 1.86666 -2.9287 0
M  V30 8698 C 812.135 1.47341 -4.01839 0
M  V30 8699 C 811.461 2.75571 -4.58219 0
M  V30 8700 C 812.761 0.653479 -5.18196 0
M  V30 8701 H 814.455 0.0971213 -2.99242 0
M  V30 8702 H 812.001 0.0452724 -1.43929 0
M  V30 8703 H 813.954 2.50116 -3.39146 0
M  V30 8704 H 812.678 2.45894 -2.1495 0
M  V30 8705 H 811.337 0.862314 -3.56314 0
M  V30 8706 H 810.985 3.32971 -3.77014 0
M  V30 8707 H 810.685 2.49987 -5.31771 0
M  V30 8708 H 812.209 3.39939 -5.07221 0
M  V30 8709 H 813.623 1.19198 -5.60771 0
M  V30 8710 H 812.02 0.494188 -5.98062 0
M  V30 8711 H 813.09 -0.337004 -4.83728 0
M  V30 8712 N 814.433 1.57553 0.0384317 0
M  V30 8713 C 815.363 2.0898 1.04161 0
M  V30 8714 C 816.344 0.99029 1.38301 0
M  V30 8715 O 817.529 1.26499 1.47349 0
M  V30 8716 C 814.659 2.56145 2.34536 0
M  V30 8717 C 813.613 3.70275 2.14663 0
M  V30 8718 C 812.939 4.03612 3.50715 0
M  V30 8719 C 814.239 4.99067 1.54045 0
M  V30 8720 H 815.933 2.93046 0.613548 0
M  V30 8721 H 813.479 1.40973 0.293684 0
M  V30 8722 H 815.432 2.90741 3.05037 0
M  V30 8723 H 814.156 1.6915 2.79385 0
M  V30 8724 H 812.815 3.36013 1.46597 0
M  V30 8725 H 812.463 3.13698 3.93195 0
M  V30 8726 H 812.163 4.80482 3.38247 0
M  V30 8727 H 813.687 4.40735 4.22593 0
M  V30 8728 H 815.101 5.3168 2.14451 0
M  V30 8729 H 813.498 5.80484 1.52178 0
M  V30 8730 H 814.568 4.8226 0.505259 0
M  V30 8731 N 815.911 -0.310526 1.54511 0
M  V30 8732 C 816.874 -1.3657 1.84068 0
M  V30 8733 C 817.874 -1.44123 0.713097 0
M  V30 8734 O 819.064 -1.43924 0.981399 0
M  V30 8735 C 816.196 -2.75162 2.01243 0
M  V30 8736 H 817.389 -1.1161 2.78358 0
M  V30 8737 H 814.942 -0.546699 1.46427 0
M  V30 8738 H 815.677 -3.05359 1.09208 0
M  V30 8739 H 815.462 -2.71071 2.83307 0
M  V30 8740 H 816.952 -3.51473 2.25514 0
M  V30 8741 N 817.389 -1.46805 -0.573248 0
M  V30 8742 C 818.619 -1.55965 -1.35494 0
M  V30 8743 C 819.027 -0.203038 -1.88107 0
M  V30 8744 O 818.37 0.81138 -1.6481 0
M  V30 8745 C 818.432 -2.51168 -2.57206 0
M  V30 8746 C 818.096 -3.97211 -2.25993 0
M  V30 8747 C 819.093 -4.86155 -1.84254 0
M  V30 8748 C 816.778 -4.42419 -2.37846 0
M  V30 8749 C 818.772 -6.18323 -1.54776 0
M  V30 8750 C 816.459 -5.74619 -2.0798 0
M  V30 8751 C 817.457 -6.62392 -1.66511 0
M  V30 8752 O 817.145 -7.92137 -1.37016 0
M  V30 8753 H 816.877 -0.529748 -0.419932 0
M  V30 8754 H 819.431 -1.92998 -0.702914 0
M  V30 8755 H 817.661 -2.09171 -3.25245 0
M  V30 8756 H 819.35 -2.50631 -3.19279 0
M  V30 8757 H 820.116 -4.52481 -1.74603 0
M  V30 8758 H 815.995 -3.74319 -2.69085 0
M  V30 8759 H 819.539 -6.8679 -1.22334 0
M  V30 8760 H 815.436 -6.0784 -2.17258 0
M  V30 8761 H 816.204 -8.04492 -1.50782 0
M  V30 8762 N 818.867 0.818669 -1.34668 0
M  V30 8763 C 819.797 1.94468 -1.29245 0
M  V30 8764 C 820.778 1.69257 -0.169101 0
M  V30 8765 O 821.963 1.90794 -0.362143 0
M  V30 8766 C 819.093 3.31001 -1.05145 0
M  V30 8767 C 818.047 3.70663 -2.13992 0
M  V30 8768 C 817.373 5.05226 -1.75074 0
M  V30 8769 C 818.673 3.82312 -3.55858 0
M  V30 8770 H 820.367 1.99263 -2.2346 0
M  V30 8771 H 817.913 0.957304 -1.07572 0
M  V30 8772 H 819.866 4.09364 -0.999949 0
M  V30 8773 H 818.59 3.26517 -0.0737312 0
M  V30 8774 H 817.249 2.94578 -2.18219 0
M  V30 8775 H 816.897 4.97233 -0.759518 0
M  V30 8776 H 816.597 5.32734 -2.47928 0
M  V30 8777 H 818.121 5.86042 -1.71427 0
M  V30 8778 H 819.535 4.50935 -3.5402 0
M  V30 8779 H 817.932 4.21278 -4.2737 0
M  V30 8780 H 819.002 2.84193 -3.9289 0
M  V30 8781 N 820.346 1.18468 1.03938 0
M  V30 8782 C 821.309 0.914944 2.10146 0
M  V30 8783 C 822.309 -0.10022 1.60487 0
M  V30 8784 O 823.499 0.133365 1.73689 0
M  V30 8785 C 820.631 0.372993 3.38853 0
M  V30 8786 H 821.824 1.85677 2.35508 0
M  V30 8787 H 819.377 0.996876 1.20383 0
M  V30 8788 H 820.112 -0.57538 3.19155 0
M  V30 8789 H 819.897 1.1048 3.76213 0
M  V30 8790 H 821.387 0.203014 4.17106 0
M  V30 8791 N 821.824 -1.22873 0.986916 0
M  V30 8792 C 823.07 -1.91746 0.660401 0
M  V30 8793 C 823.403 -1.76738 -0.804812 0
M  V30 8794 O 822.678 -1.13246 -1.58131 0
M  V30 8795 C 822.961 -3.44156 1.05966 0
M  V30 8796 C 822.814 -3.68242 2.58298 0
M  V30 8797 C 824.133 -4.35874 0.60842 0
M  V30 8798 H 821.252 -0.696347 0.241391 0
M  V30 8799 H 823.894 -1.44867 1.22937 0
M  V30 8800 H 822.044 -3.84213 0.575534 0
M  V30 8801 H 823.716 -3.37626 3.14335 0
M  V30 8802 H 821.959 -3.12728 3.00638 0
M  V30 8803 H 822.63 -4.74956 2.81285 0
M  V30 8804 H 825.106 -4.03299 1.02417 0
M  V30 8805 H 823.982 -5.41201 0.916142 0
M  V30 8806 H 824.243 -4.39364 -0.491086 0
M  V30 8807 N 823.302 -0.75937 -1.38099 0
M  V30 8808 C 824.527 -0.327859 -2.04792 0
M  V30 8809 C 824.952 1.03752 -1.56899 0
M  V30 8810 O 824.31 1.66235 -0.723581 0
M  V30 8811 C 824.358 -0.366264 -3.58735 0
M  V30 8812 O 823.462 0.637697 -4.0744 0
M  V30 8813 H 822.803 -0.144092 -0.648177 0
M  V30 8814 H 825.333 -1.03211 -1.7666 0
M  V30 8815 H 825.343 -0.219179 -4.07411 0
M  V30 8816 H 824.018 -1.36243 -3.92951 0
M  V30 8817 H 822.595 0.454749 -3.70117 0
M  V30 8818 N 824.78 1.49157 -0.508906 0
M  V30 8819 C 826.02 2.04376 0.0310623 0
M  V30 8820 C 826.384 1.37946 1.33547 0
M  V30 8821 O 827.585 1.83931 1.96017 0
M  V30 8822 C 825.856 3.56985 0.172191 0
M  V30 8823 S 827.415 4.33728 0.665267 0
M  V30 8824 H 824.233 0.710997 -0.00199266 0
M  V30 8825 H 826.835 1.83119 -0.684674 0
M  V30 8826 H 825.539 4.02874 -0.78234 0
M  V30 8827 H 825.07 3.82661 0.912933 0
M  V30 8828 H 827.085 4.56992 1.9332 0
M  V30 8829 N 826.258 0.243083 1.55714 0
M  V30 8830 C 827.504 -0.383287 1.99145 0
M  V30 8831 C 827.837 -1.57868 1.13098 0
M  V30 8832 O 827.112 -1.93535 0.193509 0
M  V30 8833 C 827.395 -0.796879 3.51172 0
M  V30 8834 C 827.248 0.403642 4.47985 0
M  V30 8835 C 828.567 -1.64525 4.08191 0
M  V30 8836 H 825.686 -0.137843 0.723995 0
M  V30 8837 H 828.328 0.343631 1.86867 0
M  V30 8838 H 826.478 -1.41625 3.61766 0
M  V30 8839 H 828.15 1.04204 4.49376 0
M  V30 8840 H 826.393 1.04741 4.20965 0
M  V30 8841 H 827.064 0.0709794 5.51954 0
M  V30 8842 H 829.54 -1.12246 4.00674 0
M  V30 8843 H 828.416 -1.9035 5.14838 0
M  V30 8844 H 828.677 -2.61582 3.56409 0
M  V30 8845 N 827.736 -1.57571 -0.0300757 0
M  V30 8846 C 828.666 -2.0953 -1.03051 0
M  V30 8847 C 829.647 -0.99761 -1.37774 0
M  V30 8848 O 830.832 -1.27279 -1.46676 0
M  V30 8849 C 827.962 -2.57385 -2.33174 0
M  V30 8850 C 826.916 -3.71409 -2.12696 0
M  V30 8851 C 826.242 -4.05467 -3.4857 0
M  V30 8852 C 827.542 -4.99877 -1.51396 0
M  V30 8853 H 829.236 -2.93367 -0.597999 0
M  V30 8854 H 826.782 -1.41127 -0.286203 0
M  V30 8855 H 828.735 -2.92355 -3.03491 0
M  V30 8856 H 827.459 -1.70629 -2.78484 0
M  V30 8857 H 826.118 -3.36786 -1.44813 0
M  V30 8858 H 825.766 -3.15779 -3.91526 0
M  V30 8859 H 825.466 -4.82269 -3.35694 0
M  V30 8860 H 826.99 -4.4297 -4.2025 0
M  V30 8861 H 828.404 -5.3281 -2.11629 0
M  V30 8862 H 826.801 -5.81283 -1.49098 0
M  V30 8863 H 827.871 -4.82522 -0.479676 0
M  V30 8864 N 829.214 0.302327 -1.54673 0
M  V30 8865 C 830.461 1.0377 -1.73891 0
M  V30 8866 C 830.789 1.87309 -0.523979 0
M  V30 8867 O 830.044 1.8936 0.494084 0
M  V30 8868 C 830.343 1.97365 -2.97963 0
M  V30 8869 C 830.009 1.29812 -4.3181 0
M  V30 8870 C 828.671 1.11121 -4.68194 0
M  V30 8871 C 831.023 0.815073 -5.14787 0
M  V30 8872 C 828.351 0.428077 -5.85136 0
M  V30 8873 C 830.703 0.145665 -6.32432 0
M  V30 8874 C 829.367 -0.0532098 -6.67479 0
M  V30 8875 H 828.637 0.379721 -0.636312 0
M  V30 8876 H 831.284 0.312708 -1.8893 0
M  V30 8877 H 829.589 2.76387 -2.777 0
M  V30 8878 H 831.286 2.54331 -3.10027 0
M  V30 8879 H 827.876 1.45366 -4.03196 0
M  V30 8880 H 832.06 0.947191 -4.87178 0
M  V30 8881 H 827.316 0.262995 -6.10834 0
M  V30 8882 H 831.49 -0.236533 -6.95998 0
M  V30 8883 H 829.117 -0.58456 -7.57949 0
M  V30 8884 N 830.692 1.47107 0.565454 0
M  V30 8885 C 831.622 1.61846 1.68309 0
M  V30 8886 C 832.603 0.468159 1.63531 0
M  V30 8887 O 833.788 0.696504 1.8128 0
M  V30 8888 C 830.918 1.62474 3.06952 0
M  V30 8889 C 829.872 2.76649 3.26572 0
M  V30 8890 C 829.198 2.62345 4.65917 0
M  V30 8891 C 830.498 4.18319 3.12741 0
M  V30 8892 H 832.192 2.55407 1.5623 0
M  V30 8893 H 829.738 1.22916 0.750179 0
M  V30 8894 H 831.691 1.71378 3.84977 0
M  V30 8895 H 830.415 0.654692 3.19971 0
M  V30 8896 H 829.074 2.67242 2.50952 0
M  V30 8897 H 828.722 1.63386 4.75725 0
M  V30 8898 H 828.422 3.38936 4.79996 0
M  V30 8899 H 829.946 2.73165 5.46089 0
M  V30 8900 H 831.36 4.28745 3.80593 0
M  V30 8901 H 829.757 4.95632 3.38333 0
M  V30 8902 H 830.827 4.37263 2.09592 0
M  V30 8903 N 832.17 -0.811516 1.35101 0
M  V30 8904 C 833.133 -1.90467 1.27495 0
M  V30 8905 C 834.133 -1.59703 0.187516 0
M  V30 8906 O 835.323 -1.68528 0.440896 0
M  V30 8907 C 832.455 -3.26774 0.971154 0
M  V30 8908 H 833.648 -1.98631 2.2469 0
M  V30 8909 H 831.201 -1.00681 1.19553 0
M  V30 8910 H 831.936 -3.243 0.0028557 0
M  V30 8911 H 831.721 -3.50488 1.75785 0
M  V30 8912 H 833.211 -4.06804 0.943414 0
M  V30 8913 N 833.648 -1.19017 -1.03309 0
M  V30 8914 C 834.611 -0.926076 -2.09658 0
M  V30 8915 C 835.611 0.0917077 -1.60538 0
M  V30 8916 O 836.801 -0.142574 -1.73616 0
M  V30 8917 C 833.933 -0.390958 -3.38651 0
M  V30 8918 H 835.126 -1.86923 -2.3452 0
M  V30 8919 H 832.679 -1.00325 -1.19853 0
M  V30 8920 H 833.414 0.558446 -3.19456 0
M  V30 8921 H 833.199 -1.12474 -3.75622 0
M  V30 8922 H 834.689 -0.225131 -4.16993 0
M  V30 8923 N 835.127 1.22348 -0.993418 0
M  V30 8924 C 836.543 1.43222 -0.704238 0
M  V30 8925 C 836.743 1.88009 0.724909 0
M  V30 8926 O 835.799 2.03429 1.49575 0
M  V30 8927 C 837.112 2.47328 -1.71025 0
M  V30 8928 C 838.66 2.61126 -1.72576 0
M  V30 8929 C 839.135 3.68453 -2.72041 0
M  V30 8930 N 840.626 3.75911 -2.70639 0
M  V30 8931 C 841.361 4.58551 -3.44266 0
M  V30 8932 N 840.857 5.45179 -4.27495 0
M  V30 8933 N 842.65 4.52866 -3.32969 0
M  V30 8934 H 834.801 0.915832 -1.91641 0
M  V30 8935 H 837.064 0.464283 -0.826526 0
M  V30 8936 H 836.77 2.21366 -2.73295 0
M  V30 8937 H 836.644 3.45939 -1.50353 0
M  V30 8938 H 839.031 2.86431 -0.710037 0
M  V30 8939 H 839.112 1.62787 -1.97317 0
M  V30 8940 H 838.756 3.43895 -3.73763 0
M  V30 8941 H 838.686 4.66362 -2.4457 0
M  V30 8942 H 841.177 3.14014 -2.10247 0
M  V30 8943 H 841.49 6.0526 -4.80499 0
M  V30 8944 H 839.835 5.44759 -4.31582 0
M  V30 8945 H 843.026 3.84215 -2.67389 0
M  V30 8946 H 843.199 5.17039 -3.90608 0
M  V30 8947 N 836.605 0.766683 1.37694 0
M  V30 8948 C 837.535 0.163432 2.32927 0
M  V30 8949 C 838.516 -0.688861 1.55527 0
M  V30 8950 O 839.701 -0.627363 1.83787 0
M  V30 8951 C 836.831 -0.720416 3.39746 0
M  V30 8952 C 835.785 0.0301718 4.27989 0
M  V30 8953 C 835.111 -0.972788 5.25776 0
M  V30 8954 C 836.411 1.20623 5.0818 0
M  V30 8955 H 838.105 0.958988 2.83626 0
M  V30 8956 H 835.651 0.462601 1.36367 0
M  V30 8957 H 837.604 -1.15221 4.05342 0
M  V30 8958 H 836.328 -1.54844 2.8756 0
M  V30 8959 H 834.987 0.442685 3.63917 0
M  V30 8960 H 834.635 -1.79522 4.69873 0
M  V30 8961 H 834.335 -0.475145 5.85676 0
M  V30 8962 H 835.859 -1.40362 5.94248 0
M  V30 8963 H 837.273 0.851341 5.66944 0
M  V30 8964 H 835.67 1.63561 5.7738 0
M  V30 8965 H 836.74 2.01281 4.41151 0
M  V30 8966 N 838.083 -1.48885 0.516809 0
M  V30 8967 C 839.308 -2.0739 -0.0205201 0
M  V30 8968 C 839.733 -1.37259 -1.28614 0
M  V30 8969 O 839.091 -0.434304 -1.76021 0
M  V30 8970 C 839.139 -3.59793 -0.24104 0
M  V30 8971 O 838.243 -3.90957 -1.31251 0
M  V30 8972 H 837.584 -0.663167 0.0332564 0
M  V30 8973 H 840.114 -1.91477 0.720956 0
M  V30 8974 H 840.124 -4.0531 -0.467737 0
M  V30 8975 H 838.799 -4.10244 0.68356 0
M  V30 8976 H 837.376 -3.57234 -1.06951 0
M  V30 8977 N 839.561 -0.251338 -1.55583 0
M  V30 8978 C 840.972 0.25098 -1.85005 0
M  V30 8979 C 841.323 1.57259 -1.17321 0
M  V30 8980 O 840.448 2.11603 -0.453136 0
M  V30 8981 C 841.043 0.462161 -3.35633 0
M  V30 8982 C 839.602 0.908737 -3.65266 0
M  V30 8983 C 838.749 -0.0115418 -2.77298 0
M  V30 8984 H 841.7 -0.473782 -1.51463 0
M  V30 8985 H 841.721 1.30415 -3.57452 0
M  V30 8986 H 841.233 -0.499886 -3.84867 0
M  V30 8987 H 839.334 1.8831 -3.21512 0
M  V30 8988 H 839.447 0.762526 -4.72993 0
M  V30 8989 H 837.811 0.500612 -2.49732 0
M  V30 8990 H 838.594 -0.969042 -3.29339 0
M  V30 8991 N 841.039 1.57585 0.0217189 0
M  V30 8992 C 842.269 1.9359 0.721572 0
M  V30 8993 C 842.677 0.850132 1.69025 0
M  V30 8994 O 842.02 -0.181539 1.82801 0
M  V30 8995 C 842.082 3.25445 1.52729 0
M  V30 8996 C 841.746 4.51251 0.722586 0
M  V30 8997 C 842.743 5.19896 0.0196598 0
M  V30 8998 C 840.428 4.97745 0.674959 0
M  V30 8999 C 842.422 6.33319 -0.720114 0
M  V30 9000 C 840.109 6.11062 -0.068555 0
M  V30 9001 C 841.107 6.78704 -0.764845 0
M  V30 9002 O 840.795 7.89852 -1.49627 0
M  V30 9003 H 840.527 0.643409 0.207366 0
M  V30 9004 H 843.081 2.05391 -0.0189346 0
M  V30 9005 H 841.311 3.0999 2.31178 0
M  V30 9006 H 843 3.46721 2.11044 0
M  V30 9007 H 843.766 4.84977 0.0474394 0
M  V30 9008 H 839.645 4.44934 1.20643 0
M  V30 9009 H 843.189 6.86051 -1.26413 0
M  V30 9010 H 839.086 6.45425 -0.0982318 0
M  V30 9011 H 839.854 8.06251 -1.41071 0
M  V30 9012 N 842.517 -0.29412 1.54831 0
M  V30 9013 C 843.427 -1.3854 1.89325 0
M  V30 9014 C 844.443 -1.55127 0.788133 0
M  V30 9015 O 845.619 -1.6966 1.08524 0
M  V30 9016 C 842.684 -2.72809 2.13954 0
M  V30 9017 C 841.745 -2.65148 3.37631 0
M  V30 9018 C 840.978 -3.93014 3.61076 0
M  V30 9019 O 841.201 -4.927 2.87406 0
M  V30 9020 O 840.135 -3.94491 4.54599 0
M  V30 9021 H 843.961 -1.12289 2.82179 0
M  V30 9022 H 841.546 -0.490793 1.41108 0
M  V30 9023 H 843.428 -3.52238 2.31315 0
M  V30 9024 H 842.103 -2.9889 1.24285 0
M  V30 9025 H 841.01 -1.84168 3.25627 0
M  V30 9026 H 842.343 -2.4402 4.27452 0
M  V30 9027 N 843.995 -1.47404 -0.557645 0
M  V30 9028 C 845.241 -1.55219 -1.31449 0
M  V30 9029 C 845.596 -0.211457 -1.91234 0
M  V30 9030 O 844.889 0.782795 -1.7488 0
M  V30 9031 C 845.083 -2.6061 -2.44575 0
M  V30 9032 C 844.912 -4.048 -1.95875 0
M  V30 9033 C 843.682 -4.72252 -1.79738 0
M  V30 9034 C 845.88 -4.91833 -1.50348 0
M  V30 9035 N 843.862 -6.00962 -1.25372 0
M  V30 9036 C 845.233 -6.10566 -1.07745 0
M  V30 9037 C 847.288 -4.78279 -1.38396 0
M  V30 9038 C 845.991 -7.17242 -0.543767 0
M  V30 9039 C 848.017 -5.8505 -0.864293 0
M  V30 9040 C 847.379 -7.02973 -0.44818 0
M  V30 9041 H 843.478 -0.622694 -0.47305 0
M  V30 9042 H 846.062 -1.84152 -0.632144 0
M  V30 9043 H 844.233 -2.33545 -3.10341 0
M  V30 9044 H 845.965 -2.5827 -3.11574 0
M  V30 9045 H 842.72 -4.28153 -2.0244 0
M  V30 9046 H 843.144 -6.69532 -1.00278 0
M  V30 9047 H 847.786 -3.87477 -1.69179 0
M  V30 9048 H 845.504 -8.07791 -0.223563 0
M  V30 9049 H 849.09 -5.7661 -0.775371 0
M  V30 9050 H 847.97 -7.84183 -0.0522964 0
M  V30 9051 N 845.473 0.80434 -1.35529 0
M  V30 9052 C 846.703 1.59052 -1.31856 0
M  V30 9053 C 847.111 1.88905 0.105549 0
M  V30 9054 O 846.454 1.49422 1.06858 0
M  V30 9055 C 846.516 2.94626 -2.06 0
M  V30 9056 C 846.18 2.87576 -3.55175 0
M  V30 9057 C 847.177 2.60856 -4.49722 0
M  V30 9058 C 844.862 3.06623 -3.97854 0
M  V30 9059 C 846.856 2.53262 -5.84925 0
M  V30 9060 C 844.543 2.98652 -5.33151 0
M  V30 9061 C 845.541 2.72007 -6.26499 0
M  V30 9062 O 845.229 2.64003 -7.59314 0
M  V30 9063 H 844.961 0.500486 -0.454411 0
M  V30 9064 H 847.515 1.0074 -1.78999 0
M  V30 9065 H 845.745 3.5493 -1.53498 0
M  V30 9066 H 847.434 3.55785 -1.95376 0
M  V30 9067 H 848.2 2.45858 -4.18066 0
M  V30 9068 H 844.079 3.26372 -3.2558 0
M  V30 9069 H 847.623 2.32386 -6.57756 0
M  V30 9070 H 843.52 3.13208 -5.64421 0
M  V30 9071 H 844.288 2.79595 -7.69265 0
M  V30 9072 N 846.951 1.19563 1.02676 0
M  V30 9073 C 847.899 0.931942 2.13114 0
M  V30 9074 C 848.893 -0.113007 1.69023 0
M  V30 9075 O 850.099 0.0364298 1.79963 0
M  V30 9076 H 846.474 0.283981 0.696318 0
M  V30 9077 H 848.445 1.86991 2.32545 0
M  V30 9078 C 847.194 0.489461 3.44238 0
M  V30 9079 H 846.517 1.28508 3.78584 0
M  V30 9080 H 847.957 0.34408 4.22602 0
M  V30 9081 C 846.416 -0.796761 3.27343 0
M  V30 9082 O 846.946 -1.85767 3.56165 0
M  V30 9083 N 845.152 -0.754824 2.80626 0
M  V30 9084 H 844.699 0.108778 2.5737 0
M  V30 9085 H 844.657 -1.6158 2.69702 0
M  V30 9086 N 848.429 -1.21819 0.999893 0
M  V30 9087 C 849.84 -1.72517 0.713775 0
M  V30 9088 C 850.191 -1.80505 -0.768922 0
M  V30 9089 O 849.316 -1.45611 -1.60083 0
M  V30 9090 C 849.911 -3.13321 1.28901 0
M  V30 9091 C 848.47 -3.61396 1.05212 0
M  V30 9092 C 847.617 -2.39074 1.40494 0
M  V30 9093 H 850.568 -1.07068 1.17141 0
M  V30 9094 H 850.589 -3.74535 0.671084 0
M  V30 9095 H 850.101 -3.07475 2.36814 0
M  V30 9096 H 848.202 -3.72599 -0.0100732 0
M  V30 9097 H 848.315 -4.47145 1.72042 0
M  V30 9098 H 846.679 -2.41015 0.823642 0
M  V30 9099 H 847.462 -2.35884 2.49427 0
M  V30 9100 N 849.908 -0.773975 -1.37286 0
M  V30 9101 C 850.858 -0.135245 -2.27599 0
M  V30 9102 C 851.842 0.671691 -1.46209 0
M  V30 9103 O 853.034 0.534299 -1.68743 0
M  V30 9104 C 850.163 0.741298 -3.35201 0
M  V30 9105 C 849.249 -0.0735896 -4.24036 0
M  V30 9106 N 849.64 -1.12035 -4.93236 0
M  V30 9107 C 847.938 0.150038 -4.45748 0
M  V30 9108 C 848.639 -1.61512 -5.58828 0
M  V30 9109 N 847.615 -0.926922 -5.35639 0
M  V30 9110 H 851.417 -0.936646 -2.78575 0
M  V30 9111 H 848.931 -0.611944 -1.50429 0
M  V30 9112 H 850.928 1.21468 -3.98812 0
M  V30 9113 H 849.588 1.54142 -2.8578 0
M  V30 9114 H 850.599 -1.50253 -4.95625 0
M  V30 9115 H 847.276 0.921891 -4.07195 0
M  V30 9116 H 848.666 -2.48818 -6.24131 0
M  V30 9117 N 851.386 1.48609 -0.524698 0
M  V30 9118 C 852.797 1.86516 -0.0828846 0
M  V30 9119 C 853.148 1.43478 1.33822 0
M  V30 9120 O 852.273 0.823139 2.00133 0
M  V30 9121 C 852.868 3.38495 -0.143639 0
M  V30 9122 C 851.427 3.75615 0.242951 0
M  V30 9123 C 850.574 2.72649 -0.505747 0
M  V30 9124 H 853.525 1.40589 -0.736233 0
M  V30 9125 H 853.546 3.74977 0.645955 0
M  V30 9126 H 853.058 3.69789 -1.17805 0
M  V30 9127 H 851.159 3.49935 1.27971 0
M  V30 9128 H 851.272 4.7901 -0.0929834 0
M  V30 9129 H 849.636 2.54656 0.0473482 0
M  V30 9130 H 850.419 3.06786 -1.54069 0
M  V30 9131 N 852.864 0.259585 1.55447 0
M  V30 9132 C 854.104 -0.362989 2.01151 0
M  V30 9133 C 854.468 -1.54201 1.14394 0
M  V30 9134 O 855.669 -2.23318 1.49608 0
M  V30 9135 C 853.94 -0.750399 3.49434 0
M  V30 9136 S 855.499 -1.3617 4.17137 0
M  V30 9137 H 852.317 -0.11365 0.701858 0
M  V30 9138 H 854.919 0.377788 1.91815 0
M  V30 9139 H 853.623 0.116807 4.10234 0
M  V30 9140 H 853.154 -1.52303 3.62722 0
M  V30 9141 H 855.169 -2.65059 4.19474 0
M  V30 9142 N 854.342 -1.57594 -0.0133615 0
M  V30 9143 C 855.272 -2.10611 -1.00823 0
M  V30 9144 C 856.253 -1.01217 -1.36708 0
M  V30 9145 O 857.438 -1.28827 -1.45318 0
M  V30 9146 C 854.568 -2.59844 -2.30431 0
M  V30 9147 C 853.522 -3.73644 -2.08745 0
M  V30 9148 C 852.848 -4.09141 -3.4425 0
M  V30 9149 C 854.148 -5.01454 -1.46086 0
M  V30 9150 H 855.842 -2.93985 -0.566849 0
M  V30 9151 H 853.388 -1.41423 -0.271219 0
M  V30 9152 H 855.341 -2.95557 -3.00373 0
M  V30 9153 H 854.065 -1.73573 -2.76658 0
M  V30 9154 H 852.724 -3.38303 -1.41232 0
M  V30 9155 H 852.372 -3.19914 -3.88155 0
M  V30 9156 H 852.072 -4.85802 -3.3056 0
M  V30 9157 H 853.596 -4.47402 -4.15528 0
M  V30 9158 H 855.01 -5.35024 -2.05966 0
M  V30 9159 H 853.407 -5.82832 -1.42924 0
M  V30 9160 H 854.477 -4.83003 -0.428471 0
M  V30 9161 N 855.82 0.285905 -1.54985 0
M  V30 9162 C 857.236 0.632405 -1.46536 0
M  V30 9163 C 857.436 1.90074 -0.668888 0
M  V30 9164 O 856.492 2.51839 -0.182586 0
M  V30 9165 C 857.805 0.771361 -2.90638 0
M  V30 9166 C 859.353 0.866262 -3.00774 0
M  V30 9167 C 859.828 1.0371 -4.46103 0
M  V30 9168 N 861.319 1.10294 -4.49877 0
M  V30 9169 C 862.054 1.25369 -5.59527 0
M  V30 9170 N 861.55 1.37246 -6.7907 0
M  V30 9171 N 863.343 1.28377 -5.47244 0
M  V30 9172 H 855.494 -0.547226 -2.0523 0
M  V30 9173 H 857.757 -0.183298 -0.930111 0
M  V30 9174 H 857.463 -0.0899485 -3.51585 0
M  V30 9175 H 857.337 1.65569 -3.3892 0
M  V30 9176 H 859.724 1.71805 -2.39931 0
M  V30 9177 H 859.805 -0.0424049 -2.55765 0
M  V30 9178 H 859.449 0.190021 -5.07544 0
M  V30 9179 H 859.379 1.96022 -4.88757 0
M  V30 9180 H 861.87 1.02407 -3.6376 0
M  V30 9181 H 862.183 1.48546 -7.58389 0
M  V30 9182 H 860.528 1.34274 -6.81906 0
M  V30 9183 H 863.719 1.1872 -4.52795 0
M  V30 9184 H 863.892 1.39782 -6.32744 0
M  V30 9185 N 857.298 1.47698 0.54982 0
M  V30 9186 C 858.261 1.60282 1.63837 0
M  V30 9187 C 859.261 0.477394 1.5355 0
M  V30 9188 O 860.451 0.742665 1.57576 0
M  V30 9189 C 857.583 1.55431 3.03404 0
M  V30 9190 H 858.776 2.57325 1.54026 0
M  V30 9191 H 856.329 1.35999 0.770329 0
M  V30 9192 H 857.064 0.597912 3.1874 0
M  V30 9193 H 856.849 2.37116 3.12279 0
M  V30 9194 H 858.339 1.6739 3.82584 0
M  V30 9195 N 858.776 -0.797141 1.35954 0
M  V30 9196 C 860.192 -1.09408 1.16198 0
M  V30 9197 C 860.392 -2.01491 -0.0191682 0
M  V30 9198 O 859.448 -2.42977 -0.686902 0
M  V30 9199 C 860.761 -1.71597 2.46931 0
M  V30 9200 C 862.309 -1.83974 2.53224 0
M  V30 9201 C 862.784 -2.49579 3.84024 0
M  V30 9202 N 864.275 -2.57055 3.85327 0
M  V30 9203 C 865.01 -3.08608 4.83268 0
M  V30 9204 N 864.506 -3.60527 5.91601 0
M  V30 9205 N 866.299 -3.07249 4.70696 0
M  V30 9206 H 858.45 -0.185209 2.11591 0
M  V30 9207 H 860.713 -0.144768 0.936881 0
M  V30 9208 H 860.419 -1.11404 3.3359 0
M  V30 9209 H 860.293 -2.71193 2.62172 0
M  V30 9210 H 862.68 -2.43308 1.66988 0
M  V30 9211 H 862.761 -0.83207 2.41889 0
M  V30 9212 H 862.405 -1.90892 4.70662 0
M  V30 9213 H 862.335 -3.50902 3.92651 0
M  V30 9214 H 864.826 -2.20283 3.07057 0
M  V30 9215 H 865.139 -3.98192 6.62317 0
M  V30 9216 H 863.484 -3.587 5.95281 0
M  V30 9217 H 866.675 -2.65972 3.85197 0
M  V30 9218 H 866.848 -3.47119 5.47186 0
M  V30 9219 N 860.254 -1.20106 -1.0204 0
M  V30 9220 C 861.665 -1.00992 -1.57027 0
M  V30 9221 C 862.016 0.434782 -1.91322 0
M  V30 9222 O 861.141 1.31557 -1.71819 0
M  V30 9223 C 861.736 -1.82697 -2.85319 0
M  V30 9224 C 860.295 -1.67959 -3.36848 0
M  V30 9225 C 859.442 -1.80868 -2.10195 0
M  V30 9226 H 862.393 -1.34354 -0.844676 0
M  V30 9227 H 862.414 -1.32809 -3.5657 0
M  V30 9228 H 861.926 -2.87839 -2.60328 0
M  V30 9229 H 860.027 -0.654389 -3.66809 0
M  V30 9230 H 860.14 -2.49006 -4.09308 0
M  V30 9231 H 858.504 -1.24015 -2.22469 0
M  V30 9232 H 859.287 -2.87486 -1.87635 0
M  V30 9233 N 861.732 1.21287 -1.00634 0
M  V30 9234 C 862.682 2.21541 -0.53886 0
M  V30 9235 C 863.666 1.55842 0.400256 0
M  V30 9236 O 864.858 1.75566 0.224889 0
M  V30 9237 C 861.987 3.43047 0.131796 0
M  V30 9238 C 861.073 4.1593 -0.828419 0
M  V30 9239 N 861.464 4.65359 -1.98178 0
M  V30 9240 C 859.762 4.41281 -0.647083 0
M  V30 9241 C 860.463 5.21079 -2.58557 0
M  V30 9242 N 859.439 5.10531 -1.86705 0
M  V30 9243 H 863.241 2.57413 -1.41831 0
M  V30 9244 H 860.755 1.37109 -0.870338 0
M  V30 9245 H 862.752 4.14079 0.484178 0
M  V30 9246 H 861.412 3.08683 1.00721 0
M  V30 9247 H 862.423 4.60896 -2.3621 0
M  V30 9248 H 859.1 4.17107 0.181139 0
M  V30 9249 H 860.49 5.6977 -3.56107 0
M  V30 9250 N 863.21 0.781244 1.36873 0
M  V30 9251 C 864.459 0.34652 1.98701 0
M  V30 9252 C 864.772 -1.08555 1.62712 0
M  V30 9253 O 865.978 -1.62213 2.17713 0
M  V30 9254 C 864.434 0.568611 3.5538 0
M  V30 9255 C 864.042 2.01156 4.003 0
M  V30 9256 C 865.786 0.197983 4.24038 0
M  V30 9257 C 863.693 2.18074 5.49725 0
M  V30 9258 H 862.623 0.125821 0.743428 0
M  V30 9259 H 865.274 0.961721 1.56279 0
M  V30 9260 H 863.656 -0.116185 3.9583 0
M  V30 9261 H 864.83 2.73209 3.71071 0
M  V30 9262 H 863.145 2.33967 3.44454 0
M  V30 9263 H 865.742 0.302778 5.33842 0
M  V30 9264 H 866.085 -0.852927 4.07469 0
M  V30 9265 H 866.618 0.835696 3.88923 0
M  V30 9266 H 863.357 3.21519 5.71232 0
M  V30 9267 H 862.877 1.50517 5.80607 0
M  V30 9268 H 864.556 1.98393 6.15832 0
M  V30 9269 N 864.689 -1.48329 0.532571 0
M  V30 9270 C 865.619 -2.32485 -0.217511 0
M  V30 9271 C 866.6 -1.42255 -0.932598 0
M  V30 9272 O 867.785 -1.7114 -0.917873 0
M  V30 9273 C 864.915 -3.23509 -1.26329 0
M  V30 9274 C 863.869 -4.22784 -0.666191 0
M  V30 9275 C 863.195 -5.0296 -1.81482 0
M  V30 9276 C 864.495 -5.21031 0.363813 0
M  V30 9277 H 866.189 -2.95445 0.485014 0
M  V30 9278 H 863.735 -1.42075 0.234694 0
M  V30 9279 H 865.688 -3.81211 -1.79601 0
M  V30 9280 H 864.412 -2.58554 -1.99543 0
M  V30 9281 H 863.071 -3.66272 -0.15498 0
M  V30 9282 H 862.719 -4.34427 -2.5354 0
M  V30 9283 H 862.419 -5.70154 -1.4212 0
M  V30 9284 H 863.943 -5.63514 -2.35126 0
M  V30 9285 H 865.357 -5.73241 -0.0819079 0
M  V30 9286 H 863.754 -5.96292 0.674956 0
M  V30 9287 H 864.824 -4.6801 1.26865 0
M  V30 9288 N 866.167 -0.267825 -1.55308 0
M  V30 9289 C 867.077 0.633055 -2.25897 0
M  V30 9290 C 868.093 1.17613 -1.28231 0
M  V30 9291 O 869.269 1.20797 -1.61153 0
M  V30 9292 C 866.334 1.80397 -2.96071 0
M  V30 9293 C 865.395 1.29829 -4.09198 0
M  V30 9294 C 864.628 2.4134 -4.76016 0
M  V30 9295 O 864.851 3.60537 -4.42006 0
M  V30 9296 O 863.785 2.09909 -5.64111 0
M  V30 9297 H 867.611 0.0614381 -3.03638 0
M  V30 9298 H 865.196 -0.0355072 -1.49358 0
M  V30 9299 H 867.078 2.48685 -3.40197 0
M  V30 9300 H 865.753 2.36281 -2.21253 0
M  V30 9301 H 864.66 0.582086 -3.69544 0
M  V30 9302 H 865.993 0.785288 -4.85895 0
M  V30 9303 N 867.645 1.57599 0.00500368 0
M  V30 9304 C 868.593 2.09223 1.01628 0
M  V30 9305 C 869.587 1.01113 1.35913 0
M  V30 9306 O 870.793 1.19583 1.34536 0
M  V30 9307 H 867.168 0.667999 0.345372 0
M  V30 9308 H 869.139 2.93188 0.555274 0
M  V30 9309 C 867.888 2.60674 2.30097 0
M  V30 9310 H 867.211 3.43491 2.04582 0
M  V30 9311 H 868.651 3.00479 2.99146 0
M  V30 9312 C 867.11 1.51862 3.00731 0
M  V30 9313 O 867.64 0.898651 3.91519 0
M  V30 9314 N 865.846 1.24729 2.62471 0
M  V30 9315 H 865.393 1.7533 1.88725 0
M  V30 9316 H 865.351 0.521437 3.10046 0
M  V30 9317 N 869.123 -0.277682 1.55134 0
M  V30 9318 C 870.055 -1.36531 1.84098 0
M  V30 9319 C 871.068 -1.45756 0.725194 0
M  V30 9320 O 872.257 -1.47656 1.00299 0
M  V30 9321 C 869.357 -2.74701 1.98476 0
M  V30 9322 C 868.53 -2.88125 3.29094 0
M  V30 9323 C 867.589 -4.0694 3.33596 0
M  V30 9324 O 866.615 -3.9792 4.06999 0
M  V30 9325 N 867.817 -5.18687 2.60661 0
M  V30 9326 H 870.582 -1.12032 2.77973 0
M  V30 9327 H 868.143 -0.467793 1.54995 0
M  V30 9328 H 870.135 -3.52471 1.98863 0
M  V30 9329 H 868.705 -2.92043 1.11488 0
M  V30 9330 H 867.925 -1.97277 3.41285 0
M  V30 9331 H 869.213 -2.94021 4.15246 0
M  V30 9332 H 868.611 -5.28901 2.00699 0
M  V30 9333 H 867.168 -5.94705 2.66776 0
M  V30 9334 N 870.601 -1.47988 -0.541979 0
M  V30 9335 C 871.831 -1.58804 -1.32155 0
M  V30 9336 C 872.239 -0.242893 -1.87634 0
M  V30 9337 O 871.582 0.776239 -1.66494 0
M  V30 9338 C 871.644 -2.56567 -2.51821 0
M  V30 9339 C 871.308 -4.01915 -2.17517 0
M  V30 9340 C 872.305 -4.89954 -1.73901 0
M  V30 9341 C 869.99 -4.47365 -2.28408 0
M  V30 9342 C 871.984 -6.21467 -1.41625 0
M  V30 9343 C 869.671 -5.78902 -1.95745 0
M  V30 9344 C 870.669 -6.65775 -1.52423 0
M  V30 9345 O 870.357 -7.94866 -1.20183 0
M  V30 9346 H 870.089 -0.538536 -0.408601 0
M  V30 9347 H 872.643 -1.94446 -0.661818 0
M  V30 9348 H 870.873 -2.16023 -3.20735 0
M  V30 9349 H 872.562 -2.57347 -3.13891 0
M  V30 9350 H 873.328 -4.56082 -1.64966 0
M  V30 9351 H 869.207 -3.79942 -2.61084 0
M  V30 9352 H 872.751 -6.8923 -1.07738 0
M  V30 9353 H 868.648 -6.12311 -2.04316 0
M  V30 9354 H 869.416 -8.07509 -1.33683 0
M  V30 9355 N 872.079 0.78992 -1.36375 0
M  V30 9356 C 873.307 1.57873 -1.3373 0
M  V30 9357 C 873.722 1.88624 0.0815544 0
M  V30 9358 O 873.079 1.50085 1.03831 0
M  V30 9359 C 873.13 2.90003 -2.15825 0
M  V30 9360 O 872.851 2.60578 -3.5218 0
M  V30 9361 C 874.352 3.84309 -2.20955 0
M  V30 9362 H 871.572 0.489685 -0.458748 0
M  V30 9363 H 874.116 0.980436 -1.79465 0
M  V30 9364 H 872.271 3.46303 -1.73646 0
M  V30 9365 H 872.685 3.4506 -3.95011 0
M  V30 9366 H 874.159 4.74081 -2.82756 0
M  V30 9367 H 874.636 4.22121 -1.21287 0
M  V30 9368 H 875.242 3.33942 -2.63368 0
M  V30 9369 N 873.557 1.20646 1.01402 0
M  V30 9370 C 874.487 0.98155 2.11867 0
M  V30 9371 C 875.468 -0.0903712 1.6986 0
M  V30 9372 O 876.653 0.0676586 1.94082 0
M  V30 9373 C 873.783 0.535636 3.43145 0
M  V30 9374 C 872.737 1.55109 3.98905 0
M  V30 9375 C 872.063 0.961725 5.2598 0
M  V30 9376 C 873.363 2.93552 4.32001 0
M  V30 9377 H 875.057 1.90544 2.3094 0
M  V30 9378 H 872.603 0.917554 1.10982 0
M  V30 9379 H 874.556 0.365512 4.19812 0
M  V30 9380 H 873.28 -0.423882 3.23838 0
M  V30 9381 H 871.939 1.70862 3.24348 0
M  V30 9382 H 871.587 -0.00580108 5.03 0
M  V30 9383 H 871.287 1.63993 5.64252 0
M  V30 9384 H 872.811 0.802726 6.053 0
M  V30 9385 H 874.225 2.81295 4.99546 0
M  V30 9386 H 872.622 3.58303 4.81393 0
M  V30 9387 H 873.692 3.4508 3.40658 0
M  V30 9388 N 875.035 -1.20752 1.01276 0
M  V30 9389 C 876.283 -1.89645 0.698505 0
M  V30 9390 C 876.604 -1.78986 -0.773883 0
M  V30 9391 O 875.874 -1.18977 -1.55632 0
M  V30 9392 H 874.454 -0.701992 0.255375 0
M  V30 9393 H 877.116 -1.46668 1.28353 0
M  V30 9394 H 876.212 -2.96364 0.978512 0
M  V30 9395 N 876.513 -0.788492 -1.36457 0
M  V30 9396 C 877.461 -0.174192 -2.31947 0
M  V30 9397 C 878.455 0.665974 -1.5576 0
M  V30 9398 O 879.661 0.561161 -1.71029 0
M  V30 9399 H 876.036 -0.0375538 -0.751062 0
M  V30 9400 H 878.007 -0.995011 -2.81322 0
M  V30 9401 C 876.756 0.677276 -3.4104 0
M  V30 9402 H 876.079 0.0401418 -3.9978 0
M  V30 9403 H 877.519 1.07379 -4.10178 0
M  V30 9404 C 875.978 1.83512 -2.82533 0
M  V30 9405 O 876.508 2.93164 -2.74623 0
M  V30 9406 N 874.714 1.64095 -2.39836 0
M  V30 9407 H 874.261 0.749046 -2.46469 0
M  V30 9408 H 874.219 2.41726 -2.01037 0
M  V30 9409 N 877.991 1.48044 -0.54043 0
M  V30 9410 C 879.216 2.07396 -0.0124765 0
M  V30 9411 C 879.641 1.39288 1.26414 0
M  V30 9412 O 878.999 0.462252 1.75308 0
M  V30 9413 C 879.047 3.60131 0.18377 0
M  V30 9414 O 878.151 3.92995 1.25014 0
M  V30 9415 H 877.492 0.662554 -0.0438026 0
M  V30 9416 H 880.022 1.90306 -0.751327 0
M  V30 9417 H 880.032 4.06003 0.403197 0
M  V30 9418 H 878.707 4.09105 -0.74874 0
M  V30 9419 H 877.284 3.5889 1.01254 0
M  V30 9420 N 879.47 0.276058 1.55163 0
M  V30 9421 C 880.4 -0.604633 2.25536 0
M  V30 9422 C 881.381 -1.15813 1.24585 0
M  V30 9423 O 882.566 -1.1921 1.53306 0
M  V30 9424 C 879.696 -1.78836 2.97716 0
M  V30 9425 C 878.65 -1.36635 4.05604 0
M  V30 9426 C 877.976 -2.63325 4.65364 0
M  V30 9427 C 879.276 -0.515858 5.19746 0
M  V30 9428 H 880.97 -0.0177483 2.99395 0
M  V30 9429 H 878.516 -0.00709627 1.43998 0
M  V30 9430 H 880.469 -2.41036 3.45658 0
M  V30 9431 H 879.193 -2.40109 2.21394 0
M  V30 9432 H 877.852 -0.767541 3.58475 0
M  V30 9433 H 877.5 -3.22858 3.85709 0
M  V30 9434 H 877.2 -2.358 5.38212 0
M  V30 9435 H 878.724 -3.26372 5.16056 0
M  V30 9436 H 880.138 -1.04289 5.63735 0
M  V30 9437 H 878.535 -0.335449 5.99162 0
M  V30 9438 H 879.605 0.465137 4.82664 0
M  V30 9439 N 880.948 -1.576 0.00335426 0
M  V30 9440 C 882.194 -1.91833 -0.676149 0
M  V30 9441 C 882.549 -0.878079 -1.71194 0
M  V30 9442 O 881.842 0.109297 -1.91288 0
M  V30 9443 C 882.036 -3.3058 -1.35837 0
M  V30 9444 C 881.865 -4.48004 -0.390171 0
M  V30 9445 C 880.635 -5.053 0.000648493 0
M  V30 9446 C 882.833 -5.13142 0.344982 0
M  V30 9447 N 880.815 -6.06241 0.966709 0
M  V30 9448 C 882.186 -6.08944 1.16562 0
M  V30 9449 C 884.241 -4.96222 0.408457 0
M  V30 9450 C 882.944 -6.89649 2.04395 0
M  V30 9451 C 884.97 -5.77514 1.27403 0
M  V30 9452 C 884.332 -6.72912 2.08251 0
M  V30 9453 H 880.431 -0.750263 -0.220519 0
M  V30 9454 H 883.015 -1.94593 0.0644891 0
M  V30 9455 H 881.186 -3.28687 -2.06928 0
M  V30 9456 H 882.918 -3.52233 -1.99284 0
M  V30 9457 H 879.673 -4.72165 -0.368428 0
M  V30 9458 H 880.097 -6.61394 1.44521 0
M  V30 9459 H 884.739 -4.22316 -0.202324 0
M  V30 9460 H 882.457 -7.62878 2.66539 0
M  V30 9461 H 886.043 -5.66462 1.3271 0
M  V30 9462 H 884.923 -7.34721 2.74145 0
M  V30 9463 N 882.426 0.269451 -1.5528 0
M  V30 9464 C 883.673 1.00058 -1.76053 0
M  V30 9465 C 884.001 1.86156 -0.563592 0
M  V30 9466 O 883.256 1.90366 0.453806 0
M  V30 9467 C 883.555 1.91 -3.02082 0
M  V30 9468 C 883.221 1.20623 -4.34466 0
M  V30 9469 C 881.883 1.01165 -4.70446 0
M  V30 9470 C 884.235 0.705695 -5.164 0
M  V30 9471 C 881.563 0.303865 -5.85913 0
M  V30 9472 C 883.915 0.0114838 -6.32599 0
M  V30 9473 C 882.579 -0.19478 -6.67216 0
M  V30 9474 H 881.849 0.366138 -0.644223 0
M  V30 9475 H 884.496 0.272563 -1.8955 0
M  V30 9476 H 882.801 2.70435 -2.835 0
M  V30 9477 H 884.498 2.47698 -3.15352 0
M  V30 9478 H 881.088 1.36781 -4.06188 0
M  V30 9479 H 885.272 0.84364 -4.89077 0
M  V30 9480 H 880.528 0.133368 -6.11255 0
M  V30 9481 H 884.702 -0.384111 -6.9534 0
M  V30 9482 H 882.329 -0.745201 -7.56539 0
M  V30 9483 N 883.904 1.48273 0.534124 0
M  V30 9484 C 885.315 1.49667 1.1161 0
M  V30 9485 C 885.666 0.264139 1.94414 0
M  V30 9486 O 884.791 -0.629084 2.07054 0
M  V30 9487 C 885.386 2.71191 2.03079 0
M  V30 9488 C 883.945 2.7547 2.56502 0
M  V30 9489 C 883.092 2.43119 1.33373 0
M  V30 9490 H 886.043 1.55449 0.319578 0
M  V30 9491 H 886.064 2.49473 2.87304 0
M  V30 9492 H 885.576 3.60879 1.42785 0
M  V30 9493 H 883.677 1.89979 3.20529 0
M  V30 9494 H 883.79 3.76787 2.95919 0
M  V30 9495 H 882.154 1.94187 1.64813 0
M  V30 9496 H 882.937 3.35044 0.748375 0
M  V30 9497 N 885.382 -0.782676 1.36792 0
M  V30 9498 C 886.628 -1.54311 1.3159 0
M  V30 9499 C 886.961 -1.93928 -0.102696 0
M  V30 9500 O 886.236 -1.63233 -1.05761 0
M  V30 9501 C 886.519 -2.81561 2.24489 0
M  V30 9502 C 886.372 -2.48268 3.75078 0
M  V30 9503 C 887.691 -3.83428 2.16034 0
M  V30 9504 H 884.81 -0.559828 0.479335 0
M  V30 9505 H 887.452 -0.898717 1.67401 0
M  V30 9506 H 885.602 -3.36549 1.9408 0
M  V30 9507 H 887.274 -1.99279 4.16036 0
M  V30 9508 H 885.517 -1.81116 3.94182 0
M  V30 9509 H 886.188 -3.39183 4.35499 0
M  V30 9510 H 888.664 -3.37905 2.42815 0
M  V30 9511 H 887.54 -4.70204 2.83194 0
M  V30 9512 H 887.801 -4.26887 1.14976 0
M  V30 9513 N 886.86 -1.21182 -1.00761 0
M  V30 9514 C 888.108 -1.02543 -1.74153 0
M  V30 9515 C 888.429 0.442372 -1.89916 0
M  V30 9516 O 887.699 1.31927 -1.44818 0
M  V30 9517 H 886.279 -0.37644 -0.645214 0
M  V30 9518 H 888.941 -1.52446 -1.21434 0
M  V30 9519 H 888.037 -1.49122 -2.7417 0
M  V30 9520 N 888.338 1.20213 -1.01915 0
M  V30 9521 C 889.586 1.89272 -0.708552 0
M  V30 9522 C 889.907 1.79394 0.76438 0
M  V30 9523 O 889.177 1.198 1.54999 0
M  V30 9524 H 887.757 0.700628 -0.259094 0
M  V30 9525 H 890.419 1.45985 -1.29129 0
M  V30 9526 H 889.515 2.95841 -0.994215 0
M  V30 9527 N 889.816 0.795718 1.36037 0
M  V30 9528 C 891.063 0.371024 1.99072 0
M  V30 9529 C 891.391 -1.05896 1.63145 0
M  V30 9530 O 890.646 -1.7474 0.881163 0
M  V30 9531 C 890.945 0.489038 3.54038 0
M  V30 9532 C 890.611 1.88075 4.09803 0
M  V30 9533 C 889.273 2.26152 4.24745 0
M  V30 9534 C 891.625 2.79174 4.40126 0
M  V30 9535 C 888.953 3.54718 4.67324 0
M  V30 9536 C 891.305 4.07175 4.8414 0
M  V30 9537 C 889.969 4.45266 4.97287 0
M  V30 9538 H 889.239 0.135767 0.728456 0
M  V30 9539 H 891.886 1.0144 1.62426 0
M  V30 9540 H 890.191 -0.237823 3.91078 0
M  V30 9541 H 891.888 0.141374 4.00751 0
M  V30 9542 H 888.478 1.57488 3.98617 0
M  V30 9543 H 892.662 2.51009 4.28145 0
M  V30 9544 H 887.918 3.84093 4.75691 0
M  V30 9545 H 892.092 4.77875 5.06565 0
M  V30 9546 H 889.719 5.44943 5.30038 0
M  V30 9547 N 891.294 -1.47756 0.548274 0
M  V30 9548 C 892.227 -2.26804 -0.252059 0
M  V30 9549 C 893.205 -1.3349 -0.928389 0
M  V30 9550 O 894.389 -1.6286 -0.949156 0
M  V30 9551 C 891.516 -3.10266 -1.35841 0
M  V30 9552 C 890.562 -4.1909 -0.791578 0
M  V30 9553 S 891.395 -5.34323 0.354878 0
M  V30 9554 C 892.551 -6.21348 -0.753511 0
M  V30 9555 H 892.784 -2.94336 0.418744 0
M  V30 9556 H 890.317 -1.50735 0.334413 0
M  V30 9557 H 892.275 -3.58925 -1.99207 0
M  V30 9558 H 890.936 -2.42112 -2.00101 0
M  V30 9559 H 890.129 -4.77183 -1.62212 0
M  V30 9560 H 889.731 -3.73266 -0.234274 0
M  V30 9561 H 892.023 -6.57156 -1.6478 0
M  V30 9562 H 892.966 -7.07788 -0.210141 0
M  V30 9563 H 893.374 -5.54797 -1.04216 0
M  V30 9564 N 892.772 -0.284283 -1.55015 0
M  V30 9565 C 893.704 0.63258 -2.20298 0
M  V30 9566 C 894.717 1.11045 -1.1905 0
M  V30 9567 O 895.906 1.03078 -1.4573 0
M  V30 9568 C 893.006 1.87599 -2.82241 0
M  V30 9569 C 892.179 1.5434 -4.09265 0
M  V30 9570 C 891.238 2.64023 -4.55169 0
M  V30 9571 O 890.264 2.29821 -5.20741 0
M  V30 9572 N 891.466 3.94255 -4.26079 0
M  V30 9573 H 894.231 0.0737928 -2.99609 0
M  V30 9574 H 891.792 -0.105767 -1.61554 0
M  V30 9575 H 893.784 2.60289 -3.0989 0
M  V30 9576 H 892.354 2.3436 -2.06868 0
M  V30 9577 H 891.574 0.649912 -3.88806 0
M  V30 9578 H 892.862 1.29634 -4.92009 0
M  V30 9579 H 892.26 4.24859 -3.73512 0
M  V30 9580 H 890.817 4.63295 -4.58477 0
M  V30 9581 N 894.251 1.57596 -0.0117121 0
M  V30 9582 C 895.183 2.06025 1.0043 0
M  V30 9583 C 896.196 0.980348 1.29973 0
M  V30 9584 O 897.385 1.25691 1.26744 0
M  V30 9585 C 894.485 2.45514 2.33615 0
M  V30 9586 C 893.658 3.76378 2.22842 0
M  V30 9587 C 892.717 4.02606 3.38814 0
M  V30 9588 O 891.743 4.73108 3.16477 0
M  V30 9589 N 892.945 3.51416 4.62047 0
M  V30 9590 H 895.71 2.93811 0.591206 0
M  V30 9591 H 893.271 1.60947 0.175427 0
M  V30 9592 H 895.263 2.60166 3.09993 0
M  V30 9593 H 893.833 1.63186 2.66625 0
M  V30 9594 H 893.053 3.71691 1.313 0
M  V30 9595 H 894.341 4.62149 2.12829 0
M  V30 9596 H 893.739 2.94346 4.83091 0
M  V30 9597 H 892.296 3.71377 5.35651 0
M  V30 9598 N 895.729 -0.261212 1.5542 0
M  V30 9599 C 896.977 -0.989272 1.76232 0
M  V30 9600 C 897.298 -1.86389 0.573067 0
M  V30 9601 O 896.568 -1.91526 -0.41166 0
M  V30 9602 H 895.148 -0.368256 0.64992 0
M  V30 9603 H 897.81 -0.282603 1.9284 0
M  V30 9604 H 896.906 -1.61935 2.66802 0
M  V30 9605 N 897.207 -1.48554 -0.526253 0
M  V30 9606 C 898.432 -1.60686 -1.31129 0
M  V30 9607 C 898.857 -0.268701 -1.86171 0
M  V30 9608 O 898.215 0.760167 -1.64594 0
M  V30 9609 C 898.263 -2.65938 -2.43536 0
M  V30 9610 O 897.367 -2.23356 -3.46678 0
M  V30 9611 H 896.708 -0.538691 -0.388211 0
M  V30 9612 H 899.238 -1.94567 -0.632826 0
M  V30 9613 H 899.248 -2.87327 -2.89668 0
M  V30 9614 H 897.923 -3.63085 -2.02835 0
M  V30 9615 H 896.5 -2.12196 -3.06639 0
M  V30 9616 N 898.685 0.775411 -1.37205 0
M  V30 9617 C 899.595 1.91967 -1.34855 0
M  V30 9618 C 900.611 1.72214 -0.248656 0
M  V30 9619 O 901.787 1.95512 -0.483421 0
M  V30 9620 C 898.852 3.27038 -1.15096 0
M  V30 9621 C 897.913 3.5947 -2.34691 0
M  V30 9622 C 897.146 4.88097 -2.15865 0
M  V30 9623 O 897.369 5.58871 -1.14102 0
M  V30 9624 O 896.303 5.19507 -3.03967 0
M  V30 9625 H 900.129 1.969 -2.31223 0
M  V30 9626 H 897.714 0.917647 -1.17897 0
M  V30 9627 H 899.596 4.07837 -1.0605 0
M  V30 9628 H 898.271 3.22965 -0.217999 0
M  V30 9629 H 897.178 2.7892 -2.49308 0
M  V30 9630 H 898.511 3.68282 -3.26541 0
M  V30 9631 N 900.163 1.21714 1.00117 0
M  V30 9632 C 901.412 1.03087 1.73367 0
M  V30 9633 C 901.725 -0.435532 1.90689 0
M  V30 9634 O 902.931 -0.741291 2.61184 0
M  V30 9635 C 901.387 1.79593 3.11888 0
M  V30 9636 C 900.995 3.30428 3.02525 0
M  V30 9637 C 902.739 1.69386 3.89241 0
M  V30 9638 C 900.646 3.99408 4.3615 0
M  V30 9639 H 899.576 0.382117 0.650002 0
M  V30 9640 H 902.227 1.45486 1.11831 0
M  V30 9641 H 900.609 1.29988 3.74058 0
M  V30 9642 H 901.783 3.87364 2.49571 0
M  V30 9643 H 900.098 3.4122 2.38659 0
M  V30 9644 H 902.695 2.18251 4.8813 0
M  V30 9645 H 903.038 0.652773 4.1115 0
M  V30 9646 H 903.571 2.16489 3.33733 0
M  V30 9647 H 900.31 5.03735 4.19442 0
M  V30 9648 H 899.83 3.47261 4.8905 0
M  V30 9649 H 901.509 4.04537 5.04934 0
M  V30 9650 N 901.641 -1.19671 1.02551 0
M  V30 9651 C 902.574 -2.21522 0.547998 0
M  V30 9652 C 903.552 -1.57363 -0.409349 0
M  V30 9653 O 904.736 -1.85638 -0.327248 0
M  V30 9654 C 901.863 -3.38101 -0.201375 0
M  V30 9655 C 900.909 -4.20601 0.706886 0
M  V30 9656 S 901.742 -4.89066 2.18116 0
M  V30 9657 C 902.898 -6.09058 1.4422 0
M  V30 9658 H 903.131 -2.61684 1.41099 0
M  V30 9659 H 900.664 -1.29864 0.835153 0
M  V30 9660 H 902.622 -4.05674 -0.627607 0
M  V30 9661 H 901.283 -2.96381 -1.04005 0
M  V30 9662 H 900.476 -5.03836 0.128554 0
M  V30 9663 H 900.078 -3.58329 1.07129 0
M  V30 9664 H 902.37 -6.73588 0.726975 0
M  V30 9665 H 903.313 -6.71368 2.25102 0
M  V30 9666 H 903.721 -5.56599 0.941176 0
M  V30 9667 N 903.119 -0.802921 -1.35613 0
M  V30 9668 C 904.53 -0.443004 -1.81368 0
M  V30 9669 C 904.881 1.03459 -1.66706 0
M  V30 9670 O 904.006 1.80372 -1.19561 0
M  V30 9671 C 904.601 -0.797324 -3.29284 0
M  V30 9672 C 903.16 -0.490055 -3.73196 0
M  V30 9673 C 902.307 -1.02487 -2.57666 0
M  V30 9674 H 905.258 -0.994888 -1.23643 0
M  V30 9675 H 905.279 -0.0934638 -3.80385 0
M  V30 9676 H 904.791 -1.87278 -3.39924 0
M  V30 9677 H 902.892 0.576818 -3.68108 0
M  V30 9678 H 903.005 -1.02012 -4.68114 0
M  V30 9679 H 901.369 -0.44738 -2.5074 0
M  V30 9680 H 902.152 -2.10636 -2.71085 0
M  V30 9681 N 904.597 1.47463 -0.556102 0
M  V30 9682 C 906.013 1.58134 -0.21579 0
M  V30 9683 C 906.213 1.55486 1.28166 0
M  V30 9684 O 905.269 1.45768 2.06174 0
M  V30 9685 C 906.582 2.88686 -0.841464 0
M  V30 9686 C 908.13 3.02268 -0.812591 0
M  V30 9687 C 908.605 4.35518 -1.41731 0
M  V30 9688 N 910.096 4.42151 -1.38045 0
M  V30 9689 C 910.831 5.43817 -1.81799 0
M  V30 9690 N 910.327 6.52299 -2.33404 0
M  V30 9691 N 912.12 5.34855 -1.72877 0
M  V30 9692 H 904.271 1.47428 -1.52901 0
M  V30 9693 H 906.534 0.701586 -0.637559 0
M  V30 9694 H 906.24 2.96358 -1.8938 0
M  V30 9695 H 906.114 3.7572 -0.333846 0
M  V30 9696 H 908.501 2.94194 0.231056 0
M  V30 9697 H 908.582 2.16779 -1.35796 0
M  V30 9698 H 908.226 4.44348 -2.46002 0
M  V30 9699 H 908.156 5.19737 -0.847402 0
M  V30 9700 H 910.647 3.64348 -1.00296 0
M  V30 9701 H 910.96 7.26047 -2.64717 0
M  V30 9702 H 909.305 6.53192 -2.37414 0
M  V30 9703 H 912.496 4.49004 -1.32338 0
M  V30 9704 H 912.669 6.13949 -2.07294 0
M  V30 9705 N 906.075 0.2925 1.54862 0
M  V30 9706 C 907.038 -0.574423 2.21885 0
M  V30 9707 C 908.038 -1.06791 1.20218 0
M  V30 9708 O 909.228 -0.9653 1.45009 0
M  V30 9709 C 906.36 -1.79438 2.89853 0
M  V30 9710 H 907.553 0.0110319 2.99898 0
M  V30 9711 H 905.106 0.043256 1.5624 0
M  V30 9712 H 905.841 -2.4199 2.15897 0
M  V30 9713 H 905.626 -1.44827 3.64373 0
M  V30 9714 H 907.116 -2.41048 3.41007 0
M  V30 9715 N 907.553 -1.57587 0.0200696 0
M  V30 9716 C 908.483 -2.12702 -0.963333 0
M  V30 9717 C 909.464 -1.04094 -1.34531 0
M  V30 9718 O 910.649 -1.31881 -1.42552 0
M  V30 9719 C 907.779 -2.64673 -2.24868 0
M  V30 9720 C 906.733 -3.77987 -2.00772 0
M  V30 9721 C 906.059 -4.16351 -3.35494 0
M  V30 9722 C 907.359 -5.0444 -1.35416 0
M  V30 9723 H 909.053 -2.95121 -0.504363 0
M  V30 9724 H 906.599 -1.41966 -0.24116 0
M  V30 9725 H 908.552 -3.01862 -2.94036 0
M  V30 9726 H 907.276 -1.79403 -2.72914 0
M  V30 9727 H 905.935 -3.41223 -1.34025 0
M  V30 9728 H 905.583 -3.28075 -3.81282 0
M  V30 9729 H 905.283 -4.92705 -3.20181 0
M  V30 9730 H 906.807 -4.56115 -4.05945 0
M  V30 9731 H 908.221 -5.39273 -1.94571 0
M  V30 9732 H 906.618 -5.85732 -1.30529 0
M  V30 9733 H 907.688 -4.83803 -0.325923 0
M  V30 9734 N 909.032 0.252966 -1.55557 0
M  V30 9735 C 910.257 1.0038 -1.8149 0
M  V30 9736 C 910.682 1.78397 -0.596318 0
M  V30 9737 O 910.04 1.7551 0.454535 0
M  V30 9738 C 910.088 1.9222 -3.05096 0
M  V30 9739 O 909.192 3.01302 -2.81587 0
M  V30 9740 H 908.533 0.285949 -0.599274 0
M  V30 9741 H 911.063 0.275795 -2.02733 0
M  V30 9742 H 911.073 2.338 -3.34368 0
M  V30 9743 H 909.748 1.34852 -3.93431 0
M  V30 9744 H 908.325 2.63894 -2.63466 0
M  V30 9745 N 910.51 1.48831 0.518367 0
M  V30 9746 C 911.738 1.6112 1.298 0
M  V30 9747 C 912.153 0.275872 1.86774 0
M  V30 9748 O 911.51 -0.736416 1.66983 0
M  V30 9749 C 911.561 2.66675 2.44063 0
M  V30 9750 O 911.282 3.95027 1.89434 0
M  V30 9751 C 912.783 2.8951 3.35706 0
M  V30 9752 H 910.003 0.542916 0.394314 0
M  V30 9753 H 912.547 1.94743 0.624142 0
M  V30 9754 H 910.702 2.35879 3.07311 0
M  V30 9755 H 911.116 4.53031 2.64316 0
M  V30 9756 H 912.59 3.67142 4.12202 0
M  V30 9757 H 913.067 1.98768 3.91648 0
M  V30 9758 H 913.673 3.21656 2.7824 0
M  V30 9759 N 911.988 -0.768124 1.37614 0
M  V30 9760 C 913.404 -1.06919 1.18493 0
M  V30 9761 C 913.604 -2.01486 0.0235753 0
M  V30 9762 O 912.66 -2.4438 -0.635209 0
M  V30 9763 C 913.973 -1.66321 2.50515 0
M  V30 9764 C 915.521 -1.78562 2.57069 0
M  V30 9765 C 915.996 -2.41377 3.89231 0
M  V30 9766 N 917.487 -2.48824 3.90693 0
M  V30 9767 C 918.222 -2.98288 4.89706 0
M  V30 9768 N 917.718 -3.47897 5.99115 0
M  V30 9769 N 919.511 -2.97196 4.77107 0
M  V30 9770 H 911.662 -0.140286 2.11936 0
M  V30 9771 H 913.925 -0.124863 0.939741 0
M  V30 9772 H 913.631 -1.04303 3.35878 0
M  V30 9773 H 913.505 -2.65571 2.67866 0
M  V30 9774 H 915.892 -2.39712 1.72111 0
M  V30 9775 H 915.973 -0.780574 2.43599 0
M  V30 9776 H 915.617 -1.80866 4.74605 0
M  V30 9777 H 915.547 -3.42495 4.00006 0
M  V30 9778 H 918.038 -2.1372 3.1166 0
M  V30 9779 H 918.351 -3.84053 6.70614 0
M  V30 9780 H 916.696 -3.45993 6.02755 0
M  V30 9781 H 919.887 -2.57741 3.90752 0
M  V30 9782 H 920.06 -3.35434 5.54426 0
M  V30 9783 N 913.466 -1.22244 -0.994698 0
M  V30 9784 C 914.706 -1.05747 -1.7492 0
M  V30 9785 C 915.07 0.4007 -1.87772 0
M  V30 9786 O 916.271 0.686469 -2.59887 0
M  V30 9787 C 914.542 -1.7471 -3.11787 0
M  V30 9788 S 916.101 -1.73604 -4.02998 0
M  V30 9789 H 912.919 -0.378731 -0.601734 0
M  V30 9790 H 915.521 -1.55155 -1.18942 0
M  V30 9791 H 914.225 -2.79972 -3.00073 0
M  V30 9792 H 913.756 -1.25525 -3.72836 0
M  V30 9793 H 915.771 -0.784445 -4.8996 0
M  V30 9794 N 914.944 1.19125 -1.03184 0
M  V30 9795 C 916.19 1.89163 -0.731111 0
M  V30 9796 C 916.523 1.79604 0.738662 0
M  V30 9797 O 915.798 1.19037 1.53819 0
M  V30 9798 C 916.081 3.39986 -1.18666 0
M  V30 9799 C 915.934 3.58401 -2.71788 0
M  V30 9800 C 917.253 4.33316 -0.769772 0
M  V30 9801 H 914.372 0.686908 -0.267069 0
M  V30 9802 H 917.014 1.40205 -1.28229 0
M  V30 9803 H 915.164 3.81813 -0.717736 0
M  V30 9804 H 916.836 3.25727 -3.26649 0
M  V30 9805 H 915.079 3.01355 -3.12038 0
M  V30 9806 H 915.75 4.64189 -2.98719 0
M  V30 9807 H 918.226 3.9922 -1.17314 0
M  V30 9808 H 917.102 5.37427 -1.11637 0
M  V30 9809 H 917.363 4.40884 0.327681 0
M  V30 9810 N 916.422 0.810101 1.35185 0
M  V30 9811 C 917.647 0.40364 2.03434 0
M  V30 9812 C 918.072 -0.97857 1.60641 0
M  V30 9813 O 917.43 -1.63435 0.784779 0
M  V30 9814 C 917.478 0.499154 3.57129 0
M  V30 9815 O 916.582 -0.486039 4.09526 0
M  V30 9816 H 915.923 0.168049 0.642383 0
M  V30 9817 H 918.453 1.09696 1.72708 0
M  V30 9818 H 918.463 0.370236 4.06317 0
M  V30 9819 H 917.138 1.50733 3.87624 0
M  V30 9820 H 915.715 -0.31707 3.7155 0
M  V30 9821 N 917.9 -1.47166 0.563914 0
M  V30 9822 C 919.148 -2.02056 0.0422873 0
M  V30 9823 C 919.469 -1.43992 -1.31497 0
M  V30 9824 O 918.739 -0.617578 -1.85911 0
M  V30 9825 H 917.319 -0.746893 0.0126427 0
M  V30 9826 H 919.981 -1.80492 0.735441 0
M  V30 9827 H 919.077 -3.12073 -0.0408044 0
M  V30 9828 N 919.378 -0.300708 -1.54705 0
M  V30 9829 C 920.624 0.309111 -2.0043 0
M  V30 9830 C 920.957 1.53562 -1.1888 0
M  V30 9831 O 920.232 1.92683 -0.265205 0
M  V30 9832 C 920.515 0.665995 -3.53888 0
M  V30 9833 C 920.368 -0.56963 -4.46178 0
M  V30 9834 C 921.687 1.49262 -4.14016 0
M  V30 9835 H 918.806 0.110878 -0.728612 0
M  V30 9836 H 921.448 -0.412748 -1.85463 0
M  V30 9837 H 919.598 1.281 -3.66773 0
M  V30 9838 H 921.27 -1.20811 -4.45199 0
M  V30 9839 H 919.513 -1.20292 -4.16788 0
M  V30 9840 H 920.184 -0.275785 -5.51311 0
M  V30 9841 H 922.66 0.972979 -4.04564 0
M  V30 9842 H 921.536 1.71111 -5.21548 0
M  V30 9843 H 921.797 2.48174 -3.65872 0
M  V30 9844 N 920.856 1.57574 -0.0284266 0
M  V30 9845 C 922.102 1.92884 0.645544 0
M  V30 9846 C 922.457 0.905203 1.69776 0
M  V30 9847 O 921.75 -0.0788509 1.91438 0
M  V30 9848 C 921.944 3.32699 1.3056 0
M  V30 9849 C 921.773 4.48568 0.318848 0
M  V30 9850 C 920.543 5.05235 -0.0810373 0
M  V30 9851 C 922.741 5.12528 -0.426575 0
M  V30 9852 N 920.723 6.04626 -1.06303 0
M  V30 9853 C 922.094 6.07013 -1.26235 0
M  V30 9854 C 924.149 4.95509 -0.48735 0
M  V30 9855 C 922.852 6.8631 -2.15341 0
M  V30 9856 C 924.878 5.75414 -1.36575 0
M  V30 9857 C 924.24 6.69514 -2.1893 0
M  V30 9858 H 920.339 0.753677 0.208555 0
M  V30 9859 H 922.923 1.94466 -0.095439 0
M  V30 9860 H 921.094 3.31938 2.01673 0
M  V30 9861 H 922.826 3.55359 1.93655 0
M  V30 9862 H 919.581 4.72691 0.293264 0
M  V30 9863 H 920.005 6.59012 -1.55025 0
M  V30 9864 H 924.647 4.22584 0.135112 0
M  V30 9865 H 922.365 7.58541 -2.78642 0
M  V30 9866 H 925.951 5.64279 -1.41705 0
M  V30 9867 H 924.831 7.30266 -2.85799 0
M  V30 9868 N 922.334 -0.244713 1.55689 0
M  V30 9869 C 923.58 -0.969623 1.78801 0
M  V30 9870 C 923.935 -1.8288 0.597716 0
M  V30 9871 O 923.228 -1.87184 -0.408978 0
M  V30 9872 C 923.422 -1.8617 3.05083 0
M  V30 9873 C 923.251 -1.09036 4.36281 0
M  V30 9874 C 922.021 -0.794585 4.99013 0
M  V30 9875 C 924.219 -0.466883 5.12176 0
M  V30 9876 N 922.201 0.000579944 6.139 0
M  V30 9877 C 923.572 0.192755 6.197 0
M  V30 9878 C 925.627 -0.377571 4.96466 0
M  V30 9879 C 924.33 0.933132 7.13222 0
M  V30 9880 C 926.356 0.349281 5.90368 0
M  V30 9881 C 925.718 0.997549 6.97301 0
M  V30 9882 H 921.817 -0.335845 0.70621 0
M  V30 9883 H 924.401 -0.242559 1.93183 0
M  V30 9884 H 922.572 -2.56077 2.92026 0
M  V30 9885 H 924.304 -2.52234 3.16481 0
M  V30 9886 H 921.059 -1.10691 4.60483 0
M  V30 9887 H 921.483 0.38632 6.75897 0
M  V30 9888 H 926.125 -0.86443 4.13869 0
M  V30 9889 H 923.843 1.43159 7.95318 0
M  V30 9890 H 927.429 0.419082 5.80289 0
M  V30 9891 H 926.309 1.551 7.68709 0
M  V30 9892 N 923.813 -1.49104 -0.510467 0
M  V30 9893 C 924.776 -1.64569 -1.59529 0
M  V30 9894 C 925.776 -0.517937 -1.5223 0
M  V30 9895 O 926.966 -0.784183 -1.55551 0
M  V30 9896 C 924.098 -1.6342 -2.99177 0
M  V30 9897 H 925.291 -2.61318 -1.4715 0
M  V30 9898 H 922.844 -1.37993 -0.734001 0
M  V30 9899 H 923.579 -0.68221 -3.17043 0
M  V30 9900 H 923.364 -2.45312 -3.05883 0
M  V30 9901 H 924.854 -1.77474 -3.78011 0
M  V30 9902 N 925.291 0.760815 -1.38019 0
M  V30 9903 C 926.538 1.51973 -1.3383 0
M  V30 9904 C 926.866 1.9436 0.0738855 0
M  V30 9905 O 926.121 1.65181 1.04946 0
M  V30 9906 C 926.42 2.79024 -2.23339 0
M  V30 9907 C 926.086 2.55636 -3.71431 0
M  V30 9908 C 924.748 2.48966 -4.11788 0
M  V30 9909 C 927.1 2.35018 -4.65205 0
M  V30 9910 C 924.428 2.19684 -5.44018 0
M  V30 9911 C 926.78 2.07258 -5.97685 0
M  V30 9912 C 925.444 1.9904 -6.37134 0
M  V30 9913 H 924.714 0.556108 -0.489719 0
M  V30 9914 H 927.361 0.87545 -1.70318 0
M  V30 9915 H 925.666 3.48065 -1.79883 0
M  V30 9916 H 927.363 3.36951 -2.17405 0
M  V30 9917 H 923.953 2.61695 -3.39432 0
M  V30 9918 H 928.137 2.39154 -4.34878 0
M  V30 9919 H 923.393 2.11825 -5.73533 0
M  V30 9920 H 927.567 1.90307 -6.69893 0
M  V30 9921 H 925.194 1.76115 -7.39519 0
M  V30 9922 N 926.769 1.22769 0.988202 0
M  V30 9923 C 927.997 1.08155 1.76381 0
M  V30 9924 C 928.412 -0.367573 1.85187 0
M  V30 9925 O 927.769 -1.25455 1.32541 0
M  V30 9926 C 927.82 1.69193 3.19462 0
M  V30 9927 O 927.541 3.08437 3.11125 0
M  V30 9928 C 929.042 1.59915 4.13451 0
M  V30 9929 H 926.262 0.378908 0.553778 0
M  V30 9930 H 928.806 1.6246 1.24206 0
M  V30 9931 H 926.961 1.18939 3.6869 0
M  V30 9932 H 927.375 3.37916 4.0114 0
M  V30 9933 H 928.849 2.07339 5.1158 0
M  V30 9934 H 929.326 0.556546 4.3566 0
M  V30 9935 H 929.932 2.09497 3.70123 0
M  V30 9936 N 928.247 -1.18576 1.03814 0
M  V30 9937 C 929.177 -2.24334 0.647795 0
M  V30 9938 C 930.158 -1.66508 -0.34774 0
M  V30 9939 O 931.343 -1.92852 -0.228401 0
M  V30 9940 C 928.473 -3.47299 0.00734922 0
M  V30 9941 C 927.427 -4.17859 0.926152 0
M  V30 9942 C 926.753 -5.34489 0.150317 0
M  V30 9943 C 928.053 -4.71632 2.24411 0
M  V30 9944 H 929.747 -2.57241 1.53191 0
M  V30 9945 H 927.293 -1.23649 0.738028 0
M  V30 9946 H 929.246 -4.20486 -0.277434 0
M  V30 9947 H 927.97 -3.13619 -0.911626 0
M  V30 9948 H 926.629 -3.46567 1.19528 0
M  V30 9949 H 926.277 -4.97056 -0.770985 0
M  V30 9950 H 925.977 -5.82633 0.762407 0
M  V30 9951 H 927.501 -6.10467 -0.127508 0
M  V30 9952 H 928.915 -5.36526 2.02021 0
M  V30 9953 H 927.312 -5.303 2.80894 0
M  V30 9954 H 928.382 -3.89192 2.89236 0
M  V30 9955 N 929.725 -0.817259 -1.34754 0
M  V30 9956 C 930.974 -0.39908 -1.97713 0
M  V30 9957 C 931.287 1.04203 -1.65533 0
M  V30 9958 O 932.493 1.56384 -2.21937 0
M  V30 9959 C 930.949 -0.662634 -3.53747 0
M  V30 9960 C 930.557 -2.11699 -3.94826 0
M  V30 9961 C 932.301 -0.31034 -4.23364 0
M  V30 9962 C 930.208 -2.32573 -5.4375 0
M  V30 9963 H 929.138 -0.145488 -0.739831 0
M  V30 9964 H 931.789 -1.00282 -1.53674 0
M  V30 9965 H 930.171 0.0111972 -3.95998 0
M  V30 9966 H 931.345 -2.82951 -3.63697 0
M  V30 9967 H 929.66 -2.43017 -3.3813 0
M  V30 9968 H 932.257 -0.44421 -5.32852 0
M  V30 9969 H 932.6 0.744594 -4.09587 0
M  V30 9970 H 933.133 -0.938518 -3.8657 0
M  V30 9971 H 929.872 -3.36551 -5.62507 0
M  V30 9972 H 929.392 -1.65858 -5.76412 0
M  V30 9973 H 931.071 -2.14651 -6.10356 0
M  V30 9974 N 931.203 1.46865 -0.571711 0
M  V30 9975 C 932.452 2.01636 -0.050881 0
M  V30 9976 C 932.765 1.45001 1.31279 0
M  V30 9977 O 933.971 1.91523 1.92435 0
M  V30 9978 C 932.427 3.59877 -0.0404114 0
M  V30 9979 C 932.035 4.25506 -1.40172 0
M  V30 9980 C 933.779 4.22346 0.42705 0
M  V30 9981 C 931.686 5.75795 -1.34958 0
M  V30 9982 H 930.616 0.753846 -0.0152514 0
M  V30 9983 H 933.267 1.68711 -0.721723 0
M  V30 9984 H 931.649 3.89829 0.696374 0
M  V30 9985 H 932.823 4.07178 -2.15737 0
M  V30 9986 H 931.138 3.75086 -1.8083 0
M  V30 9987 H 933.735 5.32499 0.484688 0
M  V30 9988 H 934.078 3.9052 1.44222 0
M  V30 9989 H 934.611 3.9698 -0.255326 0
M  V30 9990 H 931.35 6.12265 -2.3412 0
M  V30 9991 H 930.87 5.96419 -0.635962 0
M  V30 9992 H 932.549 6.38294 -1.05779 0
M  V30 9993 N 932.681 0.308908 1.54543 0
M  V30 9994 C 933.93 -0.298854 1.99474 0
M  V30 9995 C 934.243 -1.54393 1.20093 0
M  V30 9996 O 935.449 -2.22677 1.55329 0
M  V30 9997 C 933.905 -0.58303 3.55146 0
M  V30 9998 C 933.513 0.644157 4.43345 0
M  V30 9999 C 935.257 -1.15155 4.08582 0
M  V30 10000 C 933.164 0.332694 5.90463 0
M  V30 10001 H 932.094 -0.115445 0.74511 0
M  V30 10002 H 934.745 0.418848 1.78656 0
M  V30 10003 H 933.127 -1.36053 3.71894 0
M  V30 10004 H 934.301 1.42012 4.38371 0
M  V30 10005 H 932.616 1.13186 4.00722 0
M  V30 10006 H 935.213 -1.39896 5.16075 0
M  V30 10007 H 935.556 -2.09632 3.59667 0
M  V30 10008 H 936.089 -0.435571 3.95408 0
M  V30 10009 H 932.828 1.24624 6.43544 0
M  V30 10010 H 932.348 -0.405844 5.98425 0
M  V30 10011 H 934.027 -0.0628545 6.46969 0
M  V30 10012 N 934.159 -1.57557 0.0367827 0
M  V30 10013 C 935.384 -1.96828 -0.653707 0
M  V30 10014 C 935.809 -0.913559 -1.64425 0
M  V30 10015 O 935.167 0.124749 -1.8087 0
M  V30 10016 C 935.215 -3.35189 -1.32969 0
M  V30 10017 O 934.319 -3.32095 -2.44513 0
M  V30 10018 H 933.66 -0.64157 -0.171124 0
M  V30 10019 H 936.19 -2.04351 0.100912 0
M  V30 10020 H 936.2 -3.71593 -1.68472 0
M  V30 10021 H 934.875 -4.11496 -0.603654 0
M  V30 10022 H 933.452 -3.07418 -2.11065 0
M  V30 10023 N 935.637 0.236453 -1.55816 0
M  V30 10024 C 936.862 0.98449 -1.82545 0
M  V30 10025 C 937.287 1.77755 -0.615206 0
M  V30 10026 O 936.645 1.75982 0.435895 0
M  V30 10027 C 936.693 1.88973 -3.07118 0
M  V30 10028 O 935.797 2.98298 -2.84766 0
M  V30 10029 H 935.138 0.279577 -0.602273 0
M  V30 10030 H 937.668 0.254277 -2.03014 0
M  V30 10031 H 937.678 2.3024 -3.36829 0
M  V30 10032 H 936.353 1.30671 -3.94839 0
M  V30 10033 H 934.93 2.61085 -2.6625 0
M  V30 10034 N 937.115 1.49373 0.502552 0
M  V30 10035 C 938.345 1.62252 1.27898 0
M  V30 10036 C 938.753 0.292555 1.86924 0
M  V30 10037 O 938.096 -0.731823 1.68493 0
M  V30 10038 C 938.158 2.63153 2.4493 0
M  V30 10039 C 937.822 4.07541 2.06784 0
M  V30 10040 C 938.819 4.94392 1.60849 0
M  V30 10041 C 936.504 4.53263 2.16466 0
M  V30 10042 C 938.498 6.25003 1.25098 0
M  V30 10043 C 936.185 5.83888 1.80327 0
M  V30 10044 C 937.183 6.69582 1.34718 0
M  V30 10045 O 936.871 7.97773 0.990661 0
M  V30 10046 H 936.603 0.54918 0.394179 0
M  V30 10047 H 939.157 1.96132 0.610031 0
M  V30 10048 H 937.387 2.2445 3.14895 0
M  V30 10049 H 939.076 2.65578 3.06957 0
M  V30 10050 H 939.842 4.60296 1.52816 0
M  V30 10051 H 935.721 3.86731 2.50919 0
M  V30 10052 H 939.265 6.91844 0.894269 0
M  V30 10053 H 935.162 6.17513 1.8801 0
M  V30 10054 H 935.93 8.1077 1.12227 0
M  V30 10055 N 938.594 -0.753485 1.38421 0
M  V30 10056 C 939.822 -1.54272 1.37868 0
M  V30 10057 C 940.237 -1.88774 -0.0315155 0
M  V30 10058 O 939.594 -1.52785 -0.998148 0
M  V30 10059 C 939.645 -2.84179 2.23438 0
M  V30 10060 O 939.366 -2.51149 3.58965 0
M  V30 10061 C 940.867 -3.78316 2.31067 0
M  V30 10062 H 938.087 -0.47735 0.47157 0
M  V30 10063 H 940.631 -0.932509 1.82001 0
M  V30 10064 H 938.786 -3.41577 1.82767 0
M  V30 10065 H 939.2 -3.34466 4.04021 0
M  V30 10066 H 940.674 -4.66418 2.95226 0
M  V30 10067 H 941.151 -4.18757 1.32436 0
M  V30 10068 H 941.757 -3.26842 2.72129 0
M  V30 10069 N 940.072 -1.23292 -0.981677 0
M  V30 10070 C 941.035 -1.01417 -2.05542 0
M  V30 10071 C 942.035 0.0235354 -1.60783 0
M  V30 10072 O 943.225 -0.216082 -1.72855 0
M  V30 10073 C 940.357 -0.534239 -3.36688 0
M  V30 10074 H 941.55 -1.96702 -2.26381 0
M  V30 10075 H 939.103 -1.05318 -1.1549 0
M  V30 10076 H 939.838 0.422452 -3.21537 0
M  V30 10077 H 939.623 -1.28304 -3.70514 0
M  V30 10078 H 941.113 -0.40179 -4.15663 0
M  V30 10079 N 941.55 1.18024 -1.04442 0
M  V30 10080 C 942.498 2.23834 -0.632557 0
M  V30 10081 C 943.492 1.65902 0.342488 0
M  V30 10082 O 944.698 1.78778 0.20937 0
M  V30 10083 H 941.073 0.728544 -0.186353 0
M  V30 10084 H 943.044 2.55876 -1.53526 0
M  V30 10085 C 941.793 3.47697 -0.0153661 0
M  V30 10086 H 941.116 3.92574 -0.756704 0
M  V30 10087 H 942.556 4.23345 0.235541 0
M  V30 10088 C 941.015 3.13416 1.23579 0
M  V30 10089 O 941.545 3.27499 2.3261 0
M  V30 10090 N 939.751 2.67708 1.13053 0
M  V30 10091 H 939.298 2.56449 0.243277 0
M  V30 10092 H 939.256 2.45143 1.96855 0
M  V30 10093 N 943.028 0.824394 1.34319 0
M  V30 10094 C 943.958 0.262077 2.32025 0
M  V30 10095 C 944.939 -0.622277 1.58309 0
M  V30 10096 O 946.124 -0.548848 1.86283 0
M  V30 10097 C 943.254 -0.57567 3.42496 0
M  V30 10098 C 942.208 0.21167 4.27476 0
M  V30 10099 C 941.534 -0.748913 5.29429 0
M  V30 10100 C 942.834 1.42068 5.02607 0
M  V30 10101 H 944.528 1.07842 2.79304 0
M  V30 10102 H 942.074 0.520022 1.34282 0
M  V30 10103 H 944.027 -0.979251 4.09864 0
M  V30 10104 H 942.751 -1.42508 2.93869 0
M  V30 10105 H 941.41 0.596636 3.61712 0
M  V30 10106 H 941.058 -1.59432 4.77064 0
M  V30 10107 H 940.758 -0.226313 5.87164 0
M  V30 10108 H 942.282 -1.15032 5.99667 0
M  V30 10109 H 943.696 1.09103 5.62823 0
M  V30 10110 H 942.093 1.87903 5.69923 0
M  V30 10111 H 943.163 2.1981 4.32217 0
M  V30 10112 N 944.506 -1.46559 0.579492 0
M  V30 10113 C 945.469 -2.28739 -0.145371 0
M  V30 10114 C 946.469 -1.38211 -0.821854 0
M  V30 10115 O 947.659 -1.6062 -0.674302 0
M  V30 10116 C 944.791 -3.18507 -1.21515 0
M  V30 10117 H 945.984 -2.94301 0.576786 0
M  V30 10118 H 943.537 -1.52616 0.337327 0
M  V30 10119 H 944.272 -2.57685 -1.96899 0
M  V30 10120 H 944.057 -3.85157 -0.734616 0
M  V30 10121 H 945.547 -3.80369 -1.72363 0
M  V30 10122 N 945.984 -0.3171 -1.54377 0
M  V30 10123 C 946.947 0.53905 -2.22771 0
M  V30 10124 C 947.947 1.04865 -1.21901 0
M  V30 10125 O 949.137 0.942108 -1.46526 0
M  V30 10126 C 946.269 1.74804 -2.92671 0
M  V30 10127 H 947.462 -0.0587417 -2.99842 0
M  V30 10128 H 945.015 -0.068107 -1.56152 0
M  V30 10129 H 945.75 2.38524 -2.1972 0
M  V30 10130 H 945.535 1.39011 -3.66631 0
M  V30 10131 H 947.025 2.35592 -3.44799 0
M  V30 10132 N 947.462 1.57535 -0.0451378 0
M  V30 10133 C 948.709 1.92451 0.629987 0
M  V30 10134 C 949.037 0.92298 1.71206 0
M  V30 10135 O 948.292 -0.0656626 1.9559 0
M  V30 10136 C 948.591 3.34065 1.27024 0
M  V30 10137 C 948.257 4.49785 0.316971 0
M  V30 10138 C 946.919 4.81169 0.0546406 0
M  V30 10139 C 949.271 5.20111 -0.336693 0
M  V30 10140 C 946.599 5.8023 -0.86889 0
M  V30 10141 C 948.951 6.2016 -1.24838 0
M  V30 10142 C 947.615 6.49976 -1.51944 0
M  V30 10143 H 946.885 0.704228 0.230529 0
M  V30 10144 H 949.532 1.91182 -0.110328 0
M  V30 10145 H 947.837 3.31672 2.08568 0
M  V30 10146 H 949.534 3.58359 1.79945 0
M  V30 10147 H 946.124 4.2529 0.531614 0
M  V30 10148 H 950.308 4.96082 -0.147105 0
M  V30 10149 H 945.564 6.0167 -1.08643 0
M  V30 10150 H 949.738 6.73767 -1.76098 0
M  V30 10151 H 947.365 7.26551 -2.2367 0
M  V30 10152 N 948.94 -0.228186 1.55939 0
M  V30 10153 C 949.87 -1.28607 1.94891 0
M  V30 10154 C 950.851 -1.49236 0.816245 0
M  V30 10155 O 952.036 -1.61531 1.07803 0
M  V30 10156 C 949.166 -2.63719 2.25986 0
M  V30 10157 C 948.12 -2.57757 3.4168 0
M  V30 10158 C 947.446 -3.96837 3.58364 0
M  V30 10159 C 948.746 -2.13116 4.76843 0
M  V30 10160 H 950.44 -0.962531 2.83506 0
M  V30 10161 H 947.986 -0.461577 1.36402 0
M  V30 10162 H 949.939 -3.37878 2.51826 0
M  V30 10163 H 948.663 -2.97747 1.34217 0
M  V30 10164 H 947.322 -1.86055 3.15878 0
M  V30 10165 H 946.97 -4.28162 2.63982 0
M  V30 10166 H 946.67 -3.93731 4.36176 0
M  V30 10167 H 948.194 -4.72668 3.86545 0
M  V30 10168 H 949.608 -2.77015 5.01932 0
M  V30 10169 H 948.005 -2.21083 5.57891 0
M  V30 10170 H 949.075 -1.08326 4.72645 0
M  V30 10171 N 950.418 -1.49637 -0.494624 0
M  V30 10172 C 951.646 -1.63164 -1.2722 0
M  V30 10173 C 952.061 -0.305552 -1.86311 0
M  V30 10174 O 951.418 0.709758 -1.68133 0
M  V30 10175 C 951.469 -2.70524 -2.39789 0
M  V30 10176 O 951.19 -3.97991 -1.83126 0
M  V30 10177 C 952.691 -2.94814 -3.31058 0
M  V30 10178 H 949.911 -0.54912 -0.385627 0
M  V30 10179 H 952.455 -1.95711 -0.593081 0
M  V30 10180 H 950.61 -2.40738 -3.03519 0
M  V30 10181 H 951.024 -4.57179 -2.57075 0
M  V30 10182 H 952.498 -3.73653 -4.06309 0
M  V30 10183 H 952.975 -2.04974 -3.88436 0
M  V30 10184 H 953.581 -3.26042 -2.73088 0
M  V30 10185 N 951.896 0.746133 -1.38819 0
M  V30 10186 C 953.142 1.50768 -1.35635 0
M  V30 10187 C 953.475 1.94132 0.0512435 0
M  V30 10188 O 952.75 1.65979 1.01396 0
M  V30 10189 C 953.033 2.7551 -2.31875 0
M  V30 10190 C 952.886 2.38236 -3.81528 0
M  V30 10191 C 954.205 3.77566 -2.26124 0
M  V30 10192 H 951.324 0.546922 -0.494009 0
M  V30 10193 H 953.966 0.854017 -1.69725 0
M  V30 10194 H 952.116 3.31285 -2.02935 0
M  V30 10195 H 953.788 1.88178 -4.21173 0
M  V30 10196 H 952.031 1.70601 -3.98846 0
M  V30 10197 H 952.702 3.27517 -4.44339 0
M  V30 10198 H 955.178 3.31349 -2.51689 0
M  V30 10199 H 954.054 4.62531 -2.95561 0
M  V30 10200 H 954.315 4.23689 -1.26254 0
M  V30 10201 N 953.375 1.23811 0.975125 0
M  V30 10202 C 954.307 0.981779 2.07108 0
M  V30 10203 C 955.32 -0.0461211 1.62735 0
M  V30 10204 O 956.509 0.190039 1.77486 0
M  V30 10205 C 953.609 0.458364 3.35786 0
M  V30 10206 C 952.782 1.54767 4.09104 0
M  V30 10207 C 951.841 1.0282 5.16057 0
M  V30 10208 O 950.867 1.71831 5.42644 0
M  V30 10209 N 952.069 -0.141243 5.80328 0
M  V30 10210 H 954.834 1.92537 2.29673 0
M  V30 10211 H 952.395 1.1474 1.14221 0
M  V30 10212 H 954.387 0.0957686 4.04587 0
M  V30 10213 H 952.957 -0.390768 3.10148 0
M  V30 10214 H 952.177 2.08279 3.34684 0
M  V30 10215 H 953.465 2.28006 4.54853 0
M  V30 10216 H 952.863 -0.718382 5.6112 0
M  V30 10217 H 951.42 -0.445052 6.50279 0
M  V30 10218 N 954.853 -1.17469 1.05066 0
M  V30 10219 C 956.269 -1.39699 0.771769 0
M  V30 10220 C 956.469 -1.91253 -0.634382 0
M  V30 10221 O 955.525 -2.10334 -1.39699 0
M  V30 10222 C 956.838 -2.38886 1.82631 0
M  V30 10223 C 958.386 -2.52595 1.84838 0
M  V30 10224 C 958.861 -3.55054 2.89311 0
M  V30 10225 N 960.352 -3.6257 2.88266 0
M  V30 10226 C 961.087 -4.41603 3.65752 0
M  V30 10227 N 960.583 -5.24162 4.53019 0
M  V30 10228 N 962.376 -4.36464 3.54197 0
M  V30 10229 H 954.527 -0.823355 1.95792 0
M  V30 10230 H 956.79 -0.42432 0.847736 0
M  V30 10231 H 956.496 -2.08075 2.83545 0
M  V30 10232 H 956.37 -3.38371 1.66687 0
M  V30 10233 H 958.757 -2.82717 0.845888 0
M  V30 10234 H 958.838 -1.53188 2.04859 0
M  V30 10235 H 958.482 -3.2567 3.89745 0
M  V30 10236 H 958.412 -4.54162 2.66542 0
M  V30 10237 H 960.903 -3.03625 2.24989 0
M  V30 10238 H 961.216 -5.81646 5.0883 0
M  V30 10239 H 959.561 -5.23547 4.57081 0
M  V30 10240 H 962.752 -3.7102 2.85416 0
M  V30 10241 H 962.925 -4.97814 4.14832 0
M  V30 10242 N 956.331 -0.831506 -1.3388 0
M  V30 10243 C 957.264 -0.2046 -2.27281 0
M  V30 10244 C 958.242 0.643992 -1.49303 0
M  V30 10245 O 959.426 0.605863 -1.78498 0
M  V30 10246 C 956.553 0.713409 -3.31101 0
M  V30 10247 C 955.599 -0.0587654 -4.2646 0
M  V30 10248 S 956.432 -1.41172 -5.16557 0
M  V30 10249 C 957.588 -0.498807 -6.23909 0
M  V30 10250 H 957.821 -0.996442 -2.80104 0
M  V30 10251 H 955.354 -0.62786 -1.41058 0
M  V30 10252 H 957.312 1.23748 -3.91403 0
M  V30 10253 H 955.973 1.47885 -2.77108 0
M  V30 10254 H 955.166 0.639466 -4.99927 0
M  V30 10255 H 954.768 -0.513665 -3.70456 0
M  V30 10256 H 957.06 0.306268 -6.76807 0
M  V30 10257 H 958.003 -1.20342 -6.97799 0
M  V30 10258 H 958.411 -0.0834242 -5.64438 0
M  V30 10259 N 957.809 1.4625 -0.587256 0
M  V30 10260 C 958.719 2.34147 0.145744 0
M  V30 10261 C 959.735 1.50026 0.881376 0
M  V30 10262 O 960.911 1.82884 0.843539 0
M  V30 10263 C 957.976 3.27294 1.14366 0
M  V30 10264 C 957.037 4.27317 0.412199 0
M  V30 10265 C 956.27 5.16013 1.36257 0
M  V30 10266 O 956.493 5.0773 2.59934 0
M  V30 10267 O 955.427 5.95569 0.870681 0
M  V30 10268 H 959.253 2.98187 -0.576055 0
M  V30 10269 H 956.838 1.45299 -0.347628 0
M  V30 10270 H 958.72 3.84747 1.71894 0
M  V30 10271 H 957.395 2.65845 1.84684 0
M  V30 10272 H 956.302 3.73538 -0.205036 0
M  V30 10273 H 957.635 4.91564 -0.250104 0
M  V30 10274 N 959.287 0.325282 1.54207 0
M  V30 10275 C 960.533 -0.277185 2.00897 0
M  V30 10276 C 960.866 -1.51651 1.21308 0
M  V30 10277 O 960.141 -1.92237 0.295825 0
M  V30 10278 C 960.424 -0.60961 3.54902 0
M  V30 10279 C 960.277 0.640542 4.45216 0
M  V30 10280 C 961.596 -1.42656 4.16338 0
M  V30 10281 H 958.715 -0.0992722 0.730284 0
M  V30 10282 H 961.357 0.442201 1.84783 0
M  V30 10283 H 959.507 -1.22249 3.68765 0
M  V30 10284 H 961.179 1.27878 4.43221 0
M  V30 10285 H 959.422 1.26908 4.14821 0
M  V30 10286 H 960.093 0.363459 5.50802 0
M  V30 10287 H 962.569 -0.908494 4.06061 0
M  V30 10288 H 961.445 -1.62792 5.24204 0
M  V30 10289 H 961.706 -2.42321 3.69774 0
M  V30 10290 N 960.765 -1.57509 0.0534917 0
M  V30 10291 C 962.176 -1.80374 -0.481867 0
M  V30 10292 C 962.527 -0.965917 -1.70776 0
M  V30 10293 O 961.652 -0.183167 -2.15623 0
M  V30 10294 C 962.247 -3.27146 -0.880978 0
M  V30 10295 C 960.806 -3.50921 -1.3613 0
M  V30 10296 C 959.953 -2.75237 -0.337611 0
M  V30 10297 H 962.904 -1.56222 0.279353 0
M  V30 10298 H 962.925 -3.38193 -1.74373 0
M  V30 10299 H 962.437 -3.88098 0.011441 0
M  V30 10300 H 960.538 -2.95251 -2.27283 0
M  V30 10301 H 960.651 -4.59632 -1.35186 0
M  V30 10302 H 959.015 -2.41444 -0.810991 0
M  V30 10303 H 959.798 -3.38918 0.546763 0
M  V30 10304 N 962.243 0.219913 -1.56058 0
M  V30 10305 C 963.489 0.945463 -1.79412 0
M  V30 10306 C 963.822 1.83922 -0.62341 0
M  V30 10307 O 963.097 1.90806 0.377256 0
M  V30 10308 C 963.38 1.783 -3.1286 0
M  V30 10309 C 963.233 0.915626 -4.40382 0
M  V30 10310 C 964.552 2.76045 -3.42764 0
M  V30 10311 H 961.671 0.342288 -0.652693 0
M  V30 10312 H 964.313 0.214235 -1.88788 0
M  V30 10313 H 962.463 2.40642 -3.04998 0
M  V30 10314 H 964.135 0.30882 -4.60265 0
M  V30 10315 H 962.378 0.221124 -4.33236 0
M  V30 10316 H 963.049 1.53607 -5.30197 0
M  V30 10317 H 965.525 2.23838 -3.50764 0
M  V30 10318 H 964.401 3.31748 -4.37304 0
M  V30 10319 H 964.662 3.53866 -2.65012 0
M  V30 10320 N 963.721 1.49897 0.486681 0
M  V30 10321 C 964.631 1.70379 1.6127 0
M  V30 10322 C 965.647 0.58659 1.63814 0
M  V30 10323 O 966.823 0.863044 1.81971 0
M  V30 10324 C 963.888 1.77911 2.97571 0
M  V30 10325 C 962.949 3.01569 3.0554 0
M  V30 10326 C 962.182 3.08732 4.35339 0
M  V30 10327 O 962.405 2.23099 5.2496 0
M  V30 10328 O 961.339 4.01325 4.48578 0
M  V30 10329 H 965.165 2.65799 1.46916 0
M  V30 10330 H 962.75 1.33808 0.664516 0
M  V30 10331 H 964.632 1.85135 3.78554 0
M  V30 10332 H 963.307 0.856722 3.12157 0
M  V30 10333 H 962.214 2.99854 2.23693 0
M  V30 10334 H 963.547 3.93335 2.95886 0
M  V30 10335 N 965.199 -0.738761 1.39212 0
M  V30 10336 C 966.424 -1.5331 1.39681 0
M  V30 10337 C 966.849 -1.88098 -0.00768715 0
M  V30 10338 O 966.207 -1.51642 -0.993699 0
M  V30 10339 C 966.255 -2.79958 2.27279 0
M  V30 10340 O 965.359 -3.75727 1.70008 0
M  V30 10341 H 964.7 -0.463131 0.475821 0
M  V30 10342 H 967.23 -0.911768 1.83161 0
M  V30 10343 H 967.24 -3.28732 2.41659 0
M  V30 10344 H 965.915 -2.5397 3.29351 0
M  V30 10345 H 964.492 -3.34483 1.64851 0
M  V30 10346 N 966.677 -1.24326 -0.968545 0
M  V30 10347 C 967.64 -1.03591 -2.04454 0
M  V30 10348 C 968.64 0.0064809 -1.60799 0
M  V30 10349 O 969.83 -0.234404 -1.72616 0
M  V30 10350 C 966.962 -0.56992 -3.36102 0
M  V30 10351 H 968.155 -1.99092 -2.24282 0
M  V30 10352 H 965.708 -1.06537 -1.14366 0
M  V30 10353 H 966.443 0.388325 -3.21967 0
M  V30 10354 H 966.228 -1.32227 -3.69132 0
M  V30 10355 H 967.718 -0.445854 -4.15213 0
M  V30 10356 N 968.156 1.1691 -1.05688 0
M  V30 10357 C 969.433 1.83266 -0.683601 0
M  V30 10358 C 969.813 1.93858 0.835602 0
M  V30 10359 O 969.161 1.47696 1.7435 0
M  V30 10360 C 969.371 3.20625 -1.37842 0
M  V30 10361 C 970.719 3.96473 -1.51967 0
M  V30 10362 O 971.743 3.30122 -1.33783 0
M  V30 10363 O 970.602 5.15393 -1.81749 0
M  V30 10364 H 967.696 0.791028 -0.241254 0
M  V30 10365 H 970.242 1.24165 -1.15677 0
M  V30 10366 H 969.014 3.07914 -2.41463 0
M  V30 10367 H 968.637 3.87398 -0.894921 0
M  V30 10368 N 969.634 0.838594 1.33437 0
M  V30 10369 C 970.911 0.356112 1.92331 0
M  V30 10370 C 971.291 -1.1585 1.76471 0
M  V30 10371 O 970.639 -1.97281 1.15293 0
M  V30 10372 C 970.849 0.802715 3.39643 0
M  V30 10373 C 972.197 0.810575 4.16791 0
M  V30 10374 O 973.221 0.746304 3.48294 0
M  V30 10375 O 972.08 0.898082 5.3907 0
M  V30 10376 H 969.174 0.100711 0.820845 0
M  V30 10377 H 971.72 0.924428 1.42311 0
M  V30 10378 H 970.492 1.84529 3.45057 0
M  V30 10379 H 970.115 0.210956 3.9704 0
M  V30 10380 N 971.112 -1.45937 0.595003 0
M  V30 10381 C 972.042 -2.33198 -0.11871 0
M  V30 10382 C 973.023 -1.46083 -0.871423 0
M  V30 10383 O 974.208 -1.74879 -0.844461 0
M  V30 10384 C 971.338 -3.28576 -1.12495 0
M  V30 10385 C 970.292 -4.25229 -0.486275 0
M  V30 10386 C 969.618 -5.10204 -1.59986 0
M  V30 10387 C 970.918 -5.19019 0.584473 0
M  V30 10388 H 972.612 -2.93122 0.609886 0
M  V30 10389 H 970.158 -1.40951 0.294742 0
M  V30 10390 H 972.111 -3.88485 -1.6327 0
M  V30 10391 H 970.835 -2.66784 -1.88398 0
M  V30 10392 H 969.494 -3.666 0.000507962 0
M  V30 10393 H 969.142 -4.44789 -2.34886 0
M  V30 10394 H 968.842 -5.75669 -1.1781 0
M  V30 10395 H 970.366 -5.7298 -2.11014 0
M  V30 10396 H 971.78 -5.73073 0.161297 0
M  V30 10397 H 970.177 -5.92893 0.927256 0
M  V30 10398 H 971.247 -4.62208 1.46601 0
M  V30 10399 N 972.59 -0.333456 -1.54032 0
M  V30 10400 C 973.553 0.515392 -2.2333 0
M  V30 10401 C 974.553 1.03566 -1.23007 0
M  V30 10402 O 975.743 0.926514 -1.47517 0
M  V30 10403 C 972.875 1.7169 -2.94508 0
M  V30 10404 H 974.068 -0.0905407 -2.99763 0
M  V30 10405 H 971.621 -0.0846651 -1.56071 0
M  V30 10406 H 972.356 2.3618 -2.22237 0
M  V30 10407 H 972.141 1.35115 -3.68085 0
M  V30 10408 H 973.631 2.31922 -3.47278 0
M  V30 10409 N 974.068 1.57479 -0.061844 0
M  V30 10410 C 975.345 1.84484 0.649993 0
M  V30 10411 C 975.725 0.952366 1.88396 0
M  V30 10412 O 975.073 0.0161035 2.28494 0
M  V30 10413 C 975.283 3.34452 0.997133 0
M  V30 10414 C 976.631 4.01724 1.37488 0
M  V30 10415 O 977.655 3.3914 1.08916 0
M  V30 10416 O 976.514 5.12091 1.90854 0
M  V30 10417 H 973.608 0.761798 0.321858 0
M  V30 10418 H 976.154 1.6945 -0.0920192 0
M  V30 10419 H 974.926 3.91115 0.120301 0
M  V30 10420 H 974.549 3.54713 1.79624 0
M  V30 10421 N 975.546 -0.211634 1.56173 0
M  V30 10422 C 976.478 -1.286 1.89723 0
M  V30 10423 C 977.491 -1.42549 0.786361 0
M  V30 10424 O 978.68 -1.4327 1.06471 0
M  V30 10425 C 975.78 -2.66036 2.09948 0
M  V30 10426 C 974.953 -2.73908 3.41018 0
M  V30 10427 C 974.012 -3.92425 3.50555 0
M  V30 10428 O 973.038 -3.803 4.2351 0
M  V30 10429 N 974.24 -5.07165 2.82426 0
M  V30 10430 H 977.005 -1.00142 2.82474 0
M  V30 10431 H 974.566 -0.401633 1.56839 0
M  V30 10432 H 976.558 -3.43719 2.13634 0
M  V30 10433 H 975.128 -2.87052 1.23774 0
M  V30 10434 H 974.348 -1.82625 3.49345 0
M  V30 10435 H 975.636 -2.76145 4.27342 0
M  V30 10436 H 975.034 -5.19913 2.2295 0
M  V30 10437 H 973.591 -5.82855 2.9176 0
M  V30 10438 N 977.024 -1.50153 -0.478725 0
M  V30 10439 C 978.252 -1.64505 -1.25482 0
M  V30 10440 C 978.667 -0.325295 -1.85977 0
M  V30 10441 O 978.024 0.691885 -1.68876 0
M  V30 10442 C 978.075 -2.73052 -2.36906 0
M  V30 10443 O 977.796 -3.99911 -1.78894 0
M  V30 10444 C 979.297 -2.98309 -3.27912 0
M  V30 10445 H 976.517 -0.55318 -0.379781 0
M  V30 10446 H 979.061 -1.96329 -0.57229 0
M  V30 10447 H 977.216 -2.43944 -3.00949 0
M  V30 10448 H 977.63 -4.5988 -2.52211 0
M  V30 10449 H 979.104 -3.77942 -4.02323 0
M  V30 10450 H 979.581 -2.09082 -3.8624 0
M  V30 10451 H 980.187 -3.2892 -2.69614 0
M  V30 10452 N 978.502 0.731368 -1.39602 0
M  V30 10453 C 979.45 1.86676 -1.38761 0
M  V30 10454 C 980.444 1.6723 -0.270247 0
M  V30 10455 O 981.65 1.74528 -0.440471 0
M  V30 10456 H 978.025 0.614553 -0.433391 0
M  V30 10457 H 979.996 1.84501 -2.34525 0
M  V30 10458 C 978.745 3.24394 -1.25155 0
M  V30 10459 H 978.068 3.39955 -2.10406 0
M  V30 10460 H 979.508 4.04019 -1.28625 0
M  V30 10461 C 977.967 3.36877 0.0396976 0
M  V30 10462 O 978.497 3.88833 1.00854 0
M  V30 10463 N 976.703 2.90414 0.103965 0
M  V30 10464 H 976.25 2.48321 -0.685155 0
M  V30 10465 H 976.208 2.99146 0.967435 0
M  V30 10466 N 979.98 1.24838 0.961938 0
M  V30 10467 C 981.229 1.0855 1.69999 0
M  V30 10468 C 981.542 -0.374645 1.91979 0
M  V30 10469 O 982.748 -0.657822 2.6341 0
M  V30 10470 C 981.204 1.89424 3.06017 0
M  V30 10471 C 980.812 3.39885 2.9186 0
M  V30 10472 C 982.556 1.81684 3.83655 0
M  V30 10473 C 980.463 4.13082 4.23223 0
M  V30 10474 H 979.393 0.402603 0.637516 0
M  V30 10475 H 982.044 1.4897 1.07146 0
M  V30 10476 H 980.426 1.41823 3.69733 0
M  V30 10477 H 981.6 3.95108 2.37121 0
M  V30 10478 H 979.915 3.4864 2.27683 0
M  V30 10479 H 982.512 2.3367 4.80939 0
M  V30 10480 H 982.855 0.783247 4.08865 0
M  V30 10481 H 983.388 2.26997 3.26676 0
M  V30 10482 H 980.127 5.16824 4.03204 0
M  V30 10483 H 979.647 3.62644 4.77755 0
M  V30 10484 H 981.326 4.20397 4.91808 0
M  V30 10485 N 981.458 -1.16348 1.06306 0
M  V30 10486 C 982.368 -2.24375 0.685059 0
M  V30 10487 C 983.384 -1.71413 -0.298956 0
M  V30 10488 O 984.56 -2.00854 -0.148239 0
M  V30 10489 C 981.625 -3.46614 0.0774088 0
M  V30 10490 C 980.686 -4.14613 1.11331 0
M  V30 10491 C 979.919 -5.31016 0.534559 0
M  V30 10492 O 980.142 -5.66654 -0.65265 0
M  V30 10493 O 979.076 -5.88256 1.27431 0
M  V30 10494 H 982.902 -2.59018 1.58566 0
M  V30 10495 H 980.487 -1.23865 0.835332 0
M  V30 10496 H 982.369 -4.20599 -0.259716 0
M  V30 10497 H 981.044 -3.13743 -0.796677 0
M  V30 10498 H 979.951 -3.42597 1.50261 0
M  V30 10499 H 981.284 -4.51538 1.95893 0
M  V30 10500 N 982.937 -0.845659 -1.3299 0
M  V30 10501 C 984.167 -0.457686 -2.01467 0
M  V30 10502 C 984.575 0.947664 -1.63756 0
M  V30 10503 O 983.918 1.62841 -0.850213 0
M  V30 10504 C 983.98 -0.506589 -3.55913 0
M  V30 10505 C 983.644 -1.86924 -4.17023 0
M  V30 10506 C 984.641 -2.83344 -4.35904 0
M  V30 10507 C 982.326 -2.16394 -4.53298 0
M  V30 10508 C 984.32 -4.07391 -4.90216 0
M  V30 10509 C 982.007 -3.40695 -5.07316 0
M  V30 10510 C 983.005 -4.3601 -5.25722 0
M  V30 10511 O 982.693 -5.58112 -5.7859 0
M  V30 10512 H 982.425 -0.179258 -0.651799 0
M  V30 10513 H 984.979 -1.14172 -1.70745 0
M  V30 10514 H 983.209 0.234253 -3.8599 0
M  V30 10515 H 984.898 -0.135487 -4.05674 0
M  V30 10516 H 985.664 -2.61879 -4.08221 0
M  V30 10517 H 981.543 -1.42994 -4.38262 0
M  V30 10518 H 985.087 -4.81796 -5.04498 0
M  V30 10519 H 980.984 -3.62014 -5.3443 0
M  V30 10520 H 981.752 -5.59946 -5.96995 0
M  V30 10521 N 984.415 1.45619 -0.602734 0
M  V30 10522 C 985.663 2.01873 -0.095844 0
M  V30 10523 C 985.984 1.47427 1.27633 0
M  V30 10524 O 985.254 0.666652 1.84208 0
M  V30 10525 H 983.834 0.746295 -0.0324408 0
M  V30 10526 H 986.496 1.78478 -0.783037 0
M  V30 10527 H 985.592 3.12072 -0.0419507 0
M  V30 10528 N 985.893 0.34162 1.53853 0
M  V30 10529 C 987.121 -0.256929 2.05299 0
M  V30 10530 C 987.536 -1.44366 1.21671 0
M  V30 10531 O 986.893 -1.80758 0.251584 0
M  V30 10532 C 986.944 -0.673854 3.55164 0
M  V30 10533 O 986.665 0.465687 4.35618 0
M  V30 10534 C 988.166 -1.33332 4.22773 0
M  V30 10535 H 985.386 -0.0499445 0.669139 0
M  V30 10536 H 987.93 0.493048 1.98467 0
M  V30 10537 H 986.085 -1.37378 3.62224 0
M  V30 10538 H 986.499 0.133723 5.2433 0
M  V30 10539 H 987.973 -1.57582 5.29029 0
M  V30 10540 H 988.45 -2.28628 3.75001 0
M  V30 10541 H 989.056 -0.675489 4.19901 0
M  V30 10542 N 987.371 -1.57444 0.0701946 0
M  V30 10543 C 988.62 -1.92605 -0.598849 0
M  V30 10544 C 988.933 -0.952058 -1.70866 0
M  V30 10545 O 990.139 -1.19643 -2.43716 0
M  V30 10546 C 988.595 -3.42142 -1.11655 0
M  V30 10547 C 988.203 -4.47984 -0.0378355 0
M  V30 10548 C 989.947 -3.86307 -1.75975 0
M  V30 10549 C 987.854 -5.88652 -0.569495 0
M  V30 10550 H 986.784 -0.718873 -0.22746 0
M  V30 10551 H 989.435 -1.82948 0.14217 0
M  V30 10552 H 987.817 -3.46866 -1.91049 0
M  V30 10553 H 988.991 -4.54874 0.736661 0
M  V30 10554 H 987.306 -4.13277 0.50904 0
M  V30 10555 H 989.903 -4.88784 -2.16782 0
M  V30 10556 H 990.246 -3.23587 -2.61911 0
M  V30 10557 H 990.779 -3.84179 -1.03206 0
M  V30 10558 H 987.518 -6.55013 0.252662 0
M  V30 10559 H 987.038 -5.85285 -1.31155 0
M  V30 10560 H 988.717 -6.38482 -1.04641 0
M  V30 10561 N 988.849 0.203349 -1.56283 0
M  V30 10562 C 989.799 1.25595 -1.90289 0
M  V30 10563 C 990.783 1.41403 -0.767732 0
M  V30 10564 O 991.975 1.43912 -1.03046 0
M  V30 10565 C 989.104 2.60255 -2.23881 0
M  V30 10566 C 988.19 2.48274 -3.43833 0
M  V30 10567 N 988.581 2.05963 -4.61966 0
M  V30 10568 C 986.879 2.79188 -3.47808 0
M  V30 10569 C 987.58 2.05674 -5.44126 0
M  V30 10570 N 986.556 2.46862 -4.84314 0
M  V30 10571 H 990.358 0.920016 -2.79129 0
M  V30 10572 H 987.872 0.411829 -1.57091 0
M  V30 10573 H 989.869 3.36274 -2.46425 0
M  V30 10574 H 988.529 2.94678 -1.36363 0
M  V30 10575 H 989.54 1.76803 -4.86787 0
M  V30 10576 H 986.217 3.17863 -2.70684 0
M  V30 10577 H 987.607 1.74932 -6.48728 0
M  V30 10578 N 990.327 1.50405 0.470755 0
M  V30 10579 C 991.29 1.68741 1.5511 0
M  V30 10580 C 992.29 0.558116 1.50804 0
M  V30 10581 O 993.48 0.825149 1.53418 0
M  V30 10582 C 990.612 1.71295 2.94739 0
M  V30 10583 H 991.805 2.65127 1.40169 0
M  V30 10584 H 989.358 1.39891 0.697156 0
M  V30 10585 H 990.093 0.766029 3.15123 0
M  V30 10586 H 989.878 2.53336 2.99271 0
M  V30 10587 H 991.368 1.87434 3.73173 0
M  V30 10588 N 991.805 -0.723954 1.39988 0
M  V30 10589 C 993.053 -1.48078 1.3754 0
M  V30 10590 C 993.374 -1.94985 -0.0243358 0
M  V30 10591 O 992.644 -1.69764 -0.977602 0
M  V30 10592 H 991.224 -0.549354 0.506181 0
M  V30 10593 H 993.886 -0.858746 1.74962 0
M  V30 10594 H 992.982 -2.35763 2.04505 0
M  V30 10595 N 993.283 -1.25346 -0.955304 0
M  V30 10596 C 994.508 -1.12892 -1.73983 0
M  V30 10597 C 994.933 0.313455 -1.8547 0
M  V30 10598 O 994.291 1.22706 -1.33465 0
M  V30 10599 C 994.339 -1.78729 -3.1319 0
M  V30 10600 O 993.443 -1.06648 -3.98372 0
M  V30 10601 H 992.784 -0.394178 -0.534341 0
M  V30 10602 H 995.314 -1.65897 -1.19747 0
M  V30 10603 H 995.324 -1.84987 -3.63653 0
M  V30 10604 H 993.999 -2.83669 -3.04146 0
M  V30 10605 H 992.576 -1.08266 -3.56837 0
M  V30 10606 N 994.761 1.15782 -1.06922 0
M  V30 10607 C 995.989 1.90355 -0.81072 0
M  V30 10608 C 996.404 1.77779 0.635614 0
M  V30 10609 O 995.761 1.12675 1.43564 0
M  V30 10610 C 995.812 3.4085 -1.2043 0
M  V30 10611 O 995.533 3.53057 -2.59388 0
M  V30 10612 C 997.034 4.32457 -0.974473 0
M  V30 10613 H 994.254 0.60343 -0.293451 0
M  V30 10614 H 996.798 1.46723 -1.42452 0
M  V30 10615 H 994.953 3.82162 -0.634909 0
M  V30 10616 H 995.367 4.46426 -2.75326 0
M  V30 10617 H 996.841 5.36488 -1.29942 0
M  V30 10618 H 997.318 4.39109 0.0894481 0
M  V30 10619 H 997.924 3.96882 -1.52856 0
M  V30 10620 N 996.239 0.8527 1.3254 0
M  V30 10621 C 997.172 0.240733 2.26927 0
M  V30 10622 C 998.15 -0.620158 1.50309 0
M  V30 10623 O 999.334 -0.577389 1.79439 0
M  V30 10624 C 996.461 -0.660644 3.32195 0
M  V30 10625 C 995.507 0.126604 4.26312 0
M  V30 10626 S 996.34 1.49372 5.14245 0
M  V30 10627 C 997.496 0.598002 6.23037 0
M  V30 10628 H 997.729 1.04088 2.78483 0
M  V30 10629 H 995.262 0.650222 1.40041 0
M  V30 10630 H 997.22 -1.17506 3.93323 0
M  V30 10631 H 995.881 -1.43458 2.79426 0
M  V30 10632 H 995.074 -0.559851 5.00881 0
M  V30 10633 H 994.676 0.572536 3.69592 0
M  V30 10634 H 996.968 -0.198555 6.77209 0
M  V30 10635 H 997.911 1.31428 6.95796 0
M  V30 10636 H 998.319 0.173211 5.64234 0
M  V30 10637 N 997.718 -1.45297 0.610449 0
M  V30 10638 C 998.946 -2.0659 0.113211 0
M  V30 10639 C 999.361 -1.4546 -1.20361 0
M  V30 10640 O 998.718 -0.569823 -1.73376 0
M  V30 10641 C 998.769 -3.61488 -0.0298411 0
M  V30 10642 O 998.49 -4.20336 1.23488 0
M  V30 10643 C 999.991 -4.39772 -0.558202 0
M  V30 10644 H 997.211 -0.667322 0.0701555 0
M  V30 10645 H 999.755 -1.86497 0.838993 0
M  V30 10646 H 997.91 -3.80913 -0.705963 0
M  V30 10647 H 998.324 -5.13545 1.0664 0
M  V30 10648 H 999.798 -5.48648 -0.607375 0
M  V30 10649 H 1000.27 -4.09755 -1.58107 0
M  V30 10650 H 1000.88 -4.25217 0.0839704 0
M  V30 10651 N 999.196 -0.349774 -1.5367 0
M  V30 10652 C 1000.44 0.244827 -2.01015 0
M  V30 10653 C 1000.77 1.50057 -1.23746 0
M  V30 10654 O 1000.03 1.9315 -0.314872 0
M  V30 10655 C 1000.32 0.598311 -3.52356 0
M  V30 10656 C 999.991 -0.56127 -4.47393 0
M  V30 10657 C 998.653 -0.879481 -4.73095 0
M  V30 10658 C 1001 -1.3389 -5.03709 0
M  V30 10659 C 998.333 -1.97758 -5.52366 0
M  V30 10660 C 1000.68 -2.4273 -5.84179 0
M  V30 10661 C 999.349 -2.75103 -6.08173 0
M  V30 10662 H 998.619 0.0895884 -0.735564 0
M  V30 10663 H 1001.27 -0.478975 -1.85413 0
M  V30 10664 H 999.571 1.40291 -3.65822 0
M  V30 10665 H 1001.27 1.07036 -3.86451 0
M  V30 10666 H 997.858 -0.303201 -4.27526 0
M  V30 10667 H 1002.04 -1.10632 -4.83812 0
M  V30 10668 H 997.298 -2.23257 -5.6918 0
M  V30 10669 H 1001.47 -3.03412 -6.26828 0
M  V30 10670 H 999.099 -3.60317 -6.69385 0
M  V30 10671 N 1000.67 1.57404 -0.0785433 0
M  V30 10672 C 1001.92 1.93744 0.589024 0
M  V30 10673 C 1002.25 0.959087 1.69209 0
M  V30 10674 O 1001.5 -0.0241604 1.95685 0
M  V30 10675 C 1001.8 3.36684 1.1991 0
M  V30 10676 C 1001.47 4.50356 0.221493 0
M  V30 10677 C 1000.13 4.81177 -0.0474347 0
M  V30 10678 C 1002.48 5.1928 -0.446941 0
M  V30 10679 C 999.811 5.78257 -0.99177 0
M  V30 10680 C 1002.16 6.17372 -1.37964 0
M  V30 10681 C 1000.83 6.46607 -1.65697 0
M  V30 10682 H 1000.1 0.70896 0.215539 0
M  V30 10683 H 1002.74 1.90905 -0.150856 0
M  V30 10684 H 1001.05 3.36022 2.01486 0
M  V30 10685 H 1002.75 3.62095 1.72303 0
M  V30 10686 H 999.336 4.26322 0.441284 0
M  V30 10687 H 1003.52 4.95658 -0.252298 0
M  V30 10688 H 998.776 5.9923 -1.21381 0
M  V30 10689 H 1002.95 6.6988 -1.9035 0
M  V30 10690 H 1000.58 7.21643 -2.39031 0
M  V30 10691 N 1002.15 -0.195058 1.56388 0
M  V30 10692 C 1003.08 -1.26581 1.91076 0
M  V30 10693 C 1004.1 -1.41707 0.801436 0
M  V30 10694 O 1005.29 -1.42132 1.07985 0
M  V30 10695 C 1002.39 -2.63794 2.12758 0
M  V30 10696 C 1001.56 -2.70275 3.43904 0
M  V30 10697 C 1000.62 -3.88685 3.54698 0
M  V30 10698 O 999.644 -3.75786 4.2752 0
M  V30 10699 N 1000.85 -5.04141 2.87789 0
M  V30 10700 H 1003.61 -0.971401 2.83521 0
M  V30 10701 H 1001.17 -0.384976 1.57256 0
M  V30 10702 H 1003.16 -3.41434 2.17267 0
M  V30 10703 H 1001.73 -2.85723 1.26812 0
M  V30 10704 H 1000.95 -1.78909 3.51262 0
M  V30 10705 H 1002.24 -2.71597 4.30247 0
M  V30 10706 H 1001.64 -5.17519 2.28452 0
M  V30 10707 H 1000.2 -5.79727 2.97925 0
M  V30 10708 N 1003.63 -1.50653 -0.462772 0
M  V30 10709 C 1004.58 -1.70661 -1.58043 0
M  V30 10710 C 1005.57 -0.572533 -1.59432 0
M  V30 10711 O 1006.78 -0.753257 -1.63481 0
M  V30 10712 H 1003.15 -0.538805 -0.524588 0
M  V30 10713 H 1005.12 -2.64399 -1.38332 0
M  V30 10714 C 1003.87 -1.82558 -2.95919 0
M  V30 10715 H 1003.2 -2.69216 -2.95572 0
M  V30 10716 H 1004.64 -2.0058 -3.73556 0
M  V30 10717 C 1003.09 -0.57916 -3.31885 0
M  V30 10718 O 1003.62 0.277888 -4.00738 0
M  V30 10719 N 1001.83 -0.430723 -2.8739 0
M  V30 10720 H 1001.38 -1.1292 -2.31531 0
M  V30 10721 H 1001.34 0.402061 -3.11819 0
M  V30 10722 N 1005.11 0.71652 -1.4037 0
M  V30 10723 C 1006.33 1.51069 -1.42102 0
M  V30 10724 C 1006.76 1.88087 -0.0222387 0
M  V30 10725 O 1006.12 1.53204 0.969448 0
M  V30 10726 C 1006.16 2.76307 -2.31704 0
M  V30 10727 O 1005.27 3.72975 -1.75964 0
M  V30 10728 H 1004.61 0.455502 -0.483129 0
M  V30 10729 H 1007.14 0.882514 -1.84588 0
M  V30 10730 H 1007.15 3.24846 -2.46859 0
M  V30 10731 H 1005.82 2.48698 -3.3335 0
M  V30 10732 H 1004.4 3.31818 -1.70151 0
M  V30 10733 N 1006.59 1.25851 0.948643 0
M  V30 10734 C 1008 1.02802 1.22081 0
M  V30 10735 C 1008.2 -0.251461 1.99925 0
M  V30 10736 O 1007.26 -0.962592 2.33432 0
M  V30 10737 C 1008.57 2.25489 1.98936 0
M  V30 10738 C 1010.12 2.30312 2.11956 0
M  V30 10739 C 1010.59 3.52671 2.92211 0
M  V30 10740 N 1012.09 3.53103 2.99787 0
M  V30 10741 C 1012.82 4.44445 3.62294 0
M  V30 10742 N 1012.32 5.46065 4.26362 0
M  V30 10743 N 1014.11 4.32113 3.59493 0
M  V30 10744 H 1006.26 2.08042 0.428044 0
M  V30 10745 H 1008.52 0.913928 0.251872 0
M  V30 10746 H 1008.23 3.18513 1.4914 0
M  V30 10747 H 1008.1 2.2914 2.99624 0
M  V30 10748 H 1010.49 1.37808 2.60946 0
M  V30 10749 H 1010.57 2.30676 1.10554 0
M  V30 10750 H 1010.22 4.45501 2.43909 0
M  V30 10751 H 1010.15 3.49554 3.93853 0
M  V30 10752 H 1012.64 2.79597 2.54232 0
M  V30 10753 H 1012.95 6.11964 4.71932 0
M  V30 10754 H 1011.29 5.49931 4.24972 0
M  V30 10755 H 1014.49 3.51946 3.08629 0
M  V30 10756 H 1014.66 5.03493 4.0792 0
M  V30 10757 N 1008.06 -1.15214 1.07534 0
M  V30 10758 C 1009.29 -1.89647 0.819614 0
M  V30 10759 C 1009.7 -1.78365 -0.631072 0
M  V30 10760 O 1009.05 -1.1346 -1.44474 0
M  V30 10761 C 1009.11 -3.40573 1.1511 0
M  V30 10762 C 1008.77 -3.7564 2.60276 0
M  V30 10763 C 1009.77 -3.76507 3.58523 0
M  V30 10764 C 1007.45 -4.05891 2.95901 0
M  V30 10765 C 1009.45 -4.07133 4.9043 0
M  V30 10766 C 1007.13 -4.36182 4.28005 0
M  V30 10767 C 1008.13 -4.36785 5.25079 0
M  V30 10768 O 1007.82 -4.66348 6.54809 0
M  V30 10769 H 1007.55 -0.607836 0.295822 0
M  V30 10770 H 1010.11 -1.46895 1.43565 0
M  V30 10771 H 1008.34 -3.83734 0.478033 0
M  V30 10772 H 1010.03 -3.96299 0.877615 0
M  V30 10773 H 1010.79 -3.53233 3.32342 0
M  V30 10774 H 1006.67 -4.0458 2.20989 0
M  V30 10775 H 1010.21 -4.07519 5.66193 0
M  V30 10776 H 1006.11 -4.58924 4.53937 0
M  V30 10777 H 1006.88 -4.84105 6.59988 0
M  V30 10778 N 1009.54 -0.859717 -1.32086 0
M  V30 10779 C 1010.47 -0.265258 -2.2766 0
M  V30 10780 C 1011.49 0.565889 -1.52648 0
M  V30 10781 O 1012.68 0.389554 -1.74197 0
M  V30 10782 C 1009.78 0.643397 -3.32737 0
M  V30 10783 C 1008.95 -0.153024 -4.37132 0
M  V30 10784 C 1008.01 0.682176 -5.21759 0
M  V30 10785 O 1007.03 0.113878 -5.69086 0
M  V30 10786 N 1008.24 1.99602 -5.45105 0
M  V30 10787 H 1011 -1.08653 -2.79311 0
M  V30 10788 H 1008.56 -0.720191 -1.45 0
M  V30 10789 H 1010.55 1.20759 -3.86263 0
M  V30 10790 H 1009.12 1.36535 -2.81206 0
M  V30 10791 H 1008.34 -0.898657 -3.8382 0
M  V30 10792 H 1009.63 -0.699877 -5.03963 0
M  V30 10793 H 1009.03 2.481 -5.08393 0
M  V30 10794 H 1007.59 2.50823 -6.01607 0
M  V30 10795 N 1011.02 1.44971 -0.618145 0
M  V30 10796 C 1012.25 2.06527 -0.124165 0
M  V30 10797 C 1012.66 1.46097 1.19588 0
M  V30 10798 O 1012.02 0.57901 1.73071 0
M  V30 10799 C 1012.07 3.61498 0.0106701 0
M  V30 10800 O 1011.79 4.19675 -1.25716 0
M  V30 10801 C 1013.29 4.40061 0.534872 0
M  V30 10802 H 1010.51 0.666941 -0.0736935 0
M  V30 10803 H 1013.06 1.8605 -0.848871 0
M  V30 10804 H 1011.21 3.81282 0.685752 0
M  V30 10805 H 1011.63 5.12972 -1.09362 0
M  V30 10806 H 1013.1 5.48963 0.57827 0
M  V30 10807 H 1013.58 4.10587 1.55931 0
M  V30 10808 H 1014.18 4.25167 -0.10652 0
M  V30 10809 N 1012.5 0.357919 1.53482 0
M  V30 10810 C 1013.73 -0.234799 2.05261 0
M  V30 10811 C 1014.14 -1.43618 1.23169 0
M  V30 10812 O 1013.48 -1.81801 0.263435 0
M  V30 10813 C 1013.54 -0.699748 3.52624 0
M  V30 10814 C 1013.21 0.383905 4.55385 0
M  V30 10815 C 1014.2 1.23129 5.05109 0
M  V30 10816 C 1011.89 0.541953 4.99368 0
M  V30 10817 C 1013.88 2.22214 5.97411 0
M  V30 10818 C 1011.57 1.53618 5.91477 0
M  V30 10819 C 1012.57 2.37471 6.40388 0
M  V30 10820 O 1012.25 3.35199 7.30682 0
M  V30 10821 H 1011.99 -0.0465364 0.674396 0
M  V30 10822 H 1014.54 0.512355 1.98907 0
M  V30 10823 H 1012.77 -1.49838 3.5649 0
M  V30 10824 H 1014.46 -1.21461 3.87301 0
M  V30 10825 H 1015.23 1.12035 4.71883 0
M  V30 10826 H 1011.1 -0.100929 4.6089 0
M  V30 10827 H 1014.65 2.87702 6.35511 0
M  V30 10828 H 1010.55 1.64763 6.24118 0
M  V30 10829 H 1011.31 3.30838 7.48658 0
M  V30 10830 N 1013.98 -1.5736 0.0868897 0
M  V30 10831 C 1014.91 -2.10582 -0.904858 0
M  V30 10832 C 1015.92 -1.04124 -1.25148 0
M  V30 10833 O 1017.11 -1.31595 -1.20603 0
M  V30 10834 C 1014.21 -2.56381 -2.21635 0
M  V30 10835 C 1013.38 -3.86581 -2.04631 0
M  V30 10836 C 1012.44 -4.18313 -3.19219 0
M  V30 10837 O 1011.47 -4.87669 -2.93544 0
M  V30 10838 N 1012.67 -3.73061 -4.44754 0
M  V30 10839 H 1015.44 -2.96297 -0.450352 0
M  V30 10840 H 1013 -1.616 -0.0984376 0
M  V30 10841 H 1014.99 -2.7466 -2.97227 0
M  V30 10842 H 1013.56 -1.75721 -2.58536 0
M  V30 10843 H 1012.78 -3.77532 -1.13417 0
M  V30 10844 H 1014.07 -4.71777 -1.90537 0
M  V30 10845 H 1013.46 -3.1706 -4.68497 0
M  V30 10846 H 1012.02 -3.96511 -5.17322 0
M  V30 10847 N 1015.45 0.186762 -1.56489 0
M  V30 10848 C 1016.87 0.537933 -1.50261 0
M  V30 10849 C 1017.07 1.85435 -0.788414 0
M  V30 10850 O 1016.13 2.50168 -0.342377 0
M  V30 10851 C 1017.44 0.584965 -2.94955 0
M  V30 10852 C 1018.99 0.673228 -3.05674 0
M  V30 10853 C 1019.46 0.751294 -4.51796 0
M  V30 10854 N 1020.95 0.814599 -4.55981 0
M  V30 10855 C 1021.69 0.895313 -5.66367 0
M  V30 10856 N 1021.18 0.937814 -6.86423 0
M  V30 10857 N 1022.98 0.933145 -5.543 0
M  V30 10858 H 1015.13 -0.676636 -2.01334 0
M  V30 10859 H 1017.39 -0.242079 -0.916571 0
M  V30 10860 H 1017.1 -0.313361 -3.50301 0
M  V30 10861 H 1016.97 1.4368 -3.48763 0
M  V30 10862 H 1019.36 1.56198 -2.50372 0
M  V30 10863 H 1019.44 -0.204976 -2.54977 0
M  V30 10864 H 1019.08 -0.133143 -5.07725 0
M  V30 10865 H 1019.01 1.64542 -5.00233 0
M  V30 10866 H 1021.5 0.790662 -3.69536 0
M  V30 10867 H 1021.82 1.00015 -7.66301 0
M  V30 10868 H 1020.16 0.906351 -6.89065 0
M  V30 10869 H 1023.35 0.896836 -4.59428 0
M  V30 10870 H 1023.53 0.992588 -6.40353 0
M  V30 10871 N 1016.93 1.50896 0.454776 0
M  V30 10872 C 1017.87 1.65608 1.57001 0
M  V30 10873 C 1018.84 0.50387 1.54596 0
M  V30 10874 O 1020.03 0.725485 1.7398 0
M  V30 10875 C 1017.15 1.65366 2.95587 0
M  V30 10876 C 1016.2 2.86344 3.16085 0
M  V30 10877 S 1017.03 4.47418 2.9424 0
M  V30 10878 C 1018.19 4.49895 4.35138 0
M  V30 10879 H 1018.42 2.59941 1.44285 0
M  V30 10880 H 1015.96 1.40362 0.643264 0
M  V30 10881 H 1017.91 1.65911 3.75478 0
M  V30 10882 H 1016.57 0.722407 3.0568 0
M  V30 10883 H 1015.77 2.82526 4.17367 0
M  V30 10884 H 1015.37 2.8345 2.43992 0
M  V30 10885 H 1017.66 4.24462 5.28051 0
M  V30 10886 H 1018.6 5.5161 4.43995 0
M  V30 10887 H 1019.01 3.79412 4.17979 0
M  V30 10888 N 1018.41 -0.709066 1.40748 0
M  V30 10889 C 1019.66 -1.46993 1.40587 0
M  V30 10890 C 1020.01 -1.92397 0.00986301 0
M  V30 10891 O 1019.3 -1.65712 -0.961772 0
M  V30 10892 C 1019.5 -2.70543 2.33541 0
M  V30 10893 C 1019.33 -2.37222 3.82041 0
M  V30 10894 C 1018.1 -2.28244 4.50813 0
M  V30 10895 C 1020.3 -2.01069 4.73367 0
M  V30 10896 N 1018.28 -1.87667 5.84512 0
M  V30 10897 C 1019.65 -1.71144 5.95911 0
M  V30 10898 C 1021.7 -1.87761 4.6114 0
M  V30 10899 C 1020.41 -1.2925 7.07592 0
M  V30 10900 C 1022.43 -1.47271 5.7277 0
M  V30 10901 C 1021.79 -1.18249 6.94404 0
M  V30 10902 H 1017.89 -0.535708 0.569685 0
M  V30 10903 H 1020.48 -0.821669 1.76513 0
M  V30 10904 H 1018.65 -3.33109 1.99733 0
M  V30 10905 H 1020.38 -3.36927 2.24192 0
M  V30 10906 H 1017.14 -2.46199 4.04578 0
M  V30 10907 H 1017.56 -1.69899 6.55335 0
M  V30 10908 H 1022.2 -2.08858 3.67611 0
M  V30 10909 H 1019.92 -1.06896 8.00999 0
M  V30 10910 H 1023.51 -1.37544 5.65308 0
M  V30 10911 H 1022.39 -0.873897 7.79316 0
M  V30 10912 N 1019.89 -1.26353 -0.941956 0
M  V30 10913 C 1020.84 -1.07654 -2.06188 0
M  V30 10914 C 1021.83 -0.00369741 -1.694 0
M  V30 10915 O 1023.04 -0.160316 -1.79285 0
M  V30 10916 H 1019.41 -0.331274 -0.675101 0
M  V30 10917 H 1021.38 -2.02566 -2.19111 0
M  V30 10918 C 1020.13 -0.725436 -3.40048 0
M  V30 10919 H 1019.46 -1.54283 -3.68832 0
M  V30 10920 H 1020.9 -0.634383 -4.19227 0
M  V30 10921 C 1019.35 0.569369 -3.32054 0
M  V30 10922 O 1019.88 1.60791 -3.68116 0
M  V30 10923 N 1018.09 0.559714 -2.85159 0
M  V30 10924 H 1017.64 -0.285817 -2.56009 0
M  V30 10925 H 1017.6 1.42617 -2.80193 0
M  V30 10926 N 1021.37 1.14642 -1.08144 0
M  V30 10927 C 1022.6 1.89209 -0.82966 0
M  V30 10928 C 1023.01 1.78697 0.621604 0
M  V30 10929 O 1022.35 1.14224 1.4387 0
M  V30 10930 C 1022.41 3.39958 -1.16915 0
M  V30 10931 C 1022.07 3.74254 -2.62264 0
M  V30 10932 C 1023.07 3.746 -3.60514 0
M  V30 10933 C 1020.76 4.04316 -2.9805 0
M  V30 10934 C 1022.75 4.04527 -4.92582 0
M  V30 10935 C 1020.44 4.33906 -4.30312 0
M  V30 10936 C 1021.44 4.33995 -5.27388 0
M  V30 10937 O 1021.12 4.62869 -6.57273 0
M  V30 10938 H 1020.86 0.606259 -0.299042 0
M  V30 10939 H 1023.41 1.46132 -1.44342 0
M  V30 10940 H 1021.64 3.83475 -0.498377 0
M  V30 10941 H 1023.33 3.95828 -0.89862 0
M  V30 10942 H 1024.09 3.51466 -3.34211 0
M  V30 10943 H 1019.97 4.03402 -2.23132 0
M  V30 10944 H 1023.52 4.04511 -5.68346 0
M  V30 10945 H 1019.41 4.5651 -4.56365 0
M  V30 10946 H 1020.18 4.80598 -6.62546 0
M  V30 10947 N 1022.85 0.866709 1.31628 0
M  V30 10948 C 1023.78 0.264788 2.26659 0
M  V30 10949 C 1024.76 -0.604181 1.50958 0
M  V30 10950 O 1025.94 -0.558324 1.80042 0
M  V30 10951 C 1023.07 -0.625373 3.32877 0
M  V30 10952 C 1022.11 0.171813 4.26154 0
M  V30 10953 S 1022.95 1.54818 5.12632 0
M  V30 10954 C 1024.1 0.66405 6.22367 0
M  V30 10955 H 1024.34 1.07036 2.77364 0
M  V30 10956 H 1021.87 0.665038 1.39343 0
M  V30 10957 H 1023.83 -1.13327 3.94547 0
M  V30 10958 H 1022.49 -1.40486 2.80932 0
M  V30 10959 H 1021.68 -0.506694 5.01447 0
M  V30 10960 H 1021.28 0.611704 3.68964 0
M  V30 10961 H 1023.57 -0.126717 6.77381 0
M  V30 10962 H 1024.52 1.388 6.94363 0
M  V30 10963 H 1024.93 0.233046 5.64019 0
M  V30 10964 N 1024.32 -1.44642 0.625825 0
M  V30 10965 C 1025.26 -2.28882 -0.120614 0
M  V30 10966 C 1026.27 -1.40985 -0.81407 0
M  V30 10967 O 1027.46 -1.65188 -0.676404 0
M  V30 10968 C 1024.56 -3.17217 -1.19274 0
M  V30 10969 C 1023.73 -4.33499 -0.582839 0
M  V30 10970 C 1022.79 -5.02908 -1.54823 0
M  V30 10971 O 1021.82 -5.59102 -1.06743 0
M  V30 10972 N 1023.02 -5.0387 -2.88262 0
M  V30 10973 H 1025.78 -2.93585 0.602318 0
M  V30 10974 H 1023.34 -1.5503 0.466604 0
M  V30 10975 H 1025.34 -3.60515 -1.83878 0
M  V30 10976 H 1023.91 -2.54301 -1.81797 0
M  V30 10977 H 1023.13 -3.93458 0.241696 0
M  V30 10978 H 1024.41 -5.08561 -0.155914 0
M  V30 10979 H 1023.81 -4.59539 -3.2991 0
M  V30 10980 H 1022.37 -5.50974 -3.4824 0
M  V30 10981 N 1025.8 -0.366053 -1.5329 0
M  V30 10982 C 1027.03 0.226839 -2.06156 0
M  V30 10983 C 1027.45 1.41637 -1.23776 0
M  V30 10984 O 1026.81 1.7947 -0.256948 0
M  V30 10985 C 1026.86 0.597956 -3.55608 0
M  V30 10986 O 1025.96 1.69512 -3.75951 0
M  V30 10987 H 1025.3 0.0329156 -0.663184 0
M  V30 10988 H 1027.83 -0.526793 -1.97702 0
M  V30 10989 H 1027.84 0.868831 -3.98642 0
M  V30 10990 H 1026.52 -0.271838 -4.15011 0
M  V30 10991 H 1025.09 1.41976 -3.44815 0
M  V30 10992 N 1027.28 1.57312 -0.0952337 0
M  V30 10993 C 1028.23 2.14032 0.863657 0
M  V30 10994 C 1029.2 1.0589 1.27971 0
M  V30 10995 O 1030.38 1.33678 1.36143 0
M  V30 10996 C 1027.52 2.72513 2.11733 0
M  V30 10997 C 1026.63 3.94887 1.7518 0
M  V30 10998 C 1025.77 4.41533 2.95334 0
M  V30 10999 C 1024.81 5.56496 2.54908 0
M  V30 11000 N 1023.95 5.97993 3.67897 0
M  V30 11001 H 1028.79 2.95655 0.373115 0
M  V30 11002 H 1026.32 1.46085 0.172497 0
M  V30 11003 H 1028.28 3.04539 2.85153 0
M  V30 11004 H 1026.91 1.93618 2.58287 0
M  V30 11005 H 1025.96 3.69175 0.917279 0
M  V30 11006 H 1027.27 4.78322 1.41455 0
M  V30 11007 H 1026.43 4.75343 3.77007 0
M  V30 11008 H 1025.17 3.56999 3.3227 0
M  V30 11009 H 1024.17 5.22314 1.71662 0
M  V30 11010 H 1025.4 6.42779 2.19117 0
M  V30 11011 H 1023.34 5.16405 4.04551 0
M  V30 11012 H 1023.26 6.76225 3.38018 0
M  V30 11013 H 1024.53 6.36434 4.5008 0
M  V30 11014 N 1028.76 -0.17846 1.56586 0
M  V30 11015 C 1029.69 -1.24547 1.92408 0
M  V30 11016 C 1030.7 -1.40849 0.816421 0
M  V30 11017 O 1031.89 -1.40979 1.09486 0
M  V30 11018 C 1028.99 -2.61523 2.15544 0
M  V30 11019 C 1028.16 -2.66613 3.46751 0
M  V30 11020 C 1027.22 -3.84901 3.588 0
M  V30 11021 O 1026.25 -3.71231 4.31482 0
M  V30 11022 N 1027.45 -5.0106 2.9312 0
M  V30 11023 H 1030.22 -0.941275 2.84535 0
M  V30 11024 H 1027.78 -0.368275 1.57656 0
M  V30 11025 H 1029.77 -3.3911 2.20876 0
M  V30 11026 H 1028.34 -2.84362 1.29835 0
M  V30 11027 H 1027.56 -1.75174 3.5314 0
M  V30 11028 H 1028.85 -2.67018 4.33104 0
M  V30 11029 H 1028.25 -5.15067 2.33928 0
M  V30 11030 H 1026.8 -5.76535 3.04057 0
M  V30 11031 N 1030.24 -1.51135 -0.446768 0
M  V30 11032 C 1031.65 -1.55919 -1.02694 0
M  V30 11033 C 1032 -0.377038 -1.92543 0
M  V30 11034 O 1031.12 0.507295 -2.1037 0
M  V30 11035 C 1031.72 -2.8257 -1.86922 0
M  V30 11036 C 1030.28 -2.89956 -2.40005 0
M  V30 11037 C 1029.42 -2.50482 -1.18971 0
M  V30 11038 H 1032.37 -1.57048 -0.228403 0
M  V30 11039 H 1032.4 -2.65799 -2.7227 0
M  V30 11040 H 1031.91 -3.6859 -1.21502 0
M  V30 11041 H 1030.01 -2.08343 -3.08907 0
M  V30 11042 H 1030.12 -3.93399 -2.73448 0
M  V30 11043 H 1028.49 -2.03466 -1.53211 0
M  V30 11044 H 1029.27 -3.38837 -0.551762 0
M  V30 11045 N 1031.71 0.701592 -1.41122 0
M  V30 11046 C 1032.94 1.49553 -1.43696 0
M  V30 11047 C 1033.36 1.88053 -0.0421865 0
M  V30 11048 O 1032.72 1.54223 0.953144 0
M  V30 11049 C 1032.77 2.73834 -2.34622 0
M  V30 11050 O 1031.87 3.71088 -1.7991 0
M  V30 11051 H 1031.21 0.450352 -0.487933 0
M  V30 11052 H 1033.74 0.862886 -1.85514 0
M  V30 11053 H 1033.75 3.22209 -2.5029 0
M  V30 11054 H 1032.43 2.45149 -3.35969 0
M  V30 11055 H 1031.01 3.29994 -1.73661 0
M  V30 11056 N 1033.19 1.2685 0.935242 0
M  V30 11057 C 1034.44 1.12912 1.6846 0
M  V30 11058 C 1034.77 -0.325708 1.91449 0
M  V30 11059 O 1034.05 -1.23884 1.49944 0
M  V30 11060 C 1034.33 1.90513 3.05576 0
M  V30 11061 C 1034.18 3.43936 2.89876 0
M  V30 11062 C 1035.5 1.70363 4.05789 0
M  V30 11063 H 1032.62 0.411559 0.611382 0
M  V30 11064 H 1035.26 1.55917 1.08582 0
M  V30 11065 H 1033.41 1.53963 3.5669 0
M  V30 11066 H 1035.08 3.90272 2.45939 0
M  V30 11067 H 1033.33 3.70659 2.25376 0
M  V30 11068 H 1034 3.93467 3.87153 0
M  V30 11069 H 1036.47 2.02217 3.63659 0
M  V30 11070 H 1035.35 2.27066 4.99732 0
M  V30 11071 H 1035.61 0.649674 4.373 0
M  V30 11072 N 1034.67 -1.14067 1.0875 0
M  V30 11073 C 1035.92 -1.85185 0.819317 0
M  V30 11074 C 1036.25 -1.8314 -0.654969 0
M  V30 11075 O 1035.5 -1.25974 -1.49763 0
M  V30 11076 C 1035.8 -3.33273 1.29089 0
M  V30 11077 C 1035.47 -3.55504 2.77359 0
M  V30 11078 C 1034.13 -3.61279 3.17853 0
M  V30 11079 C 1036.48 -3.64041 3.72992 0
M  V30 11080 C 1033.81 -3.73119 4.52768 0
M  V30 11081 C 1036.16 -3.77407 5.07687 0
M  V30 11082 C 1034.82 -3.81433 5.47782 0
M  V30 11083 H 1034.09 -0.67764 0.299809 0
M  V30 11084 H 1036.74 -1.34713 1.36106 0
M  V30 11085 H 1035.05 -3.86049 0.668811 0
M  V30 11086 H 1036.74 -3.86734 1.06009 0
M  V30 11087 H 1033.33 -3.51659 2.45019 0
M  V30 11088 H 1037.52 -3.58866 3.42825 0
M  V30 11089 H 1032.77 -3.74499 4.83281 0
M  V30 11090 H 1036.95 -3.82956 5.81651 0
M  V30 11091 H 1034.57 -3.9036 6.52321 0
M  V30 11092 N 1036.15 -0.873678 -1.31166 0
M  V30 11093 C 1037.39 -0.487178 -1.96861 0
M  V30 11094 C 1037.73 0.95887 -1.68877 0
M  V30 11095 O 1037 1.6758 -0.987279 0
M  V30 11096 C 1037.29 -0.74925 -3.52219 0
M  V30 11097 C 1037.14 -2.2451 -3.89763 0
M  V30 11098 C 1038.46 -0.218194 -4.39559 0
M  V30 11099 H 1035.58 -0.178477 -0.715063 0
M  V30 11100 H 1038.22 -1.0956 -1.55231 0
M  V30 11101 H 1036.37 -0.231403 -3.8781 0
M  V30 11102 H 1038.04 -2.83049 -3.64254 0
M  V30 11103 H 1036.28 -2.71621 -3.38237 0
M  V30 11104 H 1036.95 -2.37911 -4.98099 0
M  V30 11105 H 1039.43 -0.661274 -4.10812 0
M  V30 11106 H 1038.31 -0.430983 -5.47205 0
M  V30 11107 H 1038.57 0.880056 -4.33252 0
M  V30 11108 N 1037.63 1.44308 -0.633487 0
M  V30 11109 C 1038.57 2.30694 0.0700257 0
M  V30 11110 C 1039.54 1.43618 0.834447 0
M  V30 11111 O 1040.73 1.72517 0.815014 0
M  V30 11112 C 1037.87 3.28929 1.04403 0
M  V30 11113 C 1036.98 4.31106 0.277779 0
M  V30 11114 C 1036.12 5.16433 1.24381 0
M  V30 11115 C 1035.16 6.10317 0.466855 0
M  V30 11116 N 1034.29 6.88335 1.38347 0
M  V30 11117 H 1039.13 2.90311 -0.672567 0
M  V30 11118 H 1036.67 1.43034 -0.343449 0
M  V30 11119 H 1038.63 3.84373 1.62214 0
M  V30 11120 H 1037.26 2.71006 1.75372 0
M  V30 11121 H 1036.31 3.78115 -0.416292 0
M  V30 11122 H 1037.62 4.97725 -0.327251 0
M  V30 11123 H 1036.78 5.76406 1.89318 0
M  V30 11124 H 1035.51 4.49893 1.88276 0
M  V30 11125 H 1034.52 5.49451 -0.195989 0
M  V30 11126 H 1035.74 6.78894 -0.167414 0
M  V30 11127 H 1033.69 6.24461 2.00959 0
M  V30 11128 H 1033.61 7.51402 0.832517 0
M  V30 11129 H 1034.88 7.52829 2.0216 0
M  V30 11130 N 1039.1 0.374177 1.53094 0
M  V30 11131 C 1040.33 -0.215903 2.06273 0
M  V30 11132 C 1040.75 -1.40979 1.24526 0
M  V30 11133 O 1040.11 -1.79331 0.266462 0
M  V30 11134 C 1040.16 -0.579089 3.5592 0
M  V30 11135 O 1039.26 -1.67516 3.76845 0
M  V30 11136 H 1038.61 -0.0293981 0.663349 0
M  V30 11137 H 1041.14 0.537271 1.9742 0
M  V30 11138 H 1041.15 -0.847678 3.99097 0
M  V30 11139 H 1039.82 0.293843 4.14861 0
M  V30 11140 H 1038.4 -1.40146 3.45563 0
M  V30 11141 N 1040.58 -1.57259 0.103575 0
M  V30 11142 C 1041.81 -1.99 -0.566275 0
M  V30 11143 C 1042.23 -0.982909 -1.61197 0
M  V30 11144 O 1041.58 0.026345 -1.82481 0
M  V30 11145 C 1041.63 -3.40778 -1.20635 0
M  V30 11146 O 1041.35 -4.37632 -0.202472 0
M  V30 11147 C 1042.86 -3.97567 -1.961 0
M  V30 11148 H 1040.08 -0.653751 -0.151164 0
M  V30 11149 H 1042.62 -2.03658 0.185365 0
M  V30 11150 H 1040.77 -3.37107 -1.90886 0
M  V30 11151 H 1041.19 -5.2026 -0.665535 0
M  V30 11152 H 1042.66 -4.98897 -2.36233 0
M  V30 11153 H 1043.14 -3.35853 -2.83018 0
M  V30 11154 H 1043.75 -4.04737 -1.30645 0
M  V30 11155 N 1042.06 0.170153 -1.56679 0
M  V30 11156 C 1042.97 1.23057 -1.99735 0
M  V30 11157 C 1043.99 1.48374 -0.908912 0
M  V30 11158 O 1045.16 1.60499 -1.21663 0
M  V30 11159 C 1042.23 2.54944 -2.34956 0
M  V30 11160 C 1041.29 2.3748 -3.57634 0
M  V30 11161 C 1040.52 3.63078 -3.91165 0
M  V30 11162 O 1040.74 4.68304 -3.2565 0
M  V30 11163 O 1039.68 3.57119 -4.8451 0
M  V30 11164 H 1043.5 0.895104 -2.9021 0
M  V30 11165 H 1041.09 0.377109 -1.44562 0
M  V30 11166 H 1042.97 3.32742 -2.58574 0
M  V30 11167 H 1041.65 2.88068 -1.47643 0
M  V30 11168 H 1040.55 1.57709 -3.39232 0
M  V30 11169 H 1041.89 2.0928 -4.45491 0
M  V30 11170 N 1043.54 1.5137 0.438746 0
M  V30 11171 C 1044.45 1.75424 1.55768 0
M  V30 11172 C 1045.46 0.638409 1.61865 0
M  V30 11173 O 1046.64 0.9205 1.79133 0
M  V30 11174 C 1043.71 1.87288 2.9176 0
M  V30 11175 C 1042.77 3.11137 2.95791 0
M  V30 11176 C 1042 3.22425 4.25297 0
M  V30 11177 O 1042.22 2.39688 5.17596 0
M  V30 11178 O 1041.16 4.15393 4.35583 0
M  V30 11179 H 1044.98 2.70339 1.38386 0
M  V30 11180 H 1042.57 1.35854 0.621609 0
M  V30 11181 H 1044.45 1.97085 3.72472 0
M  V30 11182 H 1043.12 0.955599 3.09273 0
M  V30 11183 H 1042.03 3.06819 2.1404 0
M  V30 11184 H 1043.36 4.02549 2.83223 0
M  V30 11185 N 1045.02 -0.694098 1.41492 0
M  V30 11186 C 1046.26 -1.45127 1.4065 0
M  V30 11187 C 1046.59 -1.94993 0.0170289 0
M  V30 11188 O 1045.86 -1.71799 -0.941372 0
M  V30 11189 H 1044.44 -0.538493 0.51772 0
M  V30 11190 H 1047.1 -0.821441 1.76744 0
M  V30 11191 H 1046.19 -2.31372 2.0946 0
M  V30 11192 N 1046.49 -1.27344 -0.928501 0
M  V30 11193 C 1047.74 -1.13019 -1.67061 0
M  V30 11194 C 1048.06 0.323614 -1.92904 0
M  V30 11195 O 1049.26 0.587752 -2.65062 0
M  V30 11196 C 1047.72 -1.97471 -3.00887 0
M  V30 11197 C 1047.33 -3.47504 -2.82746 0
M  V30 11198 C 1049.07 -1.91792 -3.78703 0
M  V30 11199 C 1046.98 -4.24158 -4.12122 0
M  V30 11200 H 1045.91 -0.419364 -0.626618 0
M  V30 11201 H 1048.56 -1.51759 -1.03158 0
M  V30 11202 H 1046.94 -1.51576 -3.65843 0
M  V30 11203 H 1048.11 -4.01256 -2.26562 0
M  V30 11204 H 1046.43 -3.54554 -2.18359 0
M  V30 11205 H 1049.03 -2.46339 -4.74575 0
M  V30 11206 H 1049.37 -0.891375 -4.06645 0
M  V30 11207 H 1049.9 -2.35578 -3.20543 0
M  V30 11208 H 1046.64 -5.27333 -3.89359 0
M  V30 11209 H 1046.16 -3.75183 -4.67972 0
M  V30 11210 H 1047.84 -4.33288 -4.80489 0
M  V30 11211 N 1047.97 1.13488 -1.09353 0
M  V30 11212 C 1048.94 2.17066 -0.735863 0
M  V30 11213 C 1049.94 1.59086 0.234181 0
M  V30 11214 O 1051.13 1.74196 0.012463 0
M  V30 11215 C 1048.26 3.40786 -0.0880975 0
M  V30 11216 H 1049.45 2.50221 -1.65316 0
M  V30 11217 H 1047 1.28304 -0.89263 0
M  V30 11218 H 1047.74 3.1322 0.840462 0
M  V30 11219 H 1047.52 3.8414 -0.786073 0
M  V30 11220 H 1049.01 4.17342 0.146775 0
M  V30 11221 N 1049.45 0.880621 1.30701 0
M  V30 11222 C 1050.87 0.574015 1.4892 0
M  V30 11223 C 1051.07 -0.889312 1.80813 0
M  V30 11224 O 1050.12 -1.67082 1.89314 0
M  V30 11225 C 1051.44 1.48341 2.61563 0
M  V30 11226 C 1052.98 1.48658 2.75445 0
M  V30 11227 C 1053.46 2.3818 3.91196 0
M  V30 11228 N 1054.95 2.36119 3.985 0
M  V30 11229 C 1055.69 3.02101 4.87363 0
M  V30 11230 N 1055.18 3.77293 5.81052 0
M  V30 11231 N 1056.97 2.91356 4.80696 0
M  V30 11232 H 1049.13 1.82732 1.08271 0
M  V30 11233 H 1051.39 0.781939 0.535981 0
M  V30 11234 H 1051.09 2.52515 2.44804 0
M  V30 11235 H 1050.97 1.18977 3.57944 0
M  V30 11236 H 1053.36 0.452374 2.91612 0
M  V30 11237 H 1053.44 1.8205 1.79698 0
M  V30 11238 H 1053.08 3.41683 3.75786 0
M  V30 11239 H 1053.01 2.02106 4.86272 0
M  V30 11240 H 1055.5 1.81474 3.31475 0
M  V30 11241 H 1055.81 4.24742 6.45612 0
M  V30 11242 H 1054.16 3.81401 5.80998 0
M  V30 11243 H 1057.35 2.32143 4.06481 0
M  V30 11244 H 1057.52 3.43056 5.49742 0
M  V30 11245 N 1050.93 -1.4397 0.641131 0
M  V30 11246 C 1052.18 -2.02246 0.14985 0
M  V30 11247 C 1052.51 -1.50387 -1.22871 0
M  V30 11248 O 1051.78 -0.692003 -1.81773 0
M  V30 11249 C 1052.07 -3.59798 0.147449 0
M  V30 11250 C 1051.92 -4.21916 1.55907 0
M  V30 11251 C 1053.24 -4.36985 -0.522667 0
M  V30 11252 H 1050.36 -0.734875 0.0559274 0
M  V30 11253 H 1053 -1.71418 0.819513 0
M  V30 11254 H 1051.15 -3.86193 -0.422789 0
M  V30 11255 H 1052.82 -4.06594 2.17896 0
M  V30 11256 H 1051.06 -3.79028 2.10998 0
M  V30 11257 H 1051.74 -5.30964 1.50934 0
M  V30 11258 H 1054.21 -4.16083 -0.0376226 0
M  V30 11259 H 1053.09 -5.46676 -0.493572 0
M  V30 11260 H 1053.35 -4.12335 -1.59475 0
M  V30 11261 N 1052.41 -0.382291 -1.52893 0
M  V30 11262 C 1053.34 0.447829 -2.29165 0
M  V30 11263 C 1054.32 1.06956 -1.32267 0
M  V30 11264 O 1055.5 1.08365 -1.61154 0
M  V30 11265 C 1052.63 1.57902 -3.09329 0
M  V30 11266 C 1051.59 1.08369 -4.14053 0
M  V30 11267 C 1050.91 2.30641 -4.82399 0
M  V30 11268 C 1052.21 0.156591 -5.22065 0
M  V30 11269 H 1053.91 -0.188541 -2.98806 0
M  V30 11270 H 1051.45 -0.0921179 -1.43705 0
M  V30 11271 H 1053.41 2.16652 -3.61442 0
M  V30 11272 H 1052.13 2.24287 -2.37409 0
M  V30 11273 H 1050.79 0.518772 -3.62911 0
M  V30 11274 H 1050.44 2.9552 -4.07034 0
M  V30 11275 H 1050.14 1.98163 -5.53177 0
M  V30 11276 H 1051.66 2.90047 -5.37313 0
M  V30 11277 H 1053.08 0.652065 -5.6958 0
M  V30 11278 H 1051.47 -0.0780978 -6.00049 0
M  V30 11279 H 1052.54 -0.796529 -4.78313 0
M  V30 11280 N 1053.89 1.57202 -0.111913 0
M  V30 11281 C 1054.83 2.16186 0.858286 0
M  V30 11282 C 1055.83 1.10917 1.28039 0
M  V30 11283 O 1057.03 1.29233 1.25295 0
M  V30 11284 H 1053.41 0.691777 0.29487 0
M  V30 11285 H 1055.38 2.96499 0.336265 0
M  V30 11286 C 1054.13 2.77024 2.10127 0
M  V30 11287 H 1053.45 3.5772 1.78539 0
M  V30 11288 H 1054.89 3.21841 2.76033 0
M  V30 11289 C 1053.35 1.73752 2.88638 0
M  V30 11290 O 1053.88 1.18659 3.83774 0
M  V30 11291 N 1052.09 1.43855 2.52496 0
M  V30 11292 H 1051.63 1.88846 1.75199 0
M  V30 11293 H 1051.59 0.749985 3.05324 0
M  V30 11294 N 1055.36 -0.161842 1.56767 0
M  V30 11295 C 1056.59 -0.896274 1.87034 0
M  V30 11296 C 1057.01 -1.74617 0.699314 0
M  V30 11297 O 1056.37 -1.77861 -0.351435 0
M  V30 11298 C 1056.42 -1.74105 3.15784 0
M  V30 11299 O 1055.52 -2.84372 2.98674 0
M  V30 11300 H 1054.86 -0.250523 0.614926 0
M  V30 11301 H 1057.39 -0.157127 2.03996 0
M  V30 11302 H 1057.4 -2.13907 3.4743 0
M  V30 11303 H 1056.08 -1.11684 4.00624 0
M  V30 11304 H 1054.66 -2.48084 2.78404 0
M  V30 11305 N 1056.84 -1.516 -0.430713 0
M  V30 11306 C 1058.26 -1.39923 -0.767706 0
M  V30 11307 C 1058.46 -0.486756 -1.95532 0
M  V30 11308 O 1057.51 0.0555965 -2.52439 0
M  V30 11309 C 1058.83 -2.82074 -1.04187 0
M  V30 11310 C 1060.37 -2.9127 -1.1459 0
M  V30 11311 C 1060.85 -4.34342 -1.45295 0
M  V30 11312 N 1062.34 -4.37479 -1.52206 0
M  V30 11313 C 1063.08 -5.45219 -1.77549 0
M  V30 11314 N 1062.57 -6.6311 -2.0064 0
M  V30 11315 N 1064.36 -5.32707 -1.79386 0
M  V30 11316 H 1056.52 -2.09474 0.351351 0
M  V30 11317 H 1058.78 -0.943247 0.0948151 0
M  V30 11318 H 1058.48 -3.50868 -0.241837 0
M  V30 11319 H 1058.36 -3.21805 -1.96777 0
M  V30 11320 H 1060.75 -2.2267 -1.93655 0
M  V30 11321 H 1060.83 -2.55026 -0.198854 0
M  V30 11322 H 1060.47 -5.03494 -0.667559 0
M  V30 11323 H 1060.4 -4.68105 -2.41217 0
M  V30 11324 H 1062.89 -3.52488 -1.36237 0
M  V30 11325 H 1063.2 -7.41012 -2.19366 0
M  V30 11326 H 1061.55 -6.66214 -1.97948 0
M  V30 11327 H 1064.74 -4.39589 -1.60869 0
M  V30 11328 H 1064.91 -6.16752 -1.98799 0
M  V30 11329 N 1058.32 0.686584 -1.41858 0
M  V30 11330 C 1059.55 1.47305 -1.44862 0
M  V30 11331 C 1059.96 1.8912 -0.0549286 0
M  V30 11332 O 1059.3 1.57941 0.938101 0
M  V30 11333 C 1059.36 2.76107 -2.30229 0
M  V30 11334 C 1059.03 2.5644 -3.78269 0
M  V30 11335 C 1060.02 2.21803 -4.70212 0
M  V30 11336 C 1057.71 2.71801 -4.22409 0
M  V30 11337 C 1059.7 2.02778 -6.04284 0
M  V30 11338 C 1057.39 2.52392 -5.56544 0
M  V30 11339 C 1058.39 2.17933 -6.47298 0
M  V30 11340 O 1058.08 1.98701 -7.78956 0
M  V30 11341 H 1057.81 0.460174 -0.495193 0
M  V30 11342 H 1060.36 0.852069 -1.86893 0
M  V30 11343 H 1058.59 3.40644 -1.83026 0
M  V30 11344 H 1060.28 3.37947 -2.24826 0
M  V30 11345 H 1061.05 2.09542 -4.37398 0
M  V30 11346 H 1056.93 2.97605 -3.52069 0
M  V30 11347 H 1060.47 1.75805 -6.75084 0
M  V30 11348 H 1056.37 2.64246 -5.88935 0
M  V30 11349 H 1057.13 2.13393 -7.90193 0
M  V30 11350 N 1059.8 1.27835 0.921735 0
M  V30 11351 C 1060.76 1.11108 2.00469 0
M  V30 11352 C 1061.76 0.053203 1.60712 0
M  V30 11353 O 1062.95 0.298308 1.71627 0
M  V30 11354 C 1060.08 0.694269 3.33755 0
M  V30 11355 H 1061.28 2.07279 2.16738 0
M  V30 11356 H 1058.83 1.10708 1.10333 0
M  V30 11357 H 1059.56 -0.268561 3.23186 0
M  V30 11358 H 1059.35 1.45836 3.6397 0
M  V30 11359 H 1060.84 0.59965 4.13272 0
M  V30 11360 N 1061.28 -1.12907 1.09954 0
M  V30 11361 C 1062.52 -1.84306 0.838912 0
M  V30 11362 C 1062.85 -1.83825 -0.635508 0
M  V30 11363 O 1062.11 -1.27556 -1.48418 0
M  V30 11364 C 1062.4 -3.31885 1.32616 0
M  V30 11365 C 1062.07 -3.52542 2.81114 0
M  V30 11366 C 1060.73 -3.57888 3.21667 0
M  V30 11367 C 1063.08 -3.60065 3.76833 0
M  V30 11368 C 1060.41 -3.68296 4.567 0
M  V30 11369 C 1062.76 -3.72001 5.11662 0
M  V30 11370 C 1061.43 -3.75602 5.51797 0
M  V30 11371 H 1060.7 -0.674422 0.30698 0
M  V30 11372 H 1063.35 -1.33261 1.37527 0
M  V30 11373 H 1061.65 -3.85318 0.709719 0
M  V30 11374 H 1063.35 -3.85588 1.10105 0
M  V30 11375 H 1059.94 -3.4904 2.48735 0
M  V30 11376 H 1064.12 -3.55209 3.46612 0
M  V30 11377 H 1059.38 -3.69352 4.87226 0
M  V30 11378 H 1063.55 -3.76765 5.8568 0
M  V30 11379 H 1061.18 -3.83419 6.56425 0
M  V30 11380 N 1062.75 -0.88754 -1.30232 0
M  V30 11381 C 1063.68 -0.372481 -2.3051 0
M  V30 11382 C 1064.66 0.546037 -1.61098 0
M  V30 11383 O 1065.85 0.459345 -1.88689 0
M  V30 11384 C 1062.98 0.411605 -3.44852 0
M  V30 11385 C 1061.93 -0.415383 -4.2598 0
M  V30 11386 C 1061.26 0.495463 -5.324 0
M  V30 11387 C 1062.56 -1.65886 -4.95257 0
M  V30 11388 H 1064.25 -1.21045 -2.7384 0
M  V30 11389 H 1061.8 -0.583498 -1.31648 0
M  V30 11390 H 1063.75 0.782584 -4.1407 0
M  V30 11391 H 1062.48 1.28325 -3.00334 0
M  V30 11392 H 1061.14 -0.768534 -3.58454 0
M  V30 11393 H 1060.78 1.36489 -4.84128 0
M  V30 11394 H 1060.48 -0.0540885 -5.87575 0
M  V30 11395 H 1062.01 0.862901 -6.04472 0
M  V30 11396 H 1063.42 -1.35832 -5.56976 0
M  V30 11397 H 1061.82 -2.14881 -5.60309 0
M  V30 11398 H 1062.89 -2.40181 -4.21237 0
M  V30 11399 N 1064.23 1.43628 -0.648757 0
M  V30 11400 C 1065.16 2.33478 0.0320785 0
M  V30 11401 C 1066.14 1.49217 0.816605 0
M  V30 11402 O 1067.33 1.77892 0.778974 0
M  V30 11403 C 1064.46 3.32525 1.00222 0
M  V30 11404 C 1063.41 4.2674 0.328119 0
M  V30 11405 C 1062.74 5.15791 1.4094 0
M  V30 11406 C 1064.04 5.16493 -0.776701 0
M  V30 11407 H 1065.73 2.90657 -0.718257 0
M  V30 11408 H 1063.28 1.3976 -0.346852 0
M  V30 11409 H 1065.23 3.94277 1.4874 0
M  V30 11410 H 1063.96 2.73593 1.78366 0
M  V30 11411 H 1062.61 3.66346 -0.136569 0
M  V30 11412 H 1062.26 4.53201 2.18216 0
M  V30 11413 H 1061.96 5.79645 0.963631 0
M  V30 11414 H 1063.49 5.80416 1.89603 0
M  V30 11415 H 1064.9 5.7208 -0.373878 0
M  V30 11416 H 1063.3 5.89043 -1.14667 0
M  V30 11417 H 1064.37 4.56448 -1.63654 0
M  V30 11418 N 1065.71 0.390394 1.52688 0
M  V30 11419 C 1066.62 -0.451543 2.30213 0
M  V30 11420 C 1067.64 -1.07051 1.37172 0
M  V30 11421 O 1068.81 -1.07609 1.70242 0
M  V30 11422 C 1065.88 -1.56299 3.0947 0
M  V30 11423 C 1064.94 -0.969017 4.18221 0
M  V30 11424 C 1064.17 -2.0275 4.93688 0
M  V30 11425 O 1064.39 -3.24273 4.69258 0
M  V30 11426 O 1063.33 -1.64418 5.79008 0
M  V30 11427 H 1067.15 0.180042 3.03166 0
M  V30 11428 H 1064.74 0.154082 1.48603 0
M  V30 11429 H 1066.62 -2.20864 3.58883 0
M  V30 11430 H 1065.3 -2.17952 2.3933 0
M  V30 11431 H 1064.2 -0.286587 3.73001 0
M  V30 11432 H 1065.54 -0.396687 4.90599 0
M  V30 11433 N 1067.19 -1.57141 0.120249 0
M  V30 11434 C 1068.41 -2.00017 -0.548454 0
M  V30 11435 C 1068.84 -0.999433 -1.59352 0
M  V30 11436 O 1068.2 0.0286978 -1.81277 0
M  V30 11437 C 1068.24 -3.41766 -1.15015 0
M  V30 11438 O 1067.35 -3.44589 -2.26566 0
M  V30 11439 H 1066.69 -0.649739 -0.136875 0
M  V30 11440 H 1069.22 -2.03529 0.209092 0
M  V30 11441 H 1069.23 -3.80001 -1.48537 0
M  V30 11442 H 1067.9 -4.14117 -0.384681 0
M  V30 11443 H 1066.48 -3.18174 -1.94473 0
M  V30 11444 N 1068.67 0.153526 -1.5685 0
M  V30 11445 C 1069.89 0.882335 -1.87143 0
M  V30 11446 C 1070.31 1.75034 -0.707702 0
M  V30 11447 O 1069.67 1.79624 0.32273 0
M  V30 11448 C 1069.72 1.74444 -3.16625 0
M  V30 11449 O 1069.44 0.911419 -4.28515 0
M  V30 11450 C 1070.94 2.58139 -3.60388 0
M  V30 11451 H 1068.16 0.25546 -0.620469 0
M  V30 11452 H 1070.7 0.148275 -2.03962 0
M  V30 11453 H 1068.86 2.43163 -3.0158 0
M  V30 11454 H 1069.27 1.50268 -5.02513 0
M  V30 11455 H 1070.75 3.14215 -4.53842 0
M  V30 11456 H 1071.22 3.33865 -2.85361 0
M  V30 11457 H 1071.83 1.94721 -3.78105 0
M  V30 11458 N 1070.14 1.51827 0.422667 0
M  V30 11459 C 1071.08 1.68901 1.53453 0
M  V30 11460 C 1072.06 0.536549 1.53492 0
M  V30 11461 O 1073.24 0.762226 1.72402 0
M  V30 11462 C 1070.37 1.71599 2.92013 0
M  V30 11463 C 1069.41 2.92984 3.0994 0
M  V30 11464 S 1070.25 4.53559 2.84683 0
M  V30 11465 C 1071.4 4.59024 4.25498 0
M  V30 11466 H 1071.63 2.62943 1.38739 0
M  V30 11467 H 1069.17 1.41695 0.613347 0
M  V30 11468 H 1071.13 1.73838 3.71874 0
M  V30 11469 H 1069.79 0.787083 3.04079 0
M  V30 11470 H 1068.98 2.91315 4.1128 0
M  V30 11471 H 1068.58 2.88562 2.37924 0
M  V30 11472 H 1070.87 4.35567 5.18929 0
M  V30 11473 H 1071.82 5.60904 4.32195 0
M  V30 11474 H 1072.22 3.88193 4.09837 0
M  V30 11475 N 1071.62 -0.679052 1.4222 0
M  V30 11476 C 1072.57 -1.81398 1.45594 0
M  V30 11477 C 1073.56 -1.66112 0.332127 0
M  V30 11478 O 1074.77 -1.72772 0.504942 0
M  V30 11479 H 1071.15 -0.598045 0.455902 0
M  V30 11480 H 1073.12 -1.7567 2.41211 0
M  V30 11481 C 1071.87 -3.19525 1.37109 0
M  V30 11482 H 1071.19 -3.31912 2.22878 0
M  V30 11483 H 1072.63 -3.98967 1.43531 0
M  V30 11484 C 1071.09 -3.36792 0.0853593 0
M  V30 11485 O 1071.62 -3.92309 -0.863532 0
M  V30 11486 N 1069.82 -2.906 0.00389229 0
M  V30 11487 H 1069.37 -2.45607 0.776846 0
M  V30 11488 H 1069.33 -3.0253 -0.855742 0
M  V30 11489 N 1073.1 -1.28322 -0.914942 0
M  V30 11490 C 1074.01 -1.13993 -2.05043 0
M  V30 11491 C 1075.03 -0.0667921 -1.73872 0
M  V30 11492 O 1076.2 -0.275845 -1.99502 0
M  V30 11493 C 1073.27 -0.801856 -3.373 0
M  V30 11494 C 1072.33 -1.95723 -3.82088 0
M  V30 11495 C 1071.56 -1.63519 -5.08033 0
M  V30 11496 O 1071.78 -0.54899 -5.67752 0
M  V30 11497 O 1070.72 -2.47844 -5.48504 0
M  V30 11498 H 1074.54 -2.09313 -2.2005 0
M  V30 11499 H 1072.13 -1.0763 -1.03616 0
M  V30 11500 H 1074.01 -0.627214 -4.16706 0
M  V30 11501 H 1072.69 0.121696 -3.23471 0
M  V30 11502 H 1071.59 -2.18702 -3.03514 0
M  V30 11503 H 1072.93 -2.86144 -4.00478 0
M  V30 11504 N 1074.58 1.12322 -1.10551 0
M  V30 11505 C 1075.81 1.87407 -0.869607 0
M  V30 11506 C 1076.22 1.79976 0.58356 0
M  V30 11507 O 1075.56 1.1725 1.41415 0
M  V30 11508 C 1075.62 3.37401 -1.24099 0
M  V30 11509 C 1075.29 3.68607 -2.70144 0
M  V30 11510 C 1076.28 3.66869 -3.68379 0
M  V30 11511 C 1073.97 3.97903 -3.06559 0
M  V30 11512 C 1075.96 3.93987 -5.01052 0
M  V30 11513 C 1073.65 4.24681 -4.39419 0
M  V30 11514 C 1074.65 4.2271 -5.36475 0
M  V30 11515 O 1074.33 4.48823 -6.66943 0
M  V30 11516 H 1074.07 0.59978 -0.311834 0
M  V30 11517 H 1076.62 1.43037 -1.4741 0
M  V30 11518 H 1074.85 3.82332 -0.579606 0
M  V30 11519 H 1076.54 3.93833 -0.982378 0
M  V30 11520 H 1077.31 3.44297 -3.41591 0
M  V30 11521 H 1073.18 3.98578 -2.31638 0
M  V30 11522 H 1076.73 3.92364 -5.76798 0
M  V30 11523 H 1072.63 4.46727 -4.65945 0
M  V30 11524 H 1073.39 4.66436 -6.72592 0
M  V30 11525 N 1076.06 0.894434 1.2976 0
M  V30 11526 C 1077.01 0.339611 2.25457 0
M  V30 11527 C 1077.99 -0.537326 1.51663 0
M  V30 11528 O 1079.18 -0.380204 1.72868 0
M  V30 11529 C 1076.31 -0.436494 3.40514 0
M  V30 11530 C 1075.4 0.455065 4.21651 0
M  V30 11531 N 1075.79 1.55988 4.81146 0
M  V30 11532 C 1074.09 0.251893 4.45288 0
M  V30 11533 C 1074.79 2.1117 5.42017 0
M  V30 11534 N 1073.76 1.40541 5.25118 0
M  V30 11535 H 1077.57 1.18365 2.69011 0
M  V30 11536 H 1075.08 0.744895 1.44309 0
M  V30 11537 H 1077.08 -0.850678 4.08129 0
M  V30 11538 H 1075.74 -1.27786 2.98498 0
M  V30 11539 H 1076.75 1.94266 4.80084 0
M  V30 11540 H 1073.42 -0.551536 4.13841 0
M  V30 11541 H 1074.81 3.04 5.99194 0
M  V30 11542 N 1077.53 -1.43282 0.656365 0
M  V30 11543 C 1078.95 -1.56272 0.324213 0
M  V30 11544 C 1079.15 -1.63946 -1.1715 0
M  V30 11545 O 1078.21 -1.59625 -1.95643 0
M  V30 11546 C 1079.52 -2.82204 1.03833 0
M  V30 11547 C 1081.07 -2.95952 1.01889 0
M  V30 11548 C 1081.54 -4.2472 1.71397 0
M  V30 11549 N 1083.03 -4.31591 1.68176 0
M  V30 11550 C 1083.77 -5.30001 2.1883 0
M  V30 11551 N 1083.26 -6.34671 2.77785 0
M  V30 11552 N 1085.06 -5.21676 2.09311 0
M  V30 11553 H 1077.21 -1.36544 1.62694 0
M  V30 11554 H 1079.47 -0.655999 0.684375 0
M  V30 11555 H 1079.18 -2.82608 2.09346 0
M  V30 11556 H 1079.05 -3.72527 0.591878 0
M  V30 11557 H 1081.44 -2.95087 -0.0278431 0
M  V30 11558 H 1081.52 -2.0691 1.50406 0
M  V30 11559 H 1081.16 -4.26346 2.76028 0
M  V30 11560 H 1081.09 -5.12665 1.20342 0
M  V30 11561 H 1083.58 -3.56573 1.25157 0
M  V30 11562 H 1083.9 -7.06087 3.14104 0
M  V30 11563 H 1082.24 -6.35285 2.81847 0
M  V30 11564 H 1085.43 -4.3882 1.62955 0
M  V30 11565 H 1085.61 -5.9821 2.49095 0
M  V30 11566 N 1079.01 -0.398486 -1.52479 0
M  V30 11567 C 1080.43 -0.0488635 -1.59525 0
M  V30 11568 C 1080.63 1.43756 -1.41197 0
M  V30 11569 O 1079.69 2.20317 -1.23357 0
M  V30 11570 C 1081 -0.534262 -2.95916 0
M  V30 11571 C 1082.55 -0.491314 -3.0912 0
M  V30 11572 C 1083.02 -0.953049 -4.47974 0
M  V30 11573 N 1084.51 -0.909434 -4.54184 0
M  V30 11574 C 1085.25 -1.23801 -5.59876 0
M  V30 11575 N 1084.74 -1.63752 -6.73169 0
M  V30 11576 N 1086.54 -1.15867 -5.50028 0
M  V30 11577 H 1078.69 -1.36608 -1.62641 0
M  V30 11578 H 1080.95 -0.560515 -0.764544 0
M  V30 11579 H 1080.66 -1.57277 -3.14574 0
M  V30 11580 H 1080.53 0.0617787 -3.77149 0
M  V30 11581 H 1082.92 0.538123 -2.90152 0
M  V30 11582 H 1083 -1.12327 -2.29818 0
M  V30 11583 H 1082.64 -1.98076 -4.67684 0
M  V30 11584 H 1082.57 -0.298007 -5.25756 0
M  V30 11585 H 1085.06 -0.615569 -3.72853 0
M  V30 11586 H 1085.38 -1.87163 -7.49793 0
M  V30 11587 H 1083.72 -1.67647 -6.74477 0
M  V30 11588 H 1086.91 -0.845502 -4.60401 0
M  V30 11589 H 1087.09 -1.41805 -6.32294 0
M  V30 11590 N 1080.49 1.57075 -0.12858 0
M  V30 11591 C 1081.42 2.18833 0.814519 0
M  V30 11592 C 1082.4 1.13114 1.2704 0
M  V30 11593 O 1083.59 1.41387 1.33129 0
M  V30 11594 C 1080.72 2.79535 2.06101 0
M  V30 11595 C 1079.67 3.9092 1.74257 0
M  V30 11596 C 1079 4.38473 3.06015 0
M  V30 11597 C 1080.3 5.1257 1.00345 0
M  V30 11598 H 1081.99 2.97895 0.299862 0
M  V30 11599 H 1079.54 1.4329 0.14279 0
M  V30 11600 H 1081.49 3.21401 2.72543 0
M  V30 11601 H 1080.21 1.97777 2.59907 0
M  V30 11602 H 1078.87 3.49645 1.102 0
M  V30 11603 H 1078.52 3.53561 3.57776 0
M  V30 11604 H 1078.22 5.13591 2.85479 0
M  V30 11605 H 1079.75 4.82997 3.7356 0
M  V30 11606 H 1081.16 5.51395 1.56959 0
M  V30 11607 H 1079.56 5.93333 0.898693 0
M  V30 11608 H 1080.63 4.84899 -0.0081335 0
M  V30 11609 N 1081.97 -0.145205 1.5693 0
M  V30 11610 C 1082.92 -1.19841 1.99351 0
M  V30 11611 C 1083.91 -1.44371 0.886197 0
M  V30 11612 O 1085.12 -1.44642 1.07138 0
M  V30 11613 H 1081.49 -0.403437 0.63462 0
M  V30 11614 H 1083.46 -0.813932 2.87085 0
M  V30 11615 C 1082.21 -2.52377 2.39167 0
M  V30 11616 H 1081.54 -2.34332 3.23927 0
M  V30 11617 H 1082.98 -3.24694 2.72671 0
M  V30 11618 C 1081.43 -3.1305 1.24503 0
M  V30 11619 O 1081.96 -3.97962 0.546739 0
M  V30 11620 N 1080.17 -2.72528 1.00882 0
M  V30 11621 H 1079.72 -2.03576 1.57843 0
M  V30 11622 H 1079.68 -3.13456 0.24351 0
M  V30 11623 N 1083.45 -1.52049 -0.414609 0
M  V30 11624 C 1084.69 -1.67511 -1.17129 0
M  V30 11625 C 1085.05 -0.39383 -1.87917 0
M  V30 11626 O 1086.25 -0.424496 -2.65427 0
M  V30 11627 C 1084.52 -2.85982 -2.14357 0
M  V30 11628 S 1086.08 -3.21898 -2.98206 0
M  V30 11629 H 1082.9 -0.589923 -0.396877 0
M  V30 11630 H 1085.5 -1.90025 -0.459409 0
M  V30 11631 H 1084.21 -3.77488 -1.6103 0
M  V30 11632 H 1083.74 -2.65725 -2.90092 0
M  V30 11633 H 1085.75 -2.70095 -4.16249 0
M  V30 11634 N 1084.93 0.6715 -1.42579 0
M  V30 11635 C 1085.87 1.80623 -1.46554 0
M  V30 11636 C 1086.87 1.65934 -0.340932 0
M  V30 11637 O 1088.07 1.72502 -0.514098 0
M  V30 11638 H 1084.45 0.595619 -0.459067 0
M  V30 11639 H 1086.42 1.74388 -2.42139 0
M  V30 11640 C 1085.17 3.18794 -1.38801 0
M  V30 11641 H 1084.49 3.30725 -2.24635 0
M  V30 11642 H 1085.93 3.98201 -1.45645 0
M  V30 11643 C 1084.39 3.36742 -0.103219 0
M  V30 11644 O 1084.92 3.92761 0.842715 0
M  V30 11645 N 1083.13 2.90594 -0.0193034 0
M  V30 11646 H 1082.67 2.45192 -0.78986 0
M  V30 11647 H 1082.63 3.0298 0.839686 0
M  V30 11648 N 1086.4 1.28806 0.908124 0
M  V30 11649 C 1087.33 1.15758 2.02787 0
M  V30 11650 C 1088.31 0.053911 1.70015 0
M  V30 11651 O 1089.5 0.231901 1.9281 0
M  V30 11652 C 1086.63 0.824526 3.37371 0
M  V30 11653 C 1085.58 1.88359 3.84324 0
M  V30 11654 C 1084.91 1.40404 5.15937 0
M  V30 11655 C 1086.21 3.29108 4.05568 0
M  V30 11656 H 1087.9 2.09431 2.13961 0
M  V30 11657 H 1085.45 1.00831 1.02806 0
M  V30 11658 H 1087.4 0.71999 4.15204 0
M  V30 11659 H 1086.13 -0.147902 3.26265 0
M  V30 11660 H 1084.79 1.97736 3.087 0
M  V30 11661 H 1084.43 0.420515 5.01239 0
M  V30 11662 H 1084.13 2.11224 5.48323 0
M  V30 11663 H 1085.66 1.31283 5.9632 0
M  V30 11664 H 1087.07 3.2262 4.73909 0
M  V30 11665 H 1085.47 3.97812 4.49294 0
M  V30 11666 H 1086.54 3.72709 3.10187 0
M  V30 11667 N 1087.88 -1.11734 1.11145 0
M  V30 11668 C 1089.11 -1.87215 0.880811 0
M  V30 11669 C 1089.52 -1.80016 -0.569195 0
M  V30 11670 O 1088.88 -1.17926 -1.39283 0
M  V30 11671 C 1088.93 -3.36146 1.32998 0
M  V30 11672 O 1088.65 -3.43187 2.72313 0
M  V30 11673 C 1090.15 -4.28542 1.1343 0
M  V30 11674 H 1087.37 -0.592123 0.315645 0
M  V30 11675 H 1089.92 -1.41335 1.478 0
M  V30 11676 H 1088.07 -3.79542 0.776308 0
M  V30 11677 H 1088.49 -4.359 2.91705 0
M  V30 11678 H 1089.96 -5.31295 1.49764 0
M  V30 11679 H 1090.44 -4.39138 0.0735859 0
M  V30 11680 H 1091.04 -3.90935 1.67481 0
M  V30 11681 N 1089.36 -0.901303 -1.29284 0
M  V30 11682 C 1090.29 -0.337552 -2.26701 0
M  V30 11683 C 1091.3 0.517039 -1.54371 0
M  V30 11684 O 1092.49 0.333937 -1.75349 0
M  V30 11685 C 1089.59 0.537214 -3.34615 0
M  V30 11686 C 1088.77 -0.292017 -4.36424 0
M  V30 11687 C 1087.83 0.515837 -5.23666 0
M  V30 11688 O 1086.85 -0.0672303 -5.6916 0
M  V30 11689 N 1088.05 1.82159 -5.51179 0
M  V30 11690 H 1090.82 -1.17484 -2.75713 0
M  V30 11691 H 1088.38 -0.765957 -1.42635 0
M  V30 11692 H 1090.37 1.0841 -3.8991 0
M  V30 11693 H 1088.94 1.2752 -2.85408 0
M  V30 11694 H 1088.16 -1.02031 -3.80767 0
M  V30 11695 H 1089.45 -0.859855 -5.01482 0
M  V30 11696 H 1088.85 2.318 -5.16028 0
M  V30 11697 H 1087.4 2.31556 -6.09282 0
M  V30 11698 N 1090.84 1.42931 -0.663954 0
M  V30 11699 C 1092.09 2.00904 -0.179011 0
M  V30 11700 C 1092.4 1.53056 1.21791 0
M  V30 11701 O 1093.61 2.03374 1.79865 0
M  V30 11702 C 1092.06 3.58892 -0.269198 0
M  V30 11703 C 1091.67 4.15731 -1.66949 0
M  V30 11704 C 1093.41 4.24207 0.157589 0
M  V30 11705 C 1091.32 5.66047 -1.71303 0
M  V30 11706 H 1090.25 0.75135 -0.0631623 0
M  V30 11707 H 1092.9 1.6378 -0.827556 0
M  V30 11708 H 1091.28 3.93469 0.447048 0
M  V30 11709 H 1092.46 3.92634 -2.41195 0
M  V30 11710 H 1090.77 3.62826 -2.04318 0
M  V30 11711 H 1093.37 5.34503 0.145057 0
M  V30 11712 H 1093.71 3.98901 1.19095 0
M  V30 11713 H 1094.25 3.94552 -0.507274 0
M  V30 11714 H 1090.98 5.96136 -2.72584 0
M  V30 11715 H 1090.5 5.91167 -1.01398 0
M  V30 11716 H 1092.18 6.30275 -1.46158 0
M  V30 11717 N 1092.32 0.406567 1.52266 0
M  V30 11718 C 1093.56 -0.169717 2.01386 0
M  V30 11719 C 1093.88 -1.45864 1.29417 0
M  V30 11720 O 1093.15 -1.9136 0.419327 0
M  V30 11721 H 1091.73 -0.0657075 0.744105 0
M  V30 11722 H 1094.4 0.542221 1.87206 0
M  V30 11723 H 1093.49 -0.367659 3.09927 0
M  V30 11724 N 1093.79 -1.57004 0.136909 0
M  V30 11725 C 1095.04 -1.9541 -0.51569 0
M  V30 11726 C 1095.36 -1.02219 -1.66061 0
M  V30 11727 O 1094.63 -0.0818172 -1.95729 0
M  V30 11728 H 1093.21 -0.721504 -0.193497 0
M  V30 11729 H 1095.88 -1.93765 0.210046 0
M  V30 11730 H 1094.97 -2.98887 -0.898494 0
M  V30 11731 N 1095.27 0.136881 -1.57004 0
M  V30 11732 C 1096.2 1.17026 -2.02057 0
M  V30 11733 C 1097.18 1.44223 -0.901866 0
M  V30 11734 O 1098.37 1.54971 -1.17037 0
M  V30 11735 C 1095.5 2.50095 -2.40977 0
M  V30 11736 C 1094.45 2.37398 -3.56127 0
M  V30 11737 C 1093.78 3.75268 -3.80891 0
M  V30 11738 C 1095.08 1.84952 -4.88457 0
M  V30 11739 H 1096.77 0.795601 -2.88636 0
M  V30 11740 H 1094.32 0.381266 -1.38861 0
M  V30 11741 H 1096.27 3.22621 -2.71097 0
M  V30 11742 H 1095 2.89416 -1.51348 0
M  V30 11743 H 1093.65 1.67322 -3.26188 0
M  V30 11744 H 1093.3 4.12043 -2.88496 0
M  V30 11745 H 1093 3.67631 -4.5839 0
M  V30 11746 H 1094.53 4.49327 -4.13446 0
M  V30 11747 H 1095.94 2.4728 -5.17229 0
M  V30 11748 H 1094.34 1.88181 -5.69832 0
M  V30 11749 H 1095.41 0.805848 -4.78157 0
M  V30 11750 N 1096.75 1.52266 0.40654 0
M  V30 11751 C 1097.68 1.78755 1.50229 0
M  V30 11752 C 1098.66 0.638652 1.57655 0
M  V30 11753 O 1099.85 0.884505 1.72888 0
M  V30 11754 C 1096.98 1.94057 2.88026 0
M  V30 11755 C 1095.93 3.09667 2.95449 0
M  V30 11756 C 1095.26 3.10196 4.35526 0
M  V30 11757 C 1096.56 4.49077 2.66697 0
M  V30 11758 H 1098.25 2.70511 1.28313 0
M  V30 11759 H 1095.8 1.30167 0.615836 0
M  V30 11760 H 1097.75 2.11171 3.64671 0
M  V30 11761 H 1096.47 0.989755 3.11242 0
M  V30 11762 H 1095.13 2.92308 2.2125 0
M  V30 11763 H 1094.78 2.12831 4.55754 0
M  V30 11764 H 1094.48 3.87847 4.41416 0
M  V30 11765 H 1096 3.29443 5.14101 0
M  V30 11766 H 1097.42 4.66628 3.33064 0
M  V30 11767 H 1095.82 5.28665 2.8396 0
M  V30 11768 H 1096.89 4.56995 1.62122 0
M  V30 11769 N 1098.23 -0.663929 1.42933 0
M  V30 11770 C 1099.51 -1.42054 1.34462 0
M  V30 11771 C 1099.89 -2.11096 -0.0127801 0
M  V30 11772 O 1099.23 -2.04027 -1.02884 0
M  V30 11773 C 1099.44 -2.41406 2.5204 0
M  V30 11774 C 1100.79 -3.05726 2.94647 0
M  V30 11775 O 1101.82 -2.51733 2.52009 0
M  V30 11776 O 1100.67 -4.03593 3.68477 0
M  V30 11777 H 1097.77 -0.634149 0.530834 0
M  V30 11778 H 1100.31 -0.691738 1.54962 0
M  V30 11779 H 1099.09 -1.89263 3.42484 0
M  V30 11780 H 1098.71 -3.21752 2.33584 0
M  V30 11781 N 1099.71 -1.29285 -0.901281 0
M  V30 11782 C 1100.93 -1.20048 -1.68511 0
M  V30 11783 C 1101.35 0.239128 -1.8728 0
M  V30 11784 O 1100.71 1.16027 -1.40869 0
M  V30 11785 C 1100.76 -1.90798 -3.07048 0
M  V30 11786 O 1100.48 -3.29137 -2.89138 0
M  V30 11787 C 1101.98 -1.88017 -4.01453 0
M  V30 11788 H 1099.2 -0.416157 -0.52636 0
M  V30 11789 H 1101.74 -1.7063 -1.12719 0
M  V30 11790 H 1099.9 -1.44055 -3.5962 0
M  V30 11791 H 1100.31 -3.64747 -3.76908 0
M  V30 11792 H 1101.79 -2.42088 -4.96082 0
M  V30 11793 H 1102.26 -0.855341 -4.30791 0
M  V30 11794 H 1102.87 -2.34497 -3.54812 0
M  V30 11795 N 1101.18 1.11143 -1.11736 0
M  V30 11796 C 1102.13 2.17274 -0.778513 0
M  V30 11797 C 1103.1 1.64186 0.251405 0
M  V30 11798 O 1104.29 1.90373 0.127629 0
M  V30 11799 C 1101.43 3.44324 -0.231246 0
M  V30 11800 C 1100.54 4.114 -1.31809 0
M  V30 11801 C 1099.67 5.26146 -0.73104 0
M  V30 11802 C 1098.71 5.85112 -1.79752 0
M  V30 11803 N 1097.85 6.91247 -1.22973 0
M  V30 11804 H 1102.69 2.45603 -1.68769 0
M  V30 11805 H 1100.23 1.20565 -0.842759 0
M  V30 11806 H 1102.19 4.1707 0.104045 0
M  V30 11807 H 1100.82 3.16369 0.641119 0
M  V30 11808 H 1099.87 3.36697 -1.77029 0
M  V30 11809 H 1101.18 4.51278 -2.12485 0
M  V30 11810 H 1100.33 6.05713 -0.345987 0
M  V30 11811 H 1099.07 4.87583 0.107 0
M  V30 11812 H 1098.08 5.0422 -2.19185 0
M  V30 11813 H 1099.3 6.25741 -2.63865 0
M  V30 11814 H 1097.25 6.54696 -0.41339 0
M  V30 11815 H 1097.17 7.29796 -1.97316 0
M  V30 11816 H 1098.43 7.74611 -0.87167 0
M  V30 11817 N 1102.66 0.908147 1.28804 0
M  V30 11818 C 1103.91 0.53734 1.94826 0
M  V30 11819 C 1104.23 -0.920962 1.71882 0
M  V30 11820 O 1103.5 -1.65043 1.05534 0
M  V30 11821 H 1102.08 0.195729 0.720902 0
M  V30 11822 H 1104.74 1.15628 1.56895 0
M  V30 11823 H 1103.84 0.727052 3.03513 0
M  V30 11824 N 1104.14 -1.42577 0.671525 0
M  V30 11825 C 1105.37 -2.05625 0.20044 0
M  V30 11826 C 1105.78 -1.50524 -1.14626 0
M  V30 11827 O 1105.12 -0.638468 -1.72248 0
M  V30 11828 C 1105.18 -3.59459 0.0545385 0
M  V30 11829 C 1104.85 -4.37236 1.32943 0
M  V30 11830 C 1105.84 -4.68104 2.26219 0
M  V30 11831 C 1103.53 -4.76932 1.57612 0
M  V30 11832 C 1105.52 -5.37599 3.42442 0
M  V30 11833 C 1103.21 -5.46167 2.74125 0
M  V30 11834 C 1104.21 -5.76425 3.66364 0
M  V30 11835 O 1103.9 -6.44242 4.8084 0
M  V30 11836 H 1103.63 -0.66918 0.0957843 0
M  V30 11837 H 1106.18 -1.83759 0.917701 0
M  V30 11838 H 1104.41 -3.79971 -0.718271 0
M  V30 11839 H 1106.1 -4.04152 -0.376251 0
M  V30 11840 H 1106.87 -4.37939 2.08409 0
M  V30 11841 H 1102.75 -4.52776 0.866887 0
M  V30 11842 H 1106.29 -5.61133 4.14458 0
M  V30 11843 H 1102.19 -5.75749 2.91861 0
M  V30 11844 H 1102.96 -6.62732 4.80342 0
M  V30 11845 N 1105.62 -0.414636 -1.52048 0
M  V30 11846 C 1106.87 0.159034 -2.01473 0
M  V30 11847 C 1107.19 1.45176 -1.30188 0
M  V30 11848 O 1106.46 1.91134 -0.429469 0
M  V30 11849 H 1105.04 0.0617604 -0.744443 0
M  V30 11850 H 1107.7 -0.552141 -1.86916 0
M  V30 11851 H 1106.8 0.351217 -3.10118 0
M  V30 11852 N 1107.1 1.56929 -0.145233 0
M  V30 11853 C 1108.35 1.95243 0.506273 0
M  V30 11854 C 1108.66 1.0325 1.66129 0
M  V30 11855 O 1109.86 1.31135 2.37731 0
M  V30 11856 C 1108.32 3.47079 0.952042 0
M  V30 11857 C 1107.93 4.47654 -0.175947 0
M  V30 11858 C 1109.67 3.94263 1.57344 0
M  V30 11859 C 1107.58 5.90698 0.287993 0
M  V30 11860 H 1106.51 0.728906 0.192903 0
M  V30 11861 H 1109.16 1.82062 -0.229295 0
M  V30 11862 H 1107.54 3.55587 1.74282 0
M  V30 11863 H 1108.72 4.50841 -0.952848 0
M  V30 11864 H 1107.03 4.10377 -0.70564 0
M  V30 11865 H 1109.63 4.9857 1.93214 0
M  V30 11866 H 1109.97 3.35714 2.46174 0
M  V30 11867 H 1110.5 3.88665 0.847593 0
M  V30 11868 H 1107.24 6.53061 -0.564889 0
M  V30 11869 H 1106.76 5.90876 1.03081 0
M  V30 11870 H 1108.44 6.42747 0.740586 0
M  V30 11871 N 1108.58 -0.128553 1.57075 0
M  V30 11872 C 1109.82 -0.836355 1.83982 0
M  V30 11873 C 1110.14 -1.80862 0.728971 0
M  V30 11874 O 1109.41 -1.94326 -0.247859 0
M  V30 11875 H 1107.99 -0.31185 0.678792 0
M  V30 11876 H 1110.66 -0.118153 1.94542 0
M  V30 11877 H 1109.75 -1.38741 2.79567 0
M  V30 11878 N 1110.05 -1.5248 -0.398459 0
M  V30 11879 C 1110.99 -1.71321 -1.50746 0
M  V30 11880 C 1111.96 -0.5609 -1.52619 0
M  V30 11881 O 1113.15 -0.789557 -1.71167 0
M  V30 11882 C 1110.28 -1.76223 -2.89246 0
M  V30 11883 C 1109.32 -2.97878 -3.05239 0
M  V30 11884 S 1110.15 -4.58031 -2.77431 0
M  V30 11885 C 1111.31 -4.65735 -4.18141 0
M  V30 11886 H 1111.54 -2.65117 -1.34538 0
M  V30 11887 H 1109.08 -1.42653 -0.590727 0
M  V30 11888 H 1111.03 -1.79733 -3.69062 0
M  V30 11889 H 1109.7 -0.83536 -3.02788 0
M  V30 11890 H 1108.89 -2.97821 -4.06594 0
M  V30 11891 H 1108.49 -2.92311 -2.33304 0
M  V30 11892 H 1110.78 -4.43768 -5.11934 0
M  V30 11893 H 1111.73 -5.67709 -4.23217 0
M  V30 11894 H 1112.13 -3.94664 -4.03609 0
M  V30 11895 N 1111.53 0.65634 -1.43283 0
M  V30 11896 C 1112.94 1.23744 -1.39801 0
M  V30 11897 C 1113.29 1.95942 -0.100507 0
M  V30 11898 O 1112.42 2.01063 0.800161 0
M  V30 11899 C 1113.01 2.25062 -2.53244 0
M  V30 11900 C 1111.57 2.78657 -2.53036 0
M  V30 11901 C 1110.72 1.53251 -2.31105 0
M  V30 11902 H 1113.67 0.448553 -1.52229 0
M  V30 11903 H 1113.69 3.07174 -2.24553 0
M  V30 11904 H 1113.2 1.72487 -3.47664 0
M  V30 11905 H 1111.3 3.35304 -1.62487 0
M  V30 11906 H 1111.42 3.26414 -3.507 0
M  V30 11907 H 1109.78 1.80487 -1.79713 0
M  V30 11908 H 1110.56 1.02615 -3.27605 0
M  V30 11909 N 1113.01 1.29761 0.894412 0
M  V30 11910 C 1113.94 1.17902 2.01547 0
M  V30 11911 C 1114.92 0.0719402 1.69948 0
M  V30 11912 O 1116.11 0.252338 1.92554 0
M  V30 11913 C 1113.24 0.860262 3.36477 0
M  V30 11914 C 1112.19 1.92424 3.82305 0
M  V30 11915 C 1111.52 1.45868 5.14419 0
M  V30 11916 C 1112.82 3.33391 4.02054 0
M  V30 11917 H 1114.51 2.11688 2.11727 0
M  V30 11918 H 1112.06 1.01916 1.01731 0
M  V30 11919 H 1114.01 0.763987 4.14417 0
M  V30 11920 H 1112.73 -0.113289 3.26403 0
M  V30 11921 H 1111.39 2.00999 3.06586 0
M  V30 11922 H 1111.04 0.473654 5.00765 0
M  V30 11923 H 1110.74 2.17028 5.46052 0
M  V30 11924 H 1112.26 1.37601 5.94894 0
M  V30 11925 H 1113.68 3.27628 4.7046 0
M  V30 11926 H 1112.07 4.02555 4.4505 0
M  V30 11927 H 1113.14 3.75978 3.06216 0
M  V30 11928 N 1114.49 -1.10549 1.12324 0
M  V30 11929 C 1115.74 -1.82124 0.876083 0
M  V30 11930 C 1116.06 -1.85547 -0.599761 0
M  V30 11931 O 1115.33 -1.33269 -1.43584 0
M  V30 11932 H 1113.91 -0.674455 0.321122 0
M  V30 11933 H 1116.57 -1.33766 1.41748 0
M  V30 11934 H 1115.66 -2.85688 1.25653 0
M  V30 11935 N 1115.97 -0.914965 -1.28321 0
M  V30 11936 C 1117.19 -0.564023 -1.99583 0
M  V30 11937 C 1117.62 0.847821 -1.6791 0
M  V30 11938 O 1116.97 1.56682 -0.912171 0
M  V30 11939 C 1117.02 -0.781368 -3.52033 0
M  V30 11940 O 1116.13 0.159072 -4.12093 0
M  V30 11941 H 1115.47 -0.218565 -0.626997 0
M  V30 11942 H 1118 -1.23074 -1.63444 0
M  V30 11943 H 1118.01 -0.691946 -4.0209 0
M  V30 11944 H 1116.68 -1.81059 -3.7442 0
M  V30 11945 H 1115.26 0.0208145 -3.72894 0
M  V30 11946 N 1117.44 1.42219 -0.679077 0
M  V30 11947 C 1118.85 1.8459 -0.279877 0
M  V30 11948 C 1119.21 1.56839 1.17881 0
M  V30 11949 O 1118.33 1.03039 1.90294 0
M  V30 11950 C 1118.93 3.35072 -0.501185 0
M  V30 11951 C 1117.48 3.76076 -0.156065 0
M  V30 11952 C 1116.63 2.65763 -0.791549 0
M  V30 11953 H 1119.58 1.32005 -0.880932 0
M  V30 11954 H 1119.6 3.79708 0.245349 0
M  V30 11955 H 1119.12 3.55239 -1.56291 0
M  V30 11956 H 1117.22 3.61516 0.90205 0
M  V30 11957 H 1117.33 4.75334 -0.599572 0
M  V30 11958 H 1115.69 2.53726 -0.222514 0
M  V30 11959 H 1116.48 2.88751 -1.85682 0
M  V30 11960 N 1118.92 0.422693 1.51826 0
M  V30 11961 C 1120.17 -0.148641 2.01954 0
M  V30 11962 C 1120.5 -1.43982 1.30765 0
M  V30 11963 O 1119.75 -1.91428 0.406668 0
M  V30 11964 C 1120.05 -0.429516 3.5481 0
M  V30 11965 C 1119.72 0.774088 4.44206 0
M  V30 11966 C 1118.38 1.1042 4.6836 0
M  V30 11967 C 1120.73 1.5777 4.96747 0
M  V30 11968 C 1118.06 2.23887 5.42302 0
M  V30 11969 C 1120.41 2.70325 5.71933 0
M  V30 11970 C 1119.07 3.03807 5.94355 0
M  V30 11971 H 1118.34 -0.0543917 0.739001 0
M  V30 11972 H 1120.99 0.566892 1.82917 0
M  V30 11973 H 1119.3 -1.22678 3.72099 0
M  V30 11974 H 1120.99 -0.884761 3.91118 0
M  V30 11975 H 1117.58 0.506834 4.25593 0
M  V30 11976 H 1121.77 1.33589 4.77983 0
M  V30 11977 H 1117.02 2.50159 5.5788 0
M  V30 11978 H 1121.2 3.32974 6.11638 0
M  V30 11979 H 1118.82 3.91844 6.51431 0
M  V30 11980 N 1120.4 -1.5685 0.153553 0
M  V30 11981 C 1121.82 -1.58306 -0.202801 0
M  V30 11982 C 1122.02 -1.16813 -1.64186 0
M  V30 11983 O 1121.07 -0.871468 -2.36985 0
M  V30 11984 C 1122.38 -3.00636 0.0619012 0
M  V30 11985 C 1123.93 -3.13 -0.00129219 0
M  V30 11986 C 1124.41 -4.57391 0.236164 0
M  V30 11987 N 1125.9 -4.62837 0.18332 0
M  V30 11988 C 1126.63 -5.72382 0.341471 0
M  V30 11989 N 1126.13 -6.90552 0.557704 0
M  V30 11990 N 1127.92 -5.61409 0.278615 0
M  V30 11991 H 1120.07 -1.82113 1.09309 0
M  V30 11992 H 1122.34 -0.843228 0.433209 0
M  V30 11993 H 1122.04 -3.35406 1.0581 0
M  V30 11994 H 1121.92 -3.71477 -0.654555 0
M  V30 11995 H 1124.3 -2.78068 -0.98805 0
M  V30 11996 H 1124.38 -2.44632 0.747596 0
M  V30 11997 H 1124.03 -4.93029 1.22005 0
M  V30 11998 H 1123.96 -5.23894 -0.533125 0
M  V30 11999 H 1126.45 -3.77894 0.0211138 0
M  V30 12000 H 1126.76 -7.69905 0.66831 0
M  V30 12001 H 1125.11 -6.92456 0.594105 0
M  V30 12002 H 1128.3 -4.6797 0.110401 0
M  V30 12003 H 1128.47 -6.46731 0.4053 0
M  V30 12004 N 1121.88 0.120221 -1.57141 0
M  V30 12005 C 1123.15 0.858458 -1.75755 0
M  V30 12006 C 1123.53 1.98124 -0.728693 0
M  V30 12007 O 1122.88 2.27155 0.247573 0
M  V30 12008 C 1123.09 1.37627 -3.20718 0
M  V30 12009 C 1124.44 1.82909 -3.83183 0
M  V30 12010 O 1125.46 1.47309 -3.24312 0
M  V30 12011 O 1124.32 2.4865 -4.86657 0
M  V30 12012 H 1121.42 0.407583 -0.719587 0
M  V30 12013 H 1123.96 0.104057 -1.69381 0
M  V30 12014 H 1122.74 0.570651 -3.87117 0
M  V30 12015 H 1122.36 2.19341 -3.31625 0
M  V30 12016 N 1123.36 1.52689 0.390367 0
M  V30 12017 C 1124.27 1.8029 1.50108 0
M  V30 12018 C 1125.28 0.689582 1.59752 0
M  V30 12019 O 1126.46 0.977024 1.76114 0
M  V30 12020 C 1123.52 1.96475 2.85654 0
M  V30 12021 C 1122.58 3.2039 2.85743 0
M  V30 12022 C 1121.82 3.35793 4.14824 0
M  V30 12023 O 1122.04 2.56033 5.09709 0
M  V30 12024 O 1120.97 4.2904 4.22147 0
M  V30 12025 H 1124.8 2.74605 1.29715 0
M  V30 12026 H 1122.39 1.37763 0.578074 0
M  V30 12027 H 1124.27 2.08835 3.66013 0
M  V30 12028 H 1122.94 1.05351 3.06077 0
M  V30 12029 H 1121.85 3.13473 2.0417 0
M  V30 12030 H 1123.18 4.11356 2.70272 0
M  V30 12031 N 1124.83 -0.648732 1.43629 0
M  V30 12032 C 1126.08 -1.40446 1.44768 0
M  V30 12033 C 1126.4 -1.95447 0.0773445 0
M  V30 12034 O 1127.6 -2.71479 -0.0337942 0
M  V30 12035 C 1126.06 -2.54194 2.54781 0
M  V30 12036 C 1125.67 -2.05781 3.97942 0
M  V30 12037 C 1127.41 -3.31529 2.65121 0
M  V30 12038 C 1125.32 -3.16767 4.99412 0
M  V30 12039 H 1124.25 -0.527717 0.538545 0
M  V30 12040 H 1126.9 -0.699756 1.69634 0
M  V30 12041 H 1125.28 -3.27156 2.23125 0
M  V30 12042 H 1126.45 -1.398 4.39081 0
M  V30 12043 H 1124.77 -1.41312 3.91688 0
M  V30 12044 H 1127.37 -4.14233 3.38105 0
M  V30 12045 H 1127.71 -3.79855 1.70341 0
M  V30 12046 H 1128.24 -2.65649 2.961 0
M  V30 12047 H 1124.98 -2.73404 5.9576 0
M  V30 12048 H 1124.5 -3.81445 4.62882 0
M  V30 12049 H 1126.18 -3.81827 5.22319 0
M  V30 12050 N 1126.31 -1.30234 -0.887518 0
M  V30 12051 C 1127.54 -1.21829 -1.67229 0
M  V30 12052 C 1127.96 0.219251 -1.87523 0
M  V30 12053 O 1127.31 1.14526 -1.42091 0
M  V30 12054 C 1127.36 -1.94044 -3.05007 0
M  V30 12055 O 1127.08 -3.32185 -2.85631 0
M  V30 12056 C 1128.59 -1.92265 -3.99436 0
M  V30 12057 H 1125.81 -0.421716 -0.521916 0
M  V30 12058 H 1128.35 -1.71816 -1.10903 0
M  V30 12059 H 1126.5 -1.47861 -3.58072 0
M  V30 12060 H 1126.92 -3.68724 -3.73018 0
M  V30 12061 H 1128.39 -2.47336 -4.93486 0
M  V30 12062 H 1128.87 -0.900984 -4.29859 0
M  V30 12063 H 1129.48 -2.38247 -3.52305 0
M  V30 12064 N 1127.79 1.09952 -1.12909 0
M  V30 12065 C 1128.72 2.18477 -0.824014 0
M  V30 12066 C 1129.7 1.68744 0.214324 0
M  V30 12067 O 1130.89 1.94057 0.0744281 0
M  V30 12068 C 1128.02 3.46143 -0.283308 0
M  V30 12069 C 1126.97 4.09178 -1.25528 0
M  V30 12070 C 1126.3 5.31604 -0.574574 0
M  V30 12071 C 1127.6 4.52308 -2.6118 0
M  V30 12072 H 1129.29 2.44254 -1.73148 0
M  V30 12073 H 1126.84 1.17394 -0.833952 0
M  V30 12074 H 1128.79 4.21361 -0.057583 0
M  V30 12075 H 1127.51 3.19872 0.659525 0
M  V30 12076 H 1126.17 3.35973 -1.4669 0
M  V30 12077 H 1125.82 5.01611 0.37356 0
M  V30 12078 H 1125.52 5.74732 -1.22299 0
M  V30 12079 H 1127.04 6.0955 -0.358004 0
M  V30 12080 H 1128.46 5.18776 -2.44017 0
M  V30 12081 H 1126.86 5.06302 -3.22147 0
M  V30 12082 H 1127.93 3.64977 -3.19249 0
M  V30 12083 N 1129.27 0.921757 1.27833 0
M  V30 12084 C 1130.23 0.420978 2.25301 0
M  V30 12085 C 1131.23 -0.457158 1.54165 0
M  V30 12086 O 1132.42 -0.259079 1.72263 0
M  V30 12087 C 1129.55 -0.395501 3.38598 0
M  V30 12088 H 1130.75 1.28206 2.71115 0
M  V30 12089 H 1128.3 0.701893 1.39654 0
M  V30 12090 H 1129.03 -1.27565 2.98157 0
M  V30 12091 H 1128.82 0.234029 3.91401 0
M  V30 12092 H 1130.31 -0.736444 4.11055 0
M  V30 12093 N 1130.75 -1.41857 0.686609 0
M  V30 12094 C 1132 -2.00594 0.21095 0
M  V30 12095 C 1132.31 -1.54974 -1.19341 0
M  V30 12096 O 1133.51 -2.0621 -1.76607 0
M  V30 12097 C 1131.97 -3.58418 0.326261 0
M  V30 12098 C 1131.58 -4.13022 1.73542 0
M  V30 12099 C 1133.32 -4.24404 -0.0900816 0
M  V30 12100 C 1131.23 -5.6325 1.80287 0
M  V30 12101 H 1130.16 -0.75025 0.0751077 0
M  V30 12102 H 1132.81 -1.62442 0.853508 0
M  V30 12103 H 1131.19 -3.9413 -0.384394 0
M  V30 12104 H 1132.37 -3.88747 2.47411 0
M  V30 12105 H 1130.68 -3.5953 2.10065 0
M  V30 12106 H 1133.28 -5.34666 -0.060004 0
M  V30 12107 H 1133.62 -4.00745 -1.12733 0
M  V30 12108 H 1134.15 -3.93695 0.569979 0
M  V30 12109 H 1130.89 -5.91724 2.82034 0
M  V30 12110 H 1130.41 -5.89479 1.1079 0
M  V30 12111 H 1132.09 -6.2787 1.56167 0
M  V30 12112 N 1132.22 -0.430739 -1.51599 0
M  V30 12113 C 1133.15 0.374695 -2.30474 0
M  V30 12114 C 1134.14 1.02694 -1.35602 0
M  V30 12115 O 1135.32 1.03184 -1.6452 0
M  V30 12116 C 1132.45 1.47981 -3.14196 0
M  V30 12117 C 1131.4 0.951415 -4.17291 0
M  V30 12118 C 1130.73 2.15177 -4.89492 0
M  V30 12119 C 1132.03 -0.00957951 -5.22299 0
M  V30 12120 H 1133.72 -0.283508 -2.98055 0
M  V30 12121 H 1131.27 -0.13779 -1.43339 0
M  V30 12122 H 1133.22 2.05043 -3.68151 0
M  V30 12123 H 1131.95 2.16621 -2.44424 0
M  V30 12124 H 1130.61 0.403052 -3.64378 0
M  V30 12125 H 1130.25 2.82421 -4.1623 0
M  V30 12126 H 1129.95 1.80464 -5.59202 0
M  V30 12127 H 1131.48 2.72806 -5.46269 0
M  V30 12128 H 1132.89 0.470527 -5.71366 0
M  V30 12129 H 1131.29 -0.268959 -5.99497 0
M  V30 12130 H 1132.36 -0.948297 -4.75537 0
M  V30 12131 N 1133.7 1.56767 -0.161869 0
M  V30 12132 C 1134.63 2.1466 0.803356 0
M  V30 12133 C 1135.65 1.09977 1.20037 0
M  V30 12134 O 1136.84 1.37199 1.14187 0
M  V30 12135 C 1133.94 2.66663 2.09151 0
M  V30 12136 C 1133.11 3.95904 1.85953 0
M  V30 12137 C 1132.17 4.33067 2.98897 0
M  V30 12138 O 1131.19 5.01119 2.69942 0
M  V30 12139 N 1132.4 3.93856 4.26448 0
M  V30 12140 H 1135.16 2.98108 0.308472 0
M  V30 12141 H 1132.72 1.61886 0.0212238 0
M  V30 12142 H 1134.71 2.88528 2.83784 0
M  V30 12143 H 1133.28 1.87856 2.49857 0
M  V30 12144 H 1132.5 3.82513 0.952751 0
M  V30 12145 H 1133.79 4.8033 1.67811 0
M  V30 12146 H 1133.19 3.39051 4.52836 0
M  V30 12147 H 1131.75 4.20741 4.97815 0
M  V30 12148 N 1135.18 -0.111886 1.57202 0
M  V30 12149 C 1136.11 -1.13796 2.03894 0
M  V30 12150 C 1137.09 -1.4277 0.924696 0
M  V30 12151 O 1138.28 -1.53089 1.19488 0
M  V30 12152 C 1135.41 -2.46229 2.44925 0
M  V30 12153 C 1134.36 -2.31702 3.59859 0
M  V30 12154 C 1133.69 -3.69161 3.86813 0
M  V30 12155 C 1134.99 -1.77158 4.91337 0
M  V30 12156 H 1136.68 -0.749581 2.89865 0
M  V30 12157 H 1134.23 -0.359126 1.3945 0
M  V30 12158 H 1136.18 -3.18267 2.76195 0
M  V30 12159 H 1134.9 -2.86971 1.55933 0
M  V30 12160 H 1133.56 -1.62112 3.28809 0
M  V30 12161 H 1133.21 -4.07401 2.95015 0
M  V30 12162 H 1132.91 -3.60292 4.6418 0
M  V30 12163 H 1134.43 -4.42693 4.20542 0
M  V30 12164 H 1135.85 -2.3902 5.21097 0
M  V30 12165 H 1134.25 -1.79091 5.72753 0
M  V30 12166 H 1135.32 -0.729675 4.79379 0
M  V30 12167 N 1136.66 -1.52894 -0.382264 0
M  V30 12168 C 1137.59 -1.74413 -1.48703 0
M  V30 12169 C 1138.6 -0.624663 -1.50339 0
M  V30 12170 O 1139.79 -0.900527 -1.54119 0
M  V30 12171 C 1136.89 -1.79387 -2.8753 0
M  V30 12172 C 1136.07 -3.08794 -3.09783 0
M  V30 12173 C 1135.12 -3.05226 -4.2863 0
M  V30 12174 O 1134.15 -3.79073 -4.24609 0
M  V30 12175 N 1135.35 -2.2488 -5.35172 0
M  V30 12176 H 1138.12 -2.69734 -1.30628 0
M  V30 12177 H 1135.68 -1.51465 -0.571842 0
M  V30 12178 H 1137.67 -1.74498 -3.65147 0
M  V30 12179 H 1136.24 -0.914233 -2.98932 0
M  V30 12180 H 1135.46 -3.27118 -2.19971 0
M  V30 12181 H 1136.75 -3.94347 -3.21509 0
M  V30 12182 H 1136.15 -1.64363 -5.41296 0
M  V30 12183 H 1134.7 -2.25825 -6.1143 0
M  V30 12184 N 1138.14 0.641106 -1.43971 0
M  V30 12185 C 1139.05 1.78239 -1.52538 0
M  V30 12186 C 1140.06 1.6906 -0.411668 0
M  V30 12187 O 1141.24 1.90014 -0.66757 0
M  V30 12188 C 1138.3 3.14579 -1.45743 0
M  V30 12189 C 1137.37 3.35464 -2.67885 0
M  V30 12190 C 1136.6 4.65299 -2.61404 0
M  V30 12191 O 1136.82 5.45451 -1.66851 0
M  V30 12192 O 1135.76 4.8817 -3.521 0
M  V30 12193 H 1139.58 1.73965 -2.48937 0
M  V30 12194 H 1137.17 0.801098 -1.26106 0
M  V30 12195 H 1139.05 3.95873 -1.4444 0
M  V30 12196 H 1137.72 3.19417 -0.524837 0
M  V30 12197 H 1136.63 2.53888 -2.74758 0
M  V30 12198 H 1137.96 3.35481 -3.60157 0
M  V30 12199 N 1139.62 1.30703 0.880598 0
M  V30 12200 C 1140.56 1.17369 2.00817 0
M  V30 12201 C 1141.56 0.0845159 1.69189 0
M  V30 12202 O 1142.76 0.245673 1.78316 0
M  V30 12203 H 1139.14 0.363107 0.658527 0
M  V30 12204 H 1141.11 2.12789 2.09197 0
M  V30 12205 C 1139.86 0.886851 3.362 0
M  V30 12206 H 1139.18 1.71704 3.61051 0
M  V30 12207 H 1140.62 0.83368 4.15723 0
M  V30 12208 C 1139.08 -0.410293 3.34392 0
M  V30 12209 O 1139.61 -1.43044 3.75368 0
M  V30 12210 N 1137.82 -0.423023 2.87505 0
M  V30 12211 H 1137.36 0.407637 2.54354 0
M  V30 12212 H 1137.32 -1.29086 2.86678 0
M  V30 12213 N 1141.09 -1.09351 1.1349 0
M  V30 12214 C 1142.04 -2.18099 0.808426 0
M  V30 12215 C 1143.04 -1.68099 -0.209571 0
M  V30 12216 O 1144.24 -1.79877 -0.0666417 0
M  V30 12217 H 1140.62 -0.711432 0.243658 0
M  V30 12218 H 1142.59 -2.42867 1.73373 0
M  V30 12219 C 1141.34 -3.46475 0.291615 0
M  V30 12220 H 1140.66 -3.85319 1.06627 0
M  V30 12221 H 1142.1 -4.23878 0.101616 0
M  V30 12222 C 1140.56 -3.22245 -0.982827 0
M  V30 12223 O 1141.09 -3.44947 -2.0585 0
M  V30 12224 N 1139.29 -2.75845 -0.914218 0
M  V30 12225 H 1138.84 -2.57571 -0.03872 0
M  V30 12226 H 1138.8 -2.60011 -1.76753 0
M  V30 12227 N 1142.57 -0.928524 -1.27343 0
M  V30 12228 C 1143.99 -0.62889 -1.46687 0
M  V30 12229 C 1144.19 0.821592 -1.83989 0
M  V30 12230 O 1143.24 1.59941 -1.95385 0
M  V30 12231 C 1144.56 -1.57947 -2.55878 0
M  V30 12232 C 1146.1 -1.58778 -2.69738 0
M  V30 12233 C 1146.58 -2.52535 -3.82087 0
M  V30 12234 N 1148.07 -2.50747 -3.89462 0
M  V30 12235 C 1148.81 -3.19981 -4.75814 0
M  V30 12236 N 1148.3 -3.98598 -5.66649 0
M  V30 12237 N 1150.09 -3.08996 -4.69551 0
M  V30 12238 H 1142.25 -1.86625 -1.01414 0
M  V30 12239 H 1144.51 -0.801293 -0.50659 0
M  V30 12240 H 1144.21 -2.61427 -2.35264 0
M  V30 12241 H 1144.09 -1.3218 -3.53282 0
M  V30 12242 H 1146.48 -0.560292 -2.89732 0
M  V30 12243 H 1146.56 -1.88594 -1.72817 0
M  V30 12244 H 1146.2 -3.55395 -3.62846 0
M  V30 12245 H 1146.13 -2.20015 -4.78436 0
M  V30 12246 H 1148.62 -1.93651 -3.24511 0
M  V30 12247 H 1148.93 -4.4841 -6.29403 0
M  V30 12248 H 1147.28 -4.02701 -5.66442 0
M  V30 12249 H 1150.47 -2.4707 -3.97585 0
M  V30 12250 H 1150.64 -3.63223 -5.36631 0
M  V30 12251 N 1144.05 1.41491 -0.694123 0
M  V30 12252 C 1144.98 2.33462 -0.0422169 0
M  V30 12253 C 1145.96 1.51739 0.76872 0
M  V30 12254 O 1147.15 1.8028 0.721985 0
M  V30 12255 C 1144.28 3.35545 0.895925 0
M  V30 12256 C 1143.23 4.27568 0.192188 0
M  V30 12257 C 1142.56 5.20014 1.24459 0
M  V30 12258 C 1143.86 5.1376 -0.940626 0
M  V30 12259 H 1145.55 2.88225 -0.810363 0
M  V30 12260 H 1143.1 1.38586 -0.39114 0
M  V30 12261 H 1145.05 3.9881 1.36121 0
M  V30 12262 H 1143.77 2.79129 1.69572 0
M  V30 12263 H 1142.43 3.65726 -0.25305 0
M  V30 12264 H 1142.08 4.59913 2.03687 0
M  V30 12265 H 1141.78 5.82417 0.778734 0
M  V30 12266 H 1143.3 5.86155 1.71041 0
M  V30 12267 H 1144.72 5.70601 -0.555692 0
M  V30 12268 H 1143.11 5.85097 -1.33349 0
M  V30 12269 H 1144.18 4.51011 -1.78093 0
M  V30 12270 N 1145.53 0.438773 1.51369 0
M  V30 12271 C 1146.44 -0.378074 2.31534 0
M  V30 12272 C 1147.45 -1.02632 1.40508 0
M  V30 12273 O 1148.63 -1.02138 1.73579 0
M  V30 12274 C 1145.69 -1.46374 3.14286 0
M  V30 12275 C 1144.76 -0.835473 4.21092 0
M  V30 12276 C 1143.99 -1.86941 4.99889 0
M  V30 12277 O 1144.21 -3.0918 4.79337 0
M  V30 12278 O 1143.15 -1.45914 5.83946 0
M  V30 12279 H 1146.97 0.276401 3.0244 0
M  V30 12280 H 1144.56 0.201281 1.48038 0
M  V30 12281 H 1146.44 -2.09335 3.65728 0
M  V30 12282 H 1145.11 -2.10227 2.46143 0
M  V30 12283 H 1144.02 -0.167775 3.73724 0
M  V30 12284 H 1145.35 -0.240406 4.91613 0
M  V30 12285 N 1147.01 -1.56678 0.170181 0
M  V30 12286 C 1148.25 -1.96024 -0.475147 0
M  V30 12287 C 1148.57 -1.0588 -1.64465 0
M  V30 12288 O 1149.77 -1.34901 -2.35614 0
M  V30 12289 C 1148.23 -3.4855 -0.896704 0
M  V30 12290 C 1147.84 -4.47318 0.247142 0
M  V30 12291 C 1149.58 -3.96716 -1.51052 0
M  V30 12292 C 1147.49 -5.91082 -0.193982 0
M  V30 12293 H 1146.42 -0.731883 -0.181282 0
M  V30 12294 H 1149.07 -1.81674 0.25823 0
M  V30 12295 H 1147.45 -3.58314 -1.68603 0
M  V30 12296 H 1148.63 -4.49268 1.02445 0
M  V30 12297 H 1146.94 -4.09203 0.770839 0
M  V30 12298 H 1149.54 -5.01581 -1.85258 0
M  V30 12299 H 1149.88 -3.39588 -2.40802 0
M  V30 12300 H 1150.41 -3.89965 -0.785652 0
M  V30 12301 H 1147.15 -6.5208 0.668714 0
M  V30 12302 H 1146.67 -5.92441 -0.936675 0
M  V30 12303 H 1148.35 -6.43844 -0.638237 0
M  V30 12304 N 1148.48 0.103547 -1.57259 0
M  V30 12305 C 1149.41 1.12714 -2.04494 0
M  V30 12306 C 1150.39 1.42278 -0.932255 0
M  V30 12307 O 1151.58 1.52453 -1.20298 0
M  V30 12308 C 1148.71 2.44927 -2.46228 0
M  V30 12309 C 1147.66 2.2979 -3.61082 0
M  V30 12310 C 1146.99 3.67105 -3.88765 0
M  V30 12311 C 1148.29 1.7455 -4.9227 0
M  V30 12312 H 1149.98 0.734198 -2.90258 0
M  V30 12313 H 1147.53 0.351725 -1.39638 0
M  V30 12314 H 1149.48 3.16798 -2.77879 0
M  V30 12315 H 1148.21 2.8614 -1.57453 0
M  V30 12316 H 1146.87 1.60366 -3.29664 0
M  V30 12317 H 1146.51 4.05831 -2.97171 0
M  V30 12318 H 1146.21 3.57825 -4.66084 0
M  V30 12319 H 1147.74 4.40456 -4.22884 0
M  V30 12320 H 1149.15 2.36253 -5.22358 0
M  V30 12321 H 1147.55 1.76051 -5.73695 0
M  V30 12322 H 1148.62 0.704242 -4.79759 0
M  V30 12323 N 1149.96 1.53094 0.37415 0
M  V30 12324 C 1150.91 1.78927 1.45787 0
M  V30 12325 C 1151.88 0.633187 1.53558 0
M  V30 12326 O 1153.06 0.874472 1.69581 0
M  V30 12327 C 1150.2 1.97726 2.8284 0
M  V30 12328 C 1149.32 3.25436 2.84104 0
M  V30 12329 C 1148.45 3.3447 4.12678 0
M  V30 12330 C 1147.49 4.56246 4.08051 0
M  V30 12331 N 1146.63 4.6248 5.28258 0
M  V30 12332 H 1151.47 2.71404 1.2306 0
M  V30 12333 H 1149 1.34453 0.596716 0
M  V30 12334 H 1150.96 2.06611 3.62447 0
M  V30 12335 H 1149.59 1.08593 3.03986 0
M  V30 12336 H 1148.64 3.25548 1.96781 0
M  V30 12337 H 1149.96 4.15112 2.76556 0
M  V30 12338 H 1149.11 3.4262 5.00696 0
M  V30 12339 H 1147.85 2.42795 4.22968 0
M  V30 12340 H 1146.85 4.48206 3.1842 0
M  V30 12341 H 1148.08 5.49254 3.99371 0
M  V30 12342 H 1146.03 3.73703 5.3915 0
M  V30 12343 H 1145.94 5.46049 5.22845 0
M  V30 12344 H 1147.21 4.74903 6.18132 0
M  V30 12345 N 1151.44 -0.633461 1.44309 0
M  V30 12346 C 1152.86 -0.951379 1.28144 0
M  V30 12347 C 1153.06 -2.00344 0.215512 0
M  V30 12348 O 1152.11 -2.49321 -0.399389 0
M  V30 12349 C 1153.42 -1.41686 2.65227 0
M  V30 12350 C 1154.97 -1.53247 2.72918 0
M  V30 12351 C 1155.45 -2.03179 4.10466 0
M  V30 12352 N 1156.94 -2.10453 4.1263 0
M  V30 12353 C 1157.67 -2.50254 5.15907 0
M  V30 12354 N 1157.17 -2.89209 6.29547 0
M  V30 12355 N 1158.96 -2.50368 5.03262 0
M  V30 12356 H 1151.11 0.0623574 2.12308 0
M  V30 12357 H 1153.38 -0.0347244 0.947364 0
M  V30 12358 H 1153.08 -0.71814 3.4429 0
M  V30 12359 H 1152.96 -2.3883 2.91959 0
M  V30 12360 H 1155.34 -2.22216 1.94176 0
M  V30 12361 H 1155.42 -0.544836 2.4993 0
M  V30 12362 H 1155.07 -1.34806 4.89683 0
M  V30 12363 H 1155 -3.02809 4.3083 0
M  V30 12364 H 1157.49 -1.83042 3.30612 0
M  V30 12365 H 1157.8 -3.18386 7.04166 0
M  V30 12366 H 1156.15 -2.86966 6.32989 0
M  V30 12367 H 1159.34 -2.19324 4.13539 0
M  V30 12368 H 1159.51 -2.81062 5.83873 0
M  V30 12369 N 1152.92 -1.31168 -0.873655 0
M  V30 12370 C 1153.87 -1.18507 -1.98052 0
M  V30 12371 C 1154.84 -0.0717583 -1.65945 0
M  V30 12372 O 1156.02 -0.243965 -1.89234 0
M  V30 12373 C 1153.16 -0.894571 -3.33304 0
M  V30 12374 C 1152.27 -2.09086 -3.7803 0
M  V30 12375 C 1151.41 -1.73747 -5.01982 0
M  V30 12376 C 1150.45 -2.89805 -5.39147 0
M  V30 12377 N 1149.58 -2.54686 -6.54278 0
M  V30 12378 H 1154.42 -2.13193 -2.08213 0
M  V30 12379 H 1151.96 -1.06056 -1.01934 0
M  V30 12380 H 1153.92 -0.706714 -4.11171 0
M  V30 12381 H 1152.55 0.0154449 -3.22796 0
M  V30 12382 H 1151.6 -2.38961 -2.95976 0
M  V30 12383 H 1152.91 -2.95963 -4.01506 0
M  V30 12384 H 1152.07 -1.51402 -5.87505 0
M  V30 12385 H 1150.81 -0.840553 -4.80402 0
M  V30 12386 H 1149.81 -3.12803 -4.52144 0
M  V30 12387 H 1151.04 -3.802 -5.62694 0
M  V30 12388 H 1148.98 -1.67513 -6.34252 0
M  V30 12389 H 1148.9 -3.35093 -6.77679 0
M  V30 12390 H 1150.17 -2.35725 -7.43003 0
M  V30 12391 N 1154.4 1.08748 -1.14068 0
M  V30 12392 C 1155.64 1.81504 -0.918035 0
M  V30 12393 C 1156 1.84381 0.549671 0
M  V30 12394 O 1155.29 1.30612 1.40183 0
M  V30 12395 C 1155.48 3.26734 -1.44843 0
M  V30 12396 C 1155.31 3.38006 -2.96617 0
M  V30 12397 C 1154.08 3.49401 -3.6503 0
M  V30 12398 C 1156.28 3.29952 -3.94507 0
M  V30 12399 N 1154.26 3.49428 -5.04751 0
M  V30 12400 C 1155.63 3.3693 -5.20459 0
M  V30 12401 C 1157.69 3.13666 -3.86676 0
M  V30 12402 C 1156.39 3.29299 -6.39496 0
M  V30 12403 C 1158.42 3.07363 -5.05254 0
M  V30 12404 C 1157.78 3.1494 -6.30073 0
M  V30 12405 H 1153.88 0.67814 -0.389423 0
M  V30 12406 H 1156.46 1.29916 -1.45017 0
M  V30 12407 H 1154.63 3.76776 -0.943112 0
M  V30 12408 H 1156.37 3.87537 -1.16606 0
M  V30 12409 H 1153.12 3.53145 -3.15572 0
M  V30 12410 H 1153.55 3.53007 -5.77681 0
M  V30 12411 H 1158.19 3.06673 -2.91053 0
M  V30 12412 H 1155.91 3.35054 -7.35367 0
M  V30 12413 H 1159.49 2.95887 -5.00941 0
M  V30 12414 H 1158.37 3.10088 -7.20288 0
M  V30 12415 N 1155.87 0.935264 1.26849 0
M  V30 12416 C 1157.12 0.590057 1.94653 0
M  V30 12417 C 1157.48 -0.860481 1.72086 0
M  V30 12418 O 1156.77 -1.60672 1.04379 0
M  V30 12419 C 1156.96 0.861098 3.46872 0
M  V30 12420 C 1156.79 2.33643 3.84241 0
M  V30 12421 C 1155.56 2.99052 4.07303 0
M  V30 12422 C 1157.76 3.3145 3.9325 0
M  V30 12423 N 1155.74 4.36659 4.31511 0
M  V30 12424 C 1157.11 4.54294 4.21921 0
M  V30 12425 C 1159.17 3.26555 3.75854 0
M  V30 12426 C 1157.87 5.72854 4.35006 0
M  V30 12427 C 1159.9 4.44435 3.90168 0
M  V30 12428 C 1159.26 5.66059 4.19233 0
M  V30 12429 H 1155.36 0.266182 0.735303 0
M  V30 12430 H 1157.94 1.20345 1.53053 0
M  V30 12431 H 1156.11 0.276803 3.87412 0
M  V30 12432 H 1157.84 0.477757 4.0187 0
M  V30 12433 H 1154.6 2.49692 4.02431 0
M  V30 12434 H 1155.02 5.07869 4.47658 0
M  V30 12435 H 1159.67 2.33585 3.52417 0
M  V30 12436 H 1157.38 6.66283 4.57266 0
M  V30 12437 H 1160.97 4.42174 3.78119 0
M  V30 12438 H 1159.85 6.55753 4.30068 0
M  V30 12439 N 1157.35 -1.41121 0.701616 0
M  V30 12440 C 1158.26 -2.34565 0.0407815 0
M  V30 12441 C 1159.28 -1.56555 -0.75937 0
M  V30 12442 O 1160.45 -1.89008 -0.695542 0
M  V30 12443 C 1157.52 -3.35347 -0.879954 0
M  V30 12444 C 1156.58 -4.29241 -0.0713279 0
M  V30 12445 C 1155.81 -5.25209 -0.948211 0
M  V30 12446 O 1156.04 -5.26781 -2.18766 0
M  V30 12447 O 1154.97 -6.00605 -0.394657 0
M  V30 12448 H 1158.8 -2.92666 0.811188 0
M  V30 12449 H 1156.38 -1.42077 0.461991 0
M  V30 12450 H 1158.26 -3.9719 -1.40776 0
M  V30 12451 H 1156.94 -2.7968 -1.62975 0
M  V30 12452 H 1155.85 -3.70727 0.50122 0
M  V30 12453 H 1157.18 -4.88022 0.639935 0
M  V30 12454 N 1158.83 -0.446794 -1.51134 0
M  V30 12455 C 1160.08 0.116263 -2.01765 0
M  V30 12456 C 1160.4 1.42382 -1.33238 0
M  V30 12457 O 1159.67 1.9018 -0.469915 0
M  V30 12458 H 1158.25 0.0459558 -0.745585 0
M  V30 12459 H 1160.91 -0.591664 -1.85702 0
M  V30 12460 H 1160.01 0.285358 -3.10793 0
M  V30 12461 N 1160.31 1.56586 -0.178487 0
M  V30 12462 C 1161.56 1.96709 0.4637 0
M  V30 12463 C 1161.88 1.06586 1.63292 0
M  V30 12464 O 1161.15 0.133683 1.95443 0
M  V30 12465 H 1159.73 0.726381 0.174299 0
M  V30 12466 H 1162.39 1.9314 -0.261345 0
M  V30 12467 H 1161.49 3.01164 0.818934 0
M  V30 12468 N 1161.79 -0.095206 1.57312 0
M  V30 12469 C 1163.2 -0.449411 1.53142 0
M  V30 12470 C 1163.4 -1.80523 0.895187 0
M  V30 12471 O 1162.46 -2.47746 0.487649 0
M  V30 12472 C 1163.77 -0.412002 2.97864 0
M  V30 12473 C 1165.32 -0.493866 3.09079 0
M  V30 12474 C 1165.79 -0.486606 4.55408 0
M  V30 12475 N 1167.29 -0.547363 4.59955 0
M  V30 12476 C 1168.02 -0.563582 5.70624 0
M  V30 12477 N 1167.52 -0.536015 6.90723 0
M  V30 12478 N 1169.31 -0.608385 5.58798 0
M  V30 12479 H 1161.46 0.792869 1.97047 0
M  V30 12480 H 1163.72 0.295106 0.900898 0
M  V30 12481 H 1163.43 0.517064 3.47878 0
M  V30 12482 H 1163.3 -1.23102 3.56547 0
M  V30 12483 H 1165.69 -1.41335 2.59053 0
M  V30 12484 H 1165.77 0.353286 2.53349 0
M  V30 12485 H 1165.42 0.428935 5.06086 0
M  V30 12486 H 1165.35 -1.35097 5.08976 0
M  V30 12487 H 1167.84 -0.573867 3.73517 0
M  V30 12488 H 1168.15 -0.551671 7.70828 0
M  V30 12489 H 1166.49 -0.503064 6.93177 0
M  V30 12490 H 1169.69 -0.627451 4.63876 0
M  V30 12491 H 1169.86 -0.617556 6.45051 0
M  V30 12492 N 1163.26 -1.53291 -0.366026 0
M  V30 12493 C 1164.5 -1.71153 -1.11741 0
M  V30 12494 C 1164.87 -0.453416 -1.86569 0
M  V30 12495 O 1166.07 -0.508724 -2.63942 0
M  V30 12496 C 1164.34 -2.92657 -2.0515 0
M  V30 12497 S 1165.9 -3.31223 -2.87814 0
M  V30 12498 H 1162.72 -0.602251 -0.377909 0
M  V30 12499 H 1165.32 -1.91391 -0.398721 0
M  V30 12500 H 1164.02 -3.8242 -1.48939 0
M  V30 12501 H 1163.55 -2.7482 -2.81492 0
M  V30 12502 H 1165.57 -2.83201 -4.07445 0
M  V30 12503 N 1164.74 0.6258 -1.44643 0
M  V30 12504 C 1166.15 1.20751 -1.42394 0
M  V30 12505 C 1166.5 1.95685 -0.142047 0
M  V30 12506 O 1165.63 2.02715 0.757332 0
M  V30 12507 C 1166.22 2.1964 -2.57961 0
M  V30 12508 C 1164.78 2.73227 -2.5889 0
M  V30 12509 C 1163.93 1.48315 -2.34303 0
M  V30 12510 H 1166.88 0.416162 -1.53146 0
M  V30 12511 H 1166.9 3.02342 -2.31019 0
M  V30 12512 H 1166.41 1.65073 -3.51244 0
M  V30 12513 H 1164.52 3.31782 -1.69563 0
M  V30 12514 H 1164.63 3.18902 -3.57545 0
M  V30 12515 H 1162.99 1.76634 -1.83501 0
M  V30 12516 H 1163.78 0.956427 -3.29708 0
M  V30 12517 N 1166.22 1.31629 0.866686 0
M  V30 12518 C 1167.17 1.19556 1.97421 0
M  V30 12519 C 1168.14 0.0805578 1.65905 0
M  V30 12520 O 1169.32 0.253997 1.89102 0
M  V30 12521 C 1166.46 0.912234 3.32825 0
M  V30 12522 C 1165.58 2.11088 3.76916 0
M  V30 12523 C 1164.71 1.76406 5.01053 0
M  V30 12524 C 1163.75 2.9266 5.37602 0
M  V30 12525 N 1162.89 2.58152 6.52918 0
M  V30 12526 H 1167.73 2.14294 2.0708 0
M  V30 12527 H 1165.26 1.06595 1.0137 0
M  V30 12528 H 1167.22 0.72851 4.1079 0
M  V30 12529 H 1165.85 0.00167404 3.228 0
M  V30 12530 H 1164.9 2.40527 2.94705 0
M  V30 12531 H 1166.22 2.98089 3.99931 0
M  V30 12532 H 1165.37 1.54515 5.86694 0
M  V30 12533 H 1164.11 0.866018 4.79949 0
M  V30 12534 H 1163.11 3.15196 4.50479 0
M  V30 12535 H 1164.34 3.83179 5.6067 0
M  V30 12536 H 1162.28 1.70874 6.33355 0
M  V30 12537 H 1162.2 3.38682 6.75892 0
M  V30 12538 H 1163.47 2.39662 7.41743 0
M  V30 12539 N 1167.7 -1.08142 1.14644 0
M  V30 12540 C 1168.61 -2.18675 0.849607 0
M  V30 12541 C 1169.63 -1.73158 -0.170983 0
M  V30 12542 O 1170.8 -2.014 0.0011579 0
M  V30 12543 C 1167.87 -3.45084 0.334305 0
M  V30 12544 C 1166.93 -4.05213 1.41779 0
M  V30 12545 C 1166.16 -5.25588 0.926981 0
M  V30 12546 O 1166.38 -5.69934 -0.230522 0
M  V30 12547 O 1165.32 -5.77183 1.70715 0
M  V30 12548 H 1169.14 -2.46542 1.77343 0
M  V30 12549 H 1166.73 -1.17328 0.924911 0
M  V30 12550 H 1168.61 -4.21367 0.0529893 0
M  V30 12551 H 1167.29 -3.18788 -0.561755 0
M  V30 12552 H 1166.19 -3.30507 1.7526 0
M  V30 12553 H 1167.53 -4.35764 2.28847 0
M  V30 12554 N 1169.18 -0.941978 -1.26351 0
M  V30 12555 C 1170.09 -0.45833 -2.30079 0
M  V30 12556 C 1171.1 0.468084 -1.67586 0
M  V30 12557 O 1172.28 0.347418 -1.98381 0
M  V30 12558 C 1169.34 0.26797 -3.45663 0
M  V30 12559 C 1168.41 -0.695102 -4.23635 0
M  V30 12560 C 1167.64 -0.003369 -5.337 0
M  V30 12561 O 1167.86 1.21342 -5.57344 0
M  V30 12562 O 1166.8 -0.682476 -5.98018 0
M  V30 12563 H 1170.62 -1.31998 -2.73514 0
M  V30 12564 H 1168.21 -0.707897 -1.31564 0
M  V30 12565 H 1170.09 0.677061 -4.15925 0
M  V30 12566 H 1168.76 1.105 -3.04256 0
M  V30 12567 H 1167.67 -1.15415 -3.55851 0
M  V30 12568 H 1169 -1.49977 -4.68794 0
M  V30 12569 N 1170.66 1.40747 -0.709091 0
M  V30 12570 C 1171.93 1.94831 -0.173246 0
M  V30 12571 C 1172.31 1.64766 1.31967 0
M  V30 12572 O 1171.66 0.961853 2.07269 0
M  V30 12573 C 1171.87 3.45697 -0.479013 0
M  V30 12574 C 1173.22 4.22576 -0.414122 0
M  V30 12575 O 1174.24 3.53778 -0.414699 0
M  V30 12576 O 1173.1 5.45135 -0.385986 0
M  V30 12577 H 1170.2 0.826683 -0.0228947 0
M  V30 12578 H 1172.74 1.50391 -0.786178 0
M  V30 12579 H 1171.51 3.60914 -1.51185 0
M  V30 12580 H 1171.14 3.97261 0.164211 0
M  V30 12581 N 1172.13 0.454803 1.50895 0
M  V30 12582 C 1173.08 -0.366073 2.25042 0
M  V30 12583 C 1174.07 -0.975353 1.27967 0
M  V30 12584 O 1175.26 -0.8906 1.52962 0
M  V30 12585 C 1172.39 -1.45683 3.10856 0
M  V30 12586 C 1171.47 -0.856086 4.1537 0
M  V30 12587 N 1171.87 0.0138787 5.05798 0
M  V30 12588 C 1170.16 -1.1218 4.31661 0
M  V30 12589 C 1170.86 0.35313 5.80627 0
M  V30 12590 N 1169.84 -0.267648 5.42941 0
M  V30 12591 H 1173.64 0.304357 2.9232 0
M  V30 12592 H 1171.16 0.267937 1.60174 0
M  V30 12593 H 1173.15 -2.05793 3.62567 0
M  V30 12594 H 1171.81 -2.12942 2.45124 0
M  V30 12595 H 1172.82 0.381574 5.16492 0
M  V30 12596 H 1169.5 -1.79059 3.77153 0
M  V30 12597 H 1170.89 1.06213 6.63452 0
M  V30 12598 N 1173.61 -1.56489 0.186789 0
M  V30 12599 C 1175.03 -1.58701 -0.169176 0
M  V30 12600 C 1175.23 -1.2027 -1.61671 0
M  V30 12601 O 1174.28 -0.92154 -2.35083 0
M  V30 12602 C 1175.6 -3.00437 0.125657 0
M  V30 12603 C 1177.14 -3.12932 0.0651 0
M  V30 12604 C 1177.62 -4.56787 0.333131 0
M  V30 12605 N 1179.11 -4.62344 0.281453 0
M  V30 12606 C 1179.85 -5.71529 0.462805 0
M  V30 12607 N 1179.34 -6.89213 0.704054 0
M  V30 12608 N 1181.13 -5.60692 0.397636 0
M  V30 12609 H 1173.29 -1.79754 1.13148 0
M  V30 12610 H 1175.55 -0.83385 0.450997 0
M  V30 12611 H 1175.25 -3.33086 1.12901 0
M  V30 12612 H 1175.13 -3.72782 -0.575612 0
M  V30 12613 H 1177.52 -2.80101 -0.928845 0
M  V30 12614 H 1177.6 -2.42991 0.799318 0
M  V30 12615 H 1177.24 -4.9033 1.32436 0
M  V30 12616 H 1177.17 -5.24907 -0.421879 0
M  V30 12617 H 1179.66 -3.77764 0.101266 0
M  V30 12618 H 1179.97 -7.68314 0.831468 0
M  V30 12619 H 1178.32 -6.9104 0.740851 0
M  V30 12620 H 1181.51 -4.6763 0.20964 0
M  V30 12621 H 1181.68 -6.45726 0.54239 0
M  V30 12622 N 1175.09 0.086862 -1.5736 0
M  V30 12623 C 1176.05 1.08906 -2.01673 0
M  V30 12624 C 1177.05 1.32473 -0.911463 0
M  V30 12625 O 1178.24 1.28447 -1.17673 0
M  V30 12626 C 1175.37 2.43629 -2.38449 0
M  V30 12627 H 1176.57 0.707461 -2.91436 0
M  V30 12628 H 1174.12 0.332154 -1.5273 0
M  V30 12629 H 1174.86 2.8665 -1.51665 0
M  V30 12630 H 1174.64 2.2787 -3.19089 0
M  V30 12631 H 1176.13 3.15695 -2.73361 0
M  V30 12632 N 1176.57 1.53483 0.357892 0
M  V30 12633 C 1177.51 1.80463 1.43881 0
M  V30 12634 C 1178.48 0.649438 1.52877 0
M  V30 12635 O 1179.67 0.892409 1.68644 0
M  V30 12636 C 1176.81 2.00714 2.80727 0
M  V30 12637 C 1175.92 3.28431 2.80637 0
M  V30 12638 C 1175.06 3.38828 4.09107 0
M  V30 12639 C 1174.1 4.60549 4.03189 0
M  V30 12640 N 1173.23 4.68057 5.23323 0
M  V30 12641 H 1178.07 2.72694 1.20174 0
M  V30 12642 H 1175.61 1.35079 0.582422 0
M  V30 12643 H 1177.57 2.10444 3.60235 0
M  V30 12644 H 1176.2 1.11811 3.02817 0
M  V30 12645 H 1175.25 3.27617 1.93317 0
M  V30 12646 H 1176.56 4.18022 2.72138 0
M  V30 12647 H 1175.72 3.47911 4.97034 0
M  V30 12648 H 1174.46 2.47267 4.20369 0
M  V30 12649 H 1173.46 4.51558 3.13649 0
M  V30 12650 H 1174.69 5.53459 3.93523 0
M  V30 12651 H 1172.63 3.794 5.35156 0
M  V30 12652 H 1172.55 5.51563 5.17024 0
M  V30 12653 H 1173.82 4.81433 6.1306 0
M  V30 12654 N 1178.05 -0.61812 1.44973 0
M  V30 12655 C 1179.29 -1.37468 1.48145 0
M  V30 12656 C 1179.61 -1.94628 0.120366 0
M  V30 12657 O 1178.88 -1.76548 -0.848982 0
M  V30 12658 H 1177.46 -0.510293 0.545536 0
M  V30 12659 H 1180.13 -0.726598 1.8085 0
M  V30 12660 H 1179.22 -2.19944 2.2143 0
M  V30 12661 N 1179.52 -1.32087 -0.859693 0
M  V30 12662 C 1180.45 -1.23204 -1.98351 0
M  V30 12663 C 1181.43 -0.116974 -1.69697 0
M  V30 12664 O 1182.62 -0.303301 -1.91817 0
M  V30 12665 C 1179.75 -0.949171 -3.34078 0
M  V30 12666 C 1178.7 -2.02493 -3.77069 0
M  V30 12667 C 1178.03 -1.59455 -5.1037 0
M  V30 12668 C 1179.33 -3.43934 -3.93074 0
M  V30 12669 H 1181.02 -2.17227 -2.0604 0
M  V30 12670 H 1178.57 -1.04577 -0.989931 0
M  V30 12671 H 1180.52 -0.873594 -4.12245 0
M  V30 12672 H 1179.25 0.0267095 -3.26589 0
M  V30 12673 H 1177.91 -2.09057 -3.01149 0
M  V30 12674 H 1177.55 -0.606256 -4.99333 0
M  V30 12675 H 1177.25 -2.31429 -5.40106 0
M  V30 12676 H 1178.78 -1.53325 -5.91036 0
M  V30 12677 H 1180.19 -3.39986 -4.61608 0
M  V30 12678 H 1178.59 -4.14214 -4.3422 0
M  V30 12679 H 1179.66 -3.83965 -2.9614 0
M  V30 12680 N 1181 1.07532 -1.15215 0
M  V30 12681 C 1182.25 1.79737 -0.924062 0
M  V30 12682 C 1182.57 1.87072 0.550356 0
M  V30 12683 O 1181.84 1.37029 1.4 0
M  V30 12684 H 1180.42 0.665704 -0.338891 0
M  V30 12685 H 1183.08 1.29961 -1.45245 0
M  V30 12686 H 1182.18 2.82256 -1.33184 0
M  V30 12687 N 1182.48 0.948665 1.2585 0
M  V30 12688 C 1183.41 0.408398 2.24516 0
M  V30 12689 C 1184.39 -0.506954 1.54495 0
M  V30 12690 O 1185.58 -0.442695 1.83228 0
M  V30 12691 C 1182.7 -0.41241 3.3618 0
M  V30 12692 C 1181.75 0.442483 4.24198 0
M  V30 12693 S 1182.58 1.87106 5.01749 0
M  V30 12694 C 1183.74 1.05851 6.16884 0
M  V30 12695 H 1183.97 1.24458 2.69995 0
M  V30 12696 H 1181.5 0.752309 1.34832 0
M  V30 12697 H 1183.46 -0.880064 4.00955 0
M  V30 12698 H 1182.12 -1.22335 2.89297 0
M  V30 12699 H 1181.32 -0.186767 5.03654 0
M  V30 12700 H 1180.92 0.845113 3.64327 0
M  V30 12701 H 1183.21 0.304329 6.76816 0
M  V30 12702 H 1184.15 1.82678 6.8413 0
M  V30 12703 H 1184.56 0.591269 5.61395 0
M  V30 12704 N 1183.96 -1.40369 0.716545 0
M  V30 12705 C 1184.87 -2.34508 0.065658 0
M  V30 12706 C 1185.88 -1.57352 -0.742723 0
M  V30 12707 O 1187.06 -1.89735 -0.675456 0
M  V30 12708 C 1184.13 -3.36262 -0.844337 0
M  V30 12709 C 1183.19 -4.29292 -0.0257971 0
M  V30 12710 C 1182.42 -5.26185 -0.892452 0
M  V30 12711 O 1182.64 -5.29071 -2.13166 0
M  V30 12712 O 1181.58 -6.0099 -0.330933 0
M  V30 12713 H 1185.4 -2.91789 0.842184 0
M  V30 12714 H 1182.99 -1.41579 0.477034 0
M  V30 12715 H 1184.87 -3.98661 -1.36555 0
M  V30 12716 H 1183.54 -2.81393 -1.59999 0
M  V30 12717 H 1182.45 -3.70175 0.540512 0
M  V30 12718 H 1183.78 -4.87316 0.69166 0
M  V30 12719 N 1185.44 -0.462799 -1.50652 0
M  V30 12720 C 1186.38 0.349784 -2.29955 0
M  V30 12721 C 1187.38 0.997947 -1.36885 0
M  V30 12722 O 1188.58 0.93 -1.54114 0
M  V30 12723 H 1184.96 0.131635 -0.740389 0
M  V30 12724 H 1186.93 -0.33958 -2.96461 0
M  V30 12725 C 1185.68 1.42398 -3.17204 0
M  V30 12726 H 1185 0.934611 -3.88722 0
M  V30 12727 H 1186.44 1.96528 -3.75703 0
M  V30 12728 C 1184.9 2.42135 -2.34248 0
M  V30 12729 O 1185.43 3.47229 -2.01978 0
M  V30 12730 N 1183.64 2.13647 -1.96985 0
M  V30 12731 H 1183.18 1.28209 -2.23428 0
M  V30 12732 H 1183.14 2.80615 -1.41783 0
M  V30 12733 N 1186.91 1.56388 -0.195085 0
M  V30 12734 C 1188.16 1.96755 0.443901 0
M  V30 12735 C 1188.48 1.08483 1.6276 0
M  V30 12736 O 1189.68 1.38632 2.33438 0
M  V30 12737 C 1188.14 3.49933 0.841139 0
M  V30 12738 C 1187.75 4.46868 -0.318275 0
M  V30 12739 C 1189.49 3.99069 1.44721 0
M  V30 12740 C 1187.4 5.91316 0.0999211 0
M  V30 12741 H 1186.33 0.734674 0.169616 0
M  V30 12742 H 1188.98 1.8124 -0.287101 0
M  V30 12743 H 1187.36 3.60951 1.62881 0
M  V30 12744 H 1188.53 4.47581 -1.0958 0
M  V30 12745 H 1186.85 4.07925 -0.835842 0
M  V30 12746 H 1189.45 5.04465 1.77255 0
M  V30 12747 H 1189.79 3.43376 2.35369 0
M  V30 12748 H 1190.32 3.91165 0.723513 0
M  V30 12749 H 1187.06 6.50934 -0.77237 0
M  V30 12750 H 1186.58 5.93856 0.842304 0
M  V30 12751 H 1188.26 6.44778 0.535726 0
M  V30 12752 N 1188.39 -0.0785156 1.57404 0
M  V30 12753 C 1189.64 -0.777399 1.8655 0
M  V30 12754 C 1189.96 -1.78451 0.786142 0
M  V30 12755 O 1189.23 -1.95016 -0.185911 0
M  V30 12756 H 1187.81 -0.290097 0.688369 0
M  V30 12757 H 1190.47 -0.0562017 1.94819 0
M  V30 12758 H 1189.57 -1.29776 2.83839 0
M  V30 12759 N 1189.87 -1.5367 -0.349747 0
M  V30 12760 C 1191.12 -1.70281 -1.08853 0
M  V30 12761 C 1191.44 -0.465438 -1.89364 0
M  V30 12762 O 1190.71 0.520615 -1.88856 0
M  V30 12763 H 1189.29 -0.627775 -0.404854 0
M  V30 12764 H 1191.95 -1.90906 -0.392523 0
M  V30 12765 H 1191.05 -2.57096 -1.76941 0
M  V30 12766 N 1191.35 0.610423 -1.45298 0
M  V30 12767 C 1192.6 1.36558 -1.48441 0
M  V30 12768 C 1192.91 1.95173 -0.129137 0
M  V30 12769 O 1194.12 2.71473 -0.0381956 0
M  V30 12770 C 1192.57 2.47349 -2.61431 0
M  V30 12771 C 1192.18 1.95158 -4.03258 0
M  V30 12772 C 1193.92 3.24383 -2.73817 0
M  V30 12773 C 1191.83 3.03414 -5.07635 0
M  V30 12774 H 1190.76 0.513253 -0.552347 0
M  V30 12775 H 1193.41 0.654535 -1.7143 0
M  V30 12776 H 1191.79 3.21125 -2.31721 0
M  V30 12777 H 1192.97 1.2811 -4.42634 0
M  V30 12778 H 1191.28 1.30878 -3.95297 0
M  V30 12779 H 1193.88 4.05123 -3.48969 0
M  V30 12780 H 1194.22 3.75205 -1.80352 0
M  V30 12781 H 1194.76 2.57705 -3.03039 0
M  V30 12782 H 1191.5 2.57512 -6.028 0
M  V30 12783 H 1191.02 3.69039 -4.72833 0
M  V30 12784 H 1192.69 3.67844 -5.32259 0
M  V30 12785 N 1192.83 1.32541 0.852676 0
M  V30 12786 C 1194.07 1.23214 1.607 0
M  V30 12787 C 1194.4 -0.205542 1.93411 0
M  V30 12788 O 1193.66 -1.15907 1.57683 0
M  V30 12789 C 1193.96 2.039 2.9353 0
M  V30 12790 C 1193.62 3.53237 2.8024 0
M  V30 12791 C 1192.28 3.93953 2.76323 0
M  V30 12792 C 1194.64 4.48194 2.6603 0
M  V30 12793 C 1191.96 5.27865 2.56077 0
M  V30 12794 C 1194.32 5.82251 2.47319 0
M  V30 12795 C 1192.98 6.22166 2.41796 0
M  V30 12796 H 1192.25 0.450873 0.588043 0
M  V30 12797 H 1194.9 1.63988 0.988954 0
M  V30 12798 H 1193.2 1.55861 3.59464 0
M  V30 12799 H 1194.9 1.94051 3.50921 0
M  V30 12800 H 1191.49 3.209 2.84114 0
M  V30 12801 H 1195.67 4.17656 2.681 0
M  V30 12802 H 1190.93 5.57845 2.50237 0
M  V30 12803 H 1195.1 6.55442 2.35305 0
M  V30 12804 H 1192.73 7.2587 2.25868 0
M  V30 12805 N 1194.3 -1.0692 1.15784 0
M  V30 12806 C 1195.55 -1.78983 0.929944 0
M  V30 12807 C 1195.87 -1.87884 -0.543969 0
M  V30 12808 O 1197.07 -2.56513 -0.889578 0
M  V30 12809 C 1195.53 -3.21657 1.61446 0
M  V30 12810 C 1195.14 -3.20943 3.12569 0
M  V30 12811 C 1196.88 -3.98299 1.46828 0
M  V30 12812 C 1194.79 -4.58298 3.73788 0
M  V30 12813 H 1193.72 -0.670809 0.344284 0
M  V30 12814 H 1196.37 -1.19975 1.38846 0
M  V30 12815 H 1194.75 -3.80885 1.08364 0
M  V30 12816 H 1195.92 -2.71334 3.72444 0
M  V30 12817 H 1194.24 -2.57799 3.26999 0
M  V30 12818 H 1196.84 -4.99822 1.89952 0
M  V30 12819 H 1197.18 -4.14213 0.416358 0
M  V30 12820 H 1197.71 -3.45577 1.97031 0
M  V30 12821 H 1194.45 -4.47588 4.789 0
M  V30 12822 H 1193.97 -5.08126 3.18698 0
M  V30 12823 H 1195.65 -5.27262 3.74972 0
M  V30 12824 N 1195.78 -0.955326 -1.25345 0
M  V30 12825 C 1197.03 -0.611388 -1.93365 0
M  V30 12826 C 1197.36 0.84953 -1.74633 0
M  V30 12827 O 1196.64 1.60962 -1.09185 0
M  V30 12828 C 1196.92 -0.971732 -3.46741 0
M  V30 12829 C 1196.77 -2.48843 -3.74696 0
M  V30 12830 C 1198.09 -0.497295 -4.37281 0
M  V30 12831 H 1195.21 -0.223591 -0.702265 0
M  V30 12832 H 1197.85 -1.1921 -1.47949 0
M  V30 12833 H 1196 -0.477568 -3.85554 0
M  V30 12834 H 1197.67 -3.05641 -3.45516 0
M  V30 12835 H 1195.92 -2.92582 -3.20278 0
M  V30 12836 H 1196.59 -2.69107 -4.8196 0
M  V30 12837 H 1199.06 -0.921196 -4.05775 0
M  V30 12838 H 1197.94 -0.778113 -5.43357 0
M  V30 12839 H 1198.2 0.602743 -4.37972 0
M  V30 12840 N 1197.26 1.39987 -0.723979 0
M  V30 12841 C 1198.19 2.3332 -0.0917282 0
M  V30 12842 C 1199.17 1.53335 0.736361 0
M  V30 12843 O 1200.36 1.81771 0.683582 0
M  V30 12844 C 1197.49 3.3737 0.824549 0
M  V30 12845 C 1196.44 4.2788 0.101452 0
M  V30 12846 C 1195.77 5.22536 1.13401 0
M  V30 12847 C 1197.07 5.11649 -1.04939 0
M  V30 12848 H 1198.76 2.86441 -0.871318 0
M  V30 12849 H 1196.31 1.37725 -0.420448 0
M  V30 12850 H 1198.26 4.01607 1.27631 0
M  V30 12851 H 1196.98 2.82663 1.63613 0
M  V30 12852 H 1195.64 3.65107 -0.330569 0
M  V30 12853 H 1195.29 4.64131 1.93886 0
M  V30 12854 H 1194.99 5.83938 0.65502 0
M  V30 12855 H 1196.52 5.89651 1.58569 0
M  V30 12856 H 1197.93 5.69293 -0.6766 0
M  V30 12857 H 1196.33 5.82137 -1.45729 0
M  V30 12858 H 1197.4 4.47132 -1.8762 0
M  V30 12859 N 1198.74 0.470782 1.50404 0
M  V30 12860 C 1199.99 -0.0859981 2.01517 0
M  V30 12861 C 1200.3 -1.40811 1.35763 0
M  V30 12862 O 1201.51 -2.04982 1.7803 0
M  V30 12863 C 1199.96 -0.203773 3.59323 0
M  V30 12864 C 1199.57 1.10989 4.34034 0
M  V30 12865 C 1201.32 -0.712528 4.18477 0
M  V30 12866 C 1199.22 0.955928 5.83623 0
M  V30 12867 H 1198.15 -0.0359142 0.753144 0
M  V30 12868 H 1200.8 0.605631 1.73218 0
M  V30 12869 H 1199.19 -0.959177 3.84208 0
M  V30 12870 H 1200.36 1.87623 4.20873 0
M  V30 12871 H 1198.67 1.54973 3.86487 0
M  V30 12872 H 1201.27 -0.844745 5.27985 0
M  V30 12873 H 1201.61 -1.70377 3.79838 0
M  V30 12874 H 1202.15 -0.0145179 3.97797 0
M  V30 12875 H 1198.89 1.92054 6.26734 0
M  V30 12876 H 1198.41 0.22997 5.99359 0
M  V30 12877 H 1200.09 0.622423 6.43999 0
M  V30 12878 N 1200.22 -1.56282 0.203376 0
M  V30 12879 C 1201.46 -1.99712 -0.43527 0
M  V30 12880 C 1201.82 -1.0876 -1.58225 0
M  V30 12881 O 1203.02 -1.4146 -2.28566 0
M  V30 12882 C 1201.29 -3.46501 -0.875885 0
M  V30 12883 S 1202.85 -4.11957 -1.5112 0
M  V30 12884 H 1199.67 -0.697305 -0.138879 0
M  V30 12885 H 1202.27 -1.93052 0.308392 0
M  V30 12886 H 1200.98 -4.10388 -0.0311623 0
M  V30 12887 H 1200.51 -3.56996 -1.65281 0
M  V30 12888 H 1202.52 -4.09645 -2.80009 0
M  V30 12889 N 1201.7 0.070167 -1.57444 0
M  V30 12890 C 1202.94 0.767495 -1.8696 0
M  V30 12891 C 1203.26 1.78032 -0.795595 0
M  V30 12892 O 1202.53 1.95112 0.175566 0
M  V30 12893 H 1201.11 0.286443 -0.689898 0
M  V30 12894 H 1203.78 0.0458692 -1.94846 0
M  V30 12895 H 1202.87 1.28269 -2.84523 0
M  V30 12896 N 1203.17 1.53854 0.341593 0
M  V30 12897 C 1204.1 1.84966 1.42513 0
M  V30 12898 C 1205.08 0.704944 1.54805 0
M  V30 12899 O 1206.27 0.957036 1.68981 0
M  V30 12900 C 1203.4 2.06099 2.79536 0
M  V30 12901 C 1202.35 3.21919 2.82049 0
M  V30 12902 C 1201.68 3.28389 4.21977 0
M  V30 12903 C 1202.98 4.59984 2.4741 0
M  V30 12904 H 1204.67 2.7571 1.16724 0
M  V30 12905 H 1202.22 1.32662 0.560073 0
M  V30 12906 H 1204.17 2.26448 3.55386 0
M  V30 12907 H 1202.9 1.12087 3.06764 0
M  V30 12908 H 1201.56 3.01429 2.08653 0
M  V30 12909 H 1201.2 2.3197 4.46317 0
M  V30 12910 H 1200.9 4.0622 4.24569 0
M  V30 12911 H 1202.43 3.50951 4.99666 0
M  V30 12912 H 1203.84 4.80334 3.12973 0
M  V30 12913 H 1202.24 5.40233 2.61282 0
M  V30 12914 H 1203.31 4.6346 1.42594 0
M  V30 12915 N 1204.65 -0.602709 1.4562 0
M  V30 12916 C 1205.9 -1.35769 1.49163 0
M  V30 12917 C 1206.21 -1.95102 0.139485 0
M  V30 12918 O 1207.42 -2.71449 0.0525919 0
M  V30 12919 C 1205.88 -2.45959 2.62739 0
M  V30 12920 C 1205.48 -1.93017 4.04288 0
M  V30 12921 C 1207.23 -3.22926 2.75534 0
M  V30 12922 C 1205.13 -3.00718 5.09237 0
M  V30 12923 H 1204.06 -0.510317 0.555061 0
M  V30 12924 H 1206.72 -0.645434 1.71774 0
M  V30 12925 H 1205.1 -3.19892 2.3342 0
M  V30 12926 H 1206.27 -1.2576 4.43307 0
M  V30 12927 H 1204.59 -1.2878 3.95986 0
M  V30 12928 H 1207.18 -4.03267 3.51112 0
M  V30 12929 H 1207.53 -3.74243 1.82339 0
M  V30 12930 H 1208.06 -2.56095 3.04402 0
M  V30 12931 H 1204.8 -2.54312 6.04157 0
M  V30 12932 H 1204.32 -3.66526 4.74783 0
M  V30 12933 H 1206 -3.65016 5.34202 0
M  V30 12934 N 1206.13 -1.32992 -0.845635 0
M  V30 12935 C 1207.38 -1.23415 -1.59536 0
M  V30 12936 C 1207.69 0.200278 -1.94572 0
M  V30 12937 O 1208.9 0.417993 -2.68263 0
M  V30 12938 C 1207.35 -2.16207 -2.8772 0
M  V30 12939 C 1206.96 -3.64782 -2.60073 0
M  V30 12940 C 1208.71 -2.15488 -3.65739 0
M  V30 12941 C 1206.61 -4.49508 -3.84313 0
M  V30 12942 H 1205.54 -0.458366 -0.598679 0
M  V30 12943 H 1208.19 -1.58012 -0.932981 0
M  V30 12944 H 1206.58 -1.74535 -3.55462 0
M  V30 12945 H 1207.75 -4.14852 -2.00585 0
M  V30 12946 H 1206.06 -3.67723 -1.95369 0
M  V30 12947 H 1208.66 -2.76021 -4.57948 0
M  V30 12948 H 1209 -1.14818 -4.00153 0
M  V30 12949 H 1209.54 -2.55487 -3.04912 0
M  V30 12950 H 1206.28 -5.51027 -3.55035 0
M  V30 12951 H 1205.8 -4.04185 -4.43165 0
M  V30 12952 H 1207.48 -4.62969 -4.51961 0
M  V30 12953 N 1207.61 1.06304 -1.1635 0
M  V30 12954 C 1208.57 2.11947 -0.872419 0
M  V30 12955 C 1209.57 1.60253 0.132534 0
M  V30 12956 O 1210.76 1.73922 -0.0983441 0
M  V30 12957 C 1207.89 3.39536 -0.304646 0
M  V30 12958 H 1209.09 2.39201 -1.80894 0
M  V30 12959 H 1206.64 1.22367 -0.972419 0
M  V30 12960 H 1207.37 3.17931 0.639565 0
M  V30 12961 H 1207.16 3.78363 -1.02878 0
M  V30 12962 H 1208.65 4.17431 -0.118936 0
M  V30 12963 N 1209.09 0.96196 1.24836 0
M  V30 12964 C 1210.33 0.621634 1.93038 0
M  V30 12965 C 1210.66 -0.840257 1.75081 0
M  V30 12966 O 1209.94 -1.60381 1.10038 0
M  V30 12967 C 1210.22 0.990107 3.46221 0
M  V30 12968 C 1210.08 2.50827 3.73371 0
M  V30 12969 C 1211.39 0.520478 4.37011 0
M  V30 12970 H 1208.51 0.227312 0.701069 0
M  V30 12971 H 1211.16 1.19993 1.47315 0
M  V30 12972 H 1209.31 0.498008 3.85295 0
M  V30 12973 H 1210.98 3.07469 3.4389 0
M  V30 12974 H 1209.22 2.94277 3.18722 0
M  V30 12975 H 1209.89 2.71659 4.80526 0
M  V30 12976 H 1212.37 0.942703 4.05281 0
M  V30 12977 H 1211.24 0.806918 5.42937 0
M  V30 12978 H 1211.5 -0.579507 4.38285 0
M  V30 12979 N 1210.56 -1.39601 0.731392 0
M  V30 12980 C 1211.81 -2.00586 0.277756 0
M  V30 12981 C 1212.14 -1.58027 -1.13391 0
M  V30 12982 O 1211.39 -0.798691 -1.7866 0
M  V30 12983 C 1211.69 -3.55934 0.323352 0
M  V30 12984 C 1211.36 -4.18131 1.68753 0
M  V30 12985 C 1210.02 -4.34833 2.06092 0
M  V30 12986 C 1212.37 -4.5267 2.58339 0
M  V30 12987 C 1209.7 -4.83362 3.32532 0
M  V30 12988 C 1212.05 -5.02607 3.84148 0
M  V30 12989 C 1210.72 -5.17517 4.21584 0
M  V30 12990 H 1209.99 -0.733996 0.101638 0
M  V30 12991 H 1212.63 -1.66981 0.937528 0
M  V30 12992 H 1210.94 -3.89542 -0.419995 0
M  V30 12993 H 1212.64 -4.00974 -0.0457235 0
M  V30 12994 H 1209.23 -4.0553 1.38722 0
M  V30 12995 H 1213.41 -4.39388 2.30763 0
M  V30 12996 H 1208.67 -4.93091 3.61485 0
M  V30 12997 H 1212.84 -5.28306 4.53724 0
M  V30 12998 H 1210.47 -5.54882 5.19625 0
M  V30 12999 N 1212.04 -0.478751 -1.50152 0
M  V30 13000 C 1213.29 0.073694 -2.02666 0
M  V30 13001 C 1213.62 1.38679 -1.35947 0
M  V30 13002 O 1212.9 1.88286 -0.4877 0
M  V30 13003 C 1213.18 0.249516 -3.59235 0
M  V30 13004 C 1213.03 -1.08514 -4.36514 0
M  V30 13005 C 1214.35 1.00053 -4.28576 0
M  V30 13006 H 1211.47 0.0253082 -0.736565 0
M  V30 13007 H 1214.11 -0.625834 -1.79397 0
M  V30 13008 H 1212.26 0.845343 -3.79192 0
M  V30 13009 H 1213.93 -1.71814 -4.28109 0
M  V30 13010 H 1212.18 -1.67992 -3.99952 0
M  V30 13011 H 1212.85 -0.915676 -5.44352 0
M  V30 13012 H 1215.32 0.495422 -4.1314 0
M  V30 13013 H 1214.2 1.09236 -5.37921 0
M  V30 13014 H 1214.46 2.03896 -3.92274 0
M  V30 13015 N 1213.52 1.56172 -0.211661 0
M  V30 13016 C 1214.48 2.18602 0.688906 0
M  V30 13017 C 1215.48 1.14508 1.12892 0
M  V30 13018 O 1216.67 1.39799 1.03932 0
M  V30 13019 C 1213.81 2.80141 1.94253 0
M  V30 13020 H 1215 2.9955 0.144765 0
M  V30 13021 H 1212.55 1.56254 0.0379615 0
M  V30 13022 H 1213.29 2.03035 2.52878 0
M  V30 13023 H 1213.07 3.56358 1.63558 0
M  V30 13024 H 1214.56 3.28026 2.58436 0
M  V30 13025 N 1215 -0.0618163 1.57479 0
M  V30 13026 C 1216.24 -0.760193 1.88013 0
M  V30 13027 C 1216.58 -1.76718 0.805258 0
M  V30 13028 O 1215.85 -1.93633 -0.183408 0
M  V30 13029 C 1216.14 -1.45924 3.29208 0
M  V30 13030 C 1215.99 -0.467994 4.47359 0
M  V30 13031 C 1217.31 -2.40166 3.68793 0
M  V30 13032 H 1214.43 -0.274896 0.683814 0
M  V30 13033 H 1217.07 -0.0232433 1.89986 0
M  V30 13034 H 1215.22 -2.08741 3.27657 0
M  V30 13035 H 1216.89 0.155735 4.61037 0
M  V30 13036 H 1215.13 0.215797 4.33263 0
M  V30 13037 H 1215.8 -0.994942 5.42959 0
M  V30 13038 H 1218.28 -1.87419 3.71501 0
M  V30 13039 H 1217.16 -2.86076 4.68457 0
M  V30 13040 H 1217.42 -3.25413 2.99264 0
M  V30 13041 N 1216.48 -1.54033 -0.333429 0
M  V30 13042 C 1217.41 -1.7756 -1.43345 0
M  V30 13043 C 1218.39 -0.625126 -1.50103 0
M  V30 13044 O 1219.57 -0.861444 -1.67665 0
M  V30 13045 C 1216.7 -1.88332 -2.81511 0
M  V30 13046 C 1215.74 -3.10556 -2.92331 0
M  V30 13047 S 1216.58 -4.69385 -2.57755 0
M  V30 13048 C 1217.73 -4.8305 -3.98011 0
M  V30 13049 H 1217.97 -2.70584 -1.23172 0
M  V30 13050 H 1215.5 -1.4503 -0.529691 0
M  V30 13051 H 1217.46 -1.95224 -3.61106 0
M  V30 13052 H 1216.12 -0.963031 -2.98972 0
M  V30 13053 H 1215.31 -3.14798 -3.93596 0
M  V30 13054 H 1214.91 -3.01943 -2.20696 0
M  V30 13055 H 1217.21 -4.65081 -4.92652 0
M  V30 13056 H 1218.15 -5.85148 -3.98757 0
M  V30 13057 H 1218.56 -4.11427 -3.86507 0
M  V30 13058 N 1217.95 0.594978 -1.45938 0
M  V30 13059 C 1218.86 1.73296 -1.58132 0
M  V30 13060 C 1219.88 1.67665 -0.465245 0
M  V30 13061 O 1221.06 1.87794 -0.727684 0
M  V30 13062 C 1218.12 3.09783 -1.55677 0
M  V30 13063 C 1217.18 3.26772 -2.78422 0
M  V30 13064 C 1216.42 4.56748 -2.76075 0
M  V30 13065 O 1216.64 5.39867 -1.84119 0
M  V30 13066 O 1215.57 4.76721 -3.67452 0
M  V30 13067 H 1219.4 1.65957 -2.54346 0
M  V30 13068 H 1216.98 0.760572 -1.28591 0
M  V30 13069 H 1218.87 3.91077 -1.56961 0
M  V30 13070 H 1217.54 3.17585 -0.626191 0
M  V30 13071 H 1216.45 2.45018 -2.82696 0
M  V30 13072 H 1217.78 3.23853 -3.70648 0
M  V30 13073 N 1219.43 1.33438 0.838571 0
M  V30 13074 C 1220.68 1.24912 1.59384 0
M  V30 13075 C 1221.01 -0.185017 1.93618 0
M  V30 13076 O 1220.26 -1.14229 1.58904 0
M  V30 13077 C 1220.56 2.07002 2.9135 0
M  V30 13078 C 1220.23 3.5619 2.76477 0
M  V30 13079 C 1218.89 3.96862 2.72129 0
M  V30 13080 C 1221.24 4.5099 2.61261 0
M  V30 13081 C 1218.57 5.30551 2.50464 0
M  V30 13082 C 1220.92 5.84841 2.4113 0
M  V30 13083 C 1219.59 6.24696 2.35183 0
M  V30 13084 H 1218.86 0.457084 0.583228 0
M  V30 13085 H 1221.5 1.65027 0.971506 0
M  V30 13086 H 1219.81 1.59665 3.57791 0
M  V30 13087 H 1221.5 1.97762 3.48843 0
M  V30 13088 H 1218.09 3.23896 2.80695 0
M  V30 13089 H 1222.28 4.20476 2.63655 0
M  V30 13090 H 1217.53 5.60468 2.44307 0
M  V30 13091 H 1221.71 6.57901 2.2834 0
M  V30 13092 H 1219.34 7.28225 2.18156 0
M  V30 13093 N 1220.91 -1.05686 1.16912 0
M  V30 13094 C 1222.16 -1.77987 0.948875 0
M  V30 13095 C 1222.47 -1.8845 -0.524011 0
M  V30 13096 O 1223.68 -2.57442 -0.862322 0
M  V30 13097 C 1222.13 -3.19927 1.64848 0
M  V30 13098 C 1221.74 -3.1761 3.15956 0
M  V30 13099 C 1223.49 -3.96719 1.51044 0
M  V30 13100 C 1221.39 -4.54307 3.78628 0
M  V30 13101 H 1220.32 -0.667119 0.35138 0
M  V30 13102 H 1222.97 -1.18496 1.40111 0
M  V30 13103 H 1221.36 -3.79714 1.12397 0
M  V30 13104 H 1222.53 -2.67369 3.75301 0
M  V30 13105 H 1220.85 -2.54317 3.29715 0
M  V30 13106 H 1223.44 -4.97779 1.95243 0
M  V30 13107 H 1223.79 -4.13748 0.460268 0
M  V30 13108 H 1224.32 -3.43468 2.00685 0
M  V30 13109 H 1221.06 -4.42484 4.8362 0
M  V30 13110 H 1220.58 -5.04717 3.24069 0
M  V30 13111 H 1222.26 -5.23255 3.80543 0
M  V30 13112 N 1222.39 -0.968567 -1.24324 0
M  V30 13113 C 1223.63 -0.641458 -1.9302 0
M  V30 13114 C 1223.99 0.814553 -1.74307 0
M  V30 13115 O 1223.28 1.57848 -1.08603 0
M  V30 13116 C 1223.48 -0.952762 -3.44467 0
M  V30 13117 C 1223.31 -2.43748 -3.77911 0
M  V30 13118 C 1222.08 -3.09746 -3.99231 0
M  V30 13119 C 1224.27 -3.4176 -3.84324 0
M  V30 13120 N 1222.26 -4.47947 -4.19782 0
M  V30 13121 C 1223.63 -4.65321 -4.09728 0
M  V30 13122 C 1225.68 -3.36406 -3.67064 0
M  V30 13123 C 1224.38 -5.84186 -4.19665 0
M  V30 13124 C 1226.41 -4.54624 -3.78248 0
M  V30 13125 C 1225.77 -5.76976 -4.04077 0
M  V30 13126 H 1221.87 -0.285584 -0.727987 0
M  V30 13127 H 1224.46 -1.2436 -1.49808 0
M  V30 13128 H 1222.63 -0.379421 -3.86542 0
M  V30 13129 H 1224.36 -0.584137 -4.00462 0
M  V30 13130 H 1221.11 -2.60274 -3.95669 0
M  V30 13131 H 1221.54 -5.19559 -4.34036 0
M  V30 13132 H 1226.18 -2.42847 -3.461 0
M  V30 13133 H 1223.9 -6.78172 -4.3944 0
M  V30 13134 H 1227.48 -4.52043 -3.66262 0
M  V30 13135 H 1226.36 -6.66925 -4.1253 0
M  V30 13136 N 1223.87 1.39211 -0.738786 0
M  V30 13137 C 1225.09 2.05256 -0.297421 0
M  V30 13138 C 1225.52 1.55341 1.06069 0
M  V30 13139 O 1224.87 0.698823 1.67291 0
M  V30 13140 C 1224.92 3.59239 -0.312969 0
M  V30 13141 O 1224.03 4.06448 0.698112 0
M  V30 13142 H 1223.37 0.650245 -0.134454 0
M  V30 13143 H 1225.9 1.78173 -1.00577 0
M  V30 13144 H 1225.91 4.07691 -0.158675 0
M  V30 13145 H 1224.58 3.94931 -1.30394 0
M  V30 13146 H 1223.16 3.69401 0.509643 0
M  V30 13147 N 1225.34 0.486708 1.49896 0
M  V30 13148 C 1226.57 -0.0600816 2.06813 0
M  V30 13149 C 1226.99 -1.32112 1.34877 0
M  V30 13150 O 1226.34 -1.77537 0.422725 0
M  V30 13151 C 1226.4 -0.332266 3.5997 0
M  V30 13152 O 1226.12 0.878771 4.29196 0
M  V30 13153 C 1227.62 -0.924289 4.33557 0
M  V30 13154 H 1224.84 0.0140611 0.670853 0
M  V30 13155 H 1227.38 0.67997 1.92864 0
M  V30 13156 H 1225.54 -1.02227 3.73669 0
M  V30 13157 H 1225.95 0.632873 5.20668 0
M  V30 13158 H 1227.42 -1.06441 5.4164 0
M  V30 13159 H 1227.9 -1.91844 3.95085 0
M  V30 13160 H 1228.51 -0.272189 4.24428 0
M  V30 13161 N 1226.82 -1.56058 0.219941 0
M  V30 13162 C 1228.24 -1.59024 -0.135476 0
M  V30 13163 C 1228.44 -1.23672 -1.59083 0
M  V30 13164 O 1227.5 -0.971197 -2.33075 0
M  V30 13165 C 1228.81 -3.00103 0.189356 0
M  V30 13166 C 1230.36 -3.12724 0.131463 0
M  V30 13167 C 1230.83 -4.55977 0.429947 0
M  V30 13168 N 1232.32 -4.61643 0.37946 0
M  V30 13169 C 1233.06 -5.70419 0.58393 0
M  V30 13170 N 1232.55 -6.87565 0.850088 0
M  V30 13171 N 1234.35 -5.59722 0.516477 0
M  V30 13172 H 1226.5 -1.77313 1.16935 0
M  V30 13173 H 1228.76 -0.824096 0.468583 0
M  V30 13174 H 1228.47 -3.30616 1.19941 0
M  V30 13175 H 1228.34 -3.73919 -0.49641 0
M  V30 13176 H 1230.73 -2.82008 -0.869223 0
M  V30 13177 H 1230.81 -2.41241 0.85068 0
M  V30 13178 H 1230.45 -4.8741 1.42806 0
M  V30 13179 H 1230.38 -5.25684 -0.310444 0
M  V30 13180 H 1232.87 -3.77465 0.181373 0
M  V30 13181 H 1233.19 -7.66378 0.994251 0
M  V30 13182 H 1231.53 -6.89313 0.887265 0
M  V30 13183 H 1234.72 -4.6708 0.308784 0
M  V30 13184 H 1234.9 -6.4443 0.679236 0
M  V30 13185 N 1228.3 0.053464 -1.57509 0
M  V30 13186 C 1229.72 0.408651 -1.5428 0
M  V30 13187 C 1229.92 1.78086 -0.942735 0
M  V30 13188 O 1228.97 2.46366 -0.553163 0
M  V30 13189 C 1230.29 0.332884 -2.98852 0
M  V30 13190 C 1231.83 0.411745 -3.1028 0
M  V30 13191 C 1232.31 0.365691 -4.56538 0
M  V30 13192 N 1233.8 0.425222 -4.61244 0
M  V30 13193 C 1234.54 0.412093 -5.71917 0
M  V30 13194 N 1234.03 0.352693 -6.91902 0
M  V30 13195 N 1235.82 0.460016 -5.60214 0
M  V30 13196 H 1227.98 -0.844834 -1.94875 0
M  V30 13197 H 1230.24 -0.318888 -0.892757 0
M  V30 13198 H 1229.94 -0.609116 -3.46385 0
M  V30 13199 H 1229.82 1.13605 -3.59686 0
M  V30 13200 H 1232.21 1.34417 -2.62709 0
M  V30 13201 H 1232.29 -0.420333 -2.52323 0
M  V30 13202 H 1231.93 -0.562963 -5.0477 0
M  V30 13203 H 1231.86 1.21555 -5.12379 0
M  V30 13204 H 1234.35 0.474634 -3.74908 0
M  V30 13205 H 1234.66 0.347105 -7.7202 0
M  V30 13206 H 1233.01 0.319104 -6.94267 0
M  V30 13207 H 1236.2 0.504242 -4.65376 0
M  V30 13208 H 1236.37 0.446315 -6.46461 0
M  V30 13209 N 1229.78 1.54207 0.325255 0
M  V30 13210 C 1231 1.7661 1.08736 0
M  V30 13211 C 1231.43 0.512449 1.80985 0
M  V30 13212 O 1230.79 -0.535913 1.73198 0
M  V30 13213 C 1230.84 2.95797 2.06243 0
M  V30 13214 O 1229.94 2.67225 3.14109 0
M  V30 13215 H 1229.28 0.585282 0.313593 0
M  V30 13216 H 1231.81 2.01225 0.370066 0
M  V30 13217 H 1231.82 3.23097 2.49143 0
M  V30 13218 H 1230.5 3.86712 1.53058 0
M  V30 13219 H 1229.07 2.50869 2.75897 0
M  V30 13220 N 1231.26 -0.58723 1.46251 0
M  V30 13221 C 1232.22 -1.67863 1.5606 0
M  V30 13222 C 1233.22 -1.54715 0.438162 0
M  V30 13223 O 1234.41 -1.59415 0.702323 0
M  V30 13224 C 1231.54 -3.07262 1.47659 0
M  V30 13225 H 1232.74 -1.60525 2.53321 0
M  V30 13226 H 1230.29 -0.804691 1.33994 0
M  V30 13227 H 1231.02 -3.20159 0.5166 0
M  V30 13228 H 1230.81 -3.18213 2.29092 0
M  V30 13229 H 1232.3 -3.8672 1.57599 0
M  V30 13230 N 1232.74 -1.33881 -0.831482 0
M  V30 13231 C 1233.65 -1.26802 -1.97379 0
M  V30 13232 C 1234.66 -0.177233 -1.73095 0
M  V30 13233 O 1235.84 -0.402163 -1.97344 0
M  V30 13234 C 1232.9 -1.01474 -3.31517 0
M  V30 13235 C 1231.96 -2.19626 -3.68867 0
M  V30 13236 C 1231.2 -1.95497 -4.96605 0
M  V30 13237 O 1231.42 -0.908948 -5.63111 0
M  V30 13238 O 1230.35 -2.82226 -5.31632 0
M  V30 13239 H 1234.18 -2.22883 -2.06293 0
M  V30 13240 H 1231.76 -1.14001 -0.965613 0
M  V30 13241 H 1233.65 -0.890954 -4.11874 0
M  V30 13242 H 1232.32 -0.0842656 -3.2359 0
M  V30 13243 H 1231.23 -2.37561 -2.88991 0
M  V30 13244 H 1232.56 -3.11034 -3.81469 0
M  V30 13245 N 1234.21 1.05064 -1.1747 0
M  V30 13246 C 1235.44 1.82299 -0.98903 0
M  V30 13247 C 1235.86 1.82441 0.457907 0
M  V30 13248 O 1235.22 1.23433 1.32793 0
M  V30 13249 C 1235.27 3.26239 -1.53624 0
M  V30 13250 O 1234.37 4.05507 -0.750857 0
M  V30 13251 H 1233.71 0.563601 -0.35107 0
M  V30 13252 H 1236.24 1.32386 -1.55997 0
M  V30 13253 H 1236.25 3.77038 -1.55906 0
M  V30 13254 H 1234.93 3.25451 -2.58949 0
M  V30 13255 H 1233.51 3.64227 -0.799548 0
M  V30 13256 N 1235.69 0.975146 1.23809 0
M  V30 13257 C 1236.6 0.51917 2.28783 0
M  V30 13258 C 1237.62 -0.423487 1.68768 0
M  V30 13259 O 1238.79 -0.294699 1.99232 0
M  V30 13260 C 1235.86 -0.176229 3.46252 0
M  V30 13261 C 1234.92 0.807177 4.21643 0
M  V30 13262 C 1234.15 0.144869 5.33503 0
M  V30 13263 O 1234.38 -1.06522 5.60365 0
M  V30 13264 O 1233.31 0.84079 5.95999 0
M  V30 13265 H 1237.14 1.39204 2.69919 0
M  V30 13266 H 1234.72 0.74253 1.29641 0
M  V30 13267 H 1236.6 -0.566547 4.17574 0
M  V30 13268 H 1235.28 -1.02394 3.07078 0
M  V30 13269 H 1234.18 1.2481 3.52666 0
M  V30 13270 H 1235.52 1.62354 4.64653 0
M  V30 13271 N 1237.17 -1.38817 0.746158 0
M  V30 13272 C 1238.08 -2.34316 0.115386 0
M  V30 13273 C 1239.1 -1.58892 -0.709179 0
M  V30 13274 O 1240.27 -1.91126 -0.635059 0
M  V30 13275 C 1237.34 -3.37977 -0.772821 0
M  V30 13276 C 1236.4 -4.2925 0.0652679 0
M  V30 13277 C 1235.63 -5.2796 -0.78064 0
M  V30 13278 O 1235.85 -5.33474 -2.01896 0
M  V30 13279 O 1234.79 -6.01556 -0.20338 0
M  V30 13280 H 1238.61 -2.89937 0.903887 0
M  V30 13281 H 1236.2 -1.40536 0.506958 0
M  V30 13282 H 1238.08 -4.01468 -1.28068 0
M  V30 13283 H 1236.76 -2.84723 -1.53994 0
M  V30 13284 H 1235.66 -3.68945 0.61891 0
M  V30 13285 H 1237 -4.85739 0.794871 0
M  V30 13286 N 1238.65 -0.49465 -1.49636 0
M  V30 13287 C 1239.89 0.0521945 -2.02733 0
M  V30 13288 C 1240.23 1.3723 -1.37411 0
M  V30 13289 O 1239.5 1.87758 -0.507642 0
M  V30 13290 C 1239.78 0.2114 -3.59479 0
M  V30 13291 C 1239.64 -1.13138 -4.35339 0
M  V30 13292 C 1240.96 0.955015 -4.29613 0
M  V30 13293 H 1238.08 0.0174946 -0.736792 0
M  V30 13294 H 1240.72 -0.644827 -1.78723 0
M  V30 13295 H 1238.87 0.805078 -3.80067 0
M  V30 13296 H 1240.54 -1.76345 -4.26263 0
M  V30 13297 H 1238.78 -1.72224 -3.98147 0
M  V30 13298 H 1239.45 -0.97336 -5.4335 0
M  V30 13299 H 1241.93 0.451575 -4.13642 0
M  V30 13300 H 1240.81 1.03524 -5.39049 0
M  V30 13301 H 1241.07 1.99724 -3.94414 0
M  V30 13302 N 1240.13 1.55939 -0.228214 0
M  V30 13303 C 1241.35 2.0332 0.409364 0
M  V30 13304 C 1241.78 1.10683 1.52088 0
M  V30 13305 O 1241.13 0.0962484 1.81044 0
M  V30 13306 C 1241.18 3.48877 0.911981 0
M  V30 13307 O 1240.29 3.59378 2.02289 0
M  V30 13308 H 1239.63 0.657625 0.0917909 0
M  V30 13309 H 1242.16 2.01605 -0.348802 0
M  V30 13310 H 1242.17 3.89331 1.22007 0
M  V30 13311 H 1240.84 4.15783 0.0984902 0
M  V30 13312 H 1239.42 3.30815 1.72093 0
M  V30 13313 N 1241.6 -0.0451101 1.57535 0
M  V30 13314 C 1242.85 -0.740209 1.88809 0
M  V30 13315 C 1243.18 -1.75854 0.823956 0
M  V30 13316 O 1242.46 -1.93817 -0.16286 0
M  V30 13317 C 1242.74 -1.42424 3.30737 0
M  V30 13318 C 1242.59 -0.42052 4.4783 0
M  V30 13319 C 1243.91 -2.36241 3.7132 0
M  V30 13320 H 1241.03 -0.267628 0.686691 0
M  V30 13321 H 1243.67 -0.00309149 1.9 0
M  V30 13322 H 1241.82 -2.05254 3.29853 0
M  V30 13323 H 1243.5 0.204625 4.60846 0
M  V30 13324 H 1241.74 0.261739 4.3301 0
M  V30 13325 H 1242.41 -0.937298 5.43984 0
M  V30 13326 H 1244.89 -1.83468 3.73468 0
M  V30 13327 H 1243.76 -2.81091 4.71465 0
M  V30 13328 H 1244.02 -3.2222 3.02699 0
M  V30 13329 N 1243.08 -1.54377 -0.317073 0
M  V30 13330 C 1244.32 -1.74621 -1.06239 0
M  V30 13331 C 1244.69 -0.512542 -1.85032 0
M  V30 13332 O 1245.89 -0.592438 -2.6219 0
M  V30 13333 C 1244.16 -2.99036 -1.95735 0
M  V30 13334 S 1245.72 -3.40212 -2.77131 0
M  V30 13335 H 1242.54 -0.613969 -0.358557 0
M  V30 13336 H 1245.14 -1.92562 -0.33763 0
M  V30 13337 H 1243.84 -3.86965 -1.36697 0
M  V30 13338 H 1243.37 -2.83636 -2.72606 0
M  V30 13339 H 1245.39 -2.9602 -3.98229 0
M  V30 13340 N 1244.56 0.579466 -1.4656 0
M  V30 13341 C 1245.49 1.70291 -1.53406 0
M  V30 13342 C 1246.51 1.57232 -0.422116 0
M  V30 13343 O 1247.69 1.64598 -0.69064 0
M  V30 13344 C 1244.79 3.08572 -1.40131 0
M  V30 13345 C 1243.97 3.47602 -2.65502 0
M  V30 13346 C 1243.03 4.64955 -2.4638 0
M  V30 13347 O 1242.05 4.70653 -3.20116 0
M  V30 13348 N 1243.25 5.60041 -1.52756 0
M  V30 13349 H 1246.02 1.64873 -2.50274 0
M  V30 13350 H 1243.58 0.765533 -1.42658 0
M  V30 13351 H 1245.57 3.84877 -1.25106 0
M  V30 13352 H 1244.14 3.0834 -0.514322 0
M  V30 13353 H 1243.36 2.60969 -2.95446 0
M  V30 13354 H 1244.65 3.70446 -3.48779 0
M  V30 13355 H 1244.05 5.58176 -0.919587 0
M  V30 13356 H 1242.61 6.35764 -1.43693 0
M  V30 13357 N 1246.04 1.3432 0.824371 0
M  V30 13358 C 1246.95 1.27847 1.96704 0
M  V30 13359 C 1247.96 0.18641 1.72999 0
M  V30 13360 O 1249.14 0.412623 1.97128 0
M  V30 13361 C 1246.21 1.03231 3.30975 0
M  V30 13362 C 1245.27 2.21579 3.67697 0
M  V30 13363 C 1244.5 1.98128 4.95561 0
M  V30 13364 O 1244.72 0.938798 5.62621 0
M  V30 13365 O 1243.66 2.85041 5.30128 0
M  V30 13366 H 1247.48 2.23974 2.05108 0
M  V30 13367 H 1245.07 1.14512 0.959554 0
M  V30 13368 H 1246.95 0.912784 4.11395 0
M  V30 13369 H 1245.62 0.101425 3.23541 0
M  V30 13370 H 1244.53 2.3909 2.87727 0
M  V30 13371 H 1245.86 3.13052 3.79815 0
M  V30 13372 N 1247.52 -1.0444 1.18026 0
M  V30 13373 C 1248.45 -2.11888 0.847277 0
M  V30 13374 C 1249.43 -1.61496 -0.189171 0
M  V30 13375 O 1250.61 -1.88374 -0.0689859 0
M  V30 13376 C 1247.74 -3.3766 0.26525 0
M  V30 13377 C 1246.78 -4.06893 1.27829 0
M  V30 13378 S 1247.62 -4.54445 2.83267 0
M  V30 13379 C 1248.77 -5.83454 2.26565 0
M  V30 13380 H 1249.01 -2.39806 1.75727 0
M  V30 13381 H 1246.54 -1.17152 1.00572 0
M  V30 13382 H 1248.5 -4.1045 -0.0640578 0
M  V30 13383 H 1247.16 -3.07864 -0.622806 0
M  V30 13384 H 1246.35 -4.97287 0.819849 0
M  V30 13385 H 1245.95 -3.40203 1.55364 0
M  V30 13386 H 1248.25 -6.57203 1.64591 0
M  V30 13387 H 1249.19 -6.34056 3.15244 0
M  V30 13388 H 1249.6 -5.3838 1.69728 0
M  V30 13389 N 1248.99 -0.981699 -1.2329 0
M  V30 13390 C 1249.92 -0.542441 -2.27112 0
M  V30 13391 C 1250.91 0.425034 -1.64704 0
M  V30 13392 O 1252.09 0.318114 -1.91577 0
M  V30 13393 C 1249.22 0.154668 -3.46955 0
M  V30 13394 C 1248.17 -0.73022 -4.21725 0
M  V30 13395 C 1247.5 0.0991766 -5.34608 0
M  V30 13396 C 1248.8 -2.02166 -4.81587 0
M  V30 13397 H 1250.49 -1.41024 -2.64107 0
M  V30 13398 H 1248.04 -0.679544 -1.26957 0
M  V30 13399 H 1249.99 0.473281 -4.18734 0
M  V30 13400 H 1248.72 1.05693 -3.09025 0
M  V30 13401 H 1247.38 -1.03231 -3.51765 0
M  V30 13402 H 1247.02 1.00201 -4.92919 0
M  V30 13403 H 1246.72 -0.489788 -5.85555 0
M  V30 13404 H 1248.25 0.412141 -6.09207 0
M  V30 13405 H 1249.66 -1.76773 -5.45366 0
M  V30 13406 H 1248.06 -2.55851 -5.42826 0
M  V30 13407 H 1249.13 -2.70766 -4.02261 0
M  V30 13408 N 1250.47 1.3842 -0.753509 0
M  V30 13409 C 1251.4 2.29039 -0.0859463 0
M  V30 13410 C 1252.42 1.47742 0.68383 0
M  V30 13411 O 1253.61 1.70607 0.524933 0
M  V30 13412 C 1250.71 3.26668 0.902296 0
M  V30 13413 C 1249.88 4.36986 0.190178 0
M  V30 13414 C 1248.94 5.14805 1.08916 0
M  V30 13415 O 1247.96 5.66441 0.559715 0
M  V30 13416 N 1249.17 5.27777 2.41726 0
M  V30 13417 H 1251.93 2.8697 -0.864196 0
M  V30 13418 H 1249.49 1.502 -0.604288 0
M  V30 13419 H 1251.48 3.75606 1.50672 0
M  V30 13420 H 1250.05 2.69636 1.58163 0
M  V30 13421 H 1249.27 3.89684 -0.594959 0
M  V30 13422 H 1250.56 5.07899 -0.302594 0
M  V30 13423 H 1249.96 4.87376 2.87196 0
M  V30 13424 H 1248.52 5.8009 2.97219 0
M  V30 13425 N 1251.95 0.502579 1.49372 0
M  V30 13426 C 1252.86 -0.279532 2.32929 0
M  V30 13427 C 1253.88 -0.965806 1.44735 0
M  V30 13428 O 1255.05 -0.946839 1.77755 0
M  V30 13429 C 1252.12 -1.32913 3.20211 0
M  V30 13430 C 1251.18 -0.656121 4.24256 0
M  V30 13431 C 1250.41 -1.65571 5.07368 0
M  V30 13432 O 1250.63 -2.88571 4.92019 0
M  V30 13433 O 1249.57 -1.21016 5.89609 0
M  V30 13434 H 1253.39 0.404427 3.00995 0
M  V30 13435 H 1250.98 0.263888 1.47051 0
M  V30 13436 H 1252.86 -1.93635 3.74277 0
M  V30 13437 H 1251.54 -1.99598 2.54837 0
M  V30 13438 H 1250.44 -0.00911489 3.74099 0
M  V30 13439 H 1251.78 -0.0316802 4.9219 0
M  V30 13440 N 1253.43 -1.55816 0.23648 0
M  V30 13441 C 1254.36 -2.23924 -0.661834 0
M  V30 13442 C 1255.34 -1.21597 -1.18946 0
M  V30 13443 O 1256.52 -1.50222 -1.23073 0
M  V30 13444 C 1253.65 -2.93069 -1.86355 0
M  V30 13445 C 1252.61 -4.01996 -1.46913 0
M  V30 13446 C 1251.93 -4.58512 -2.75083 0
M  V30 13447 C 1253.23 -5.18265 -0.647964 0
M  V30 13448 H 1254.93 -2.99253 -0.0939368 0
M  V30 13449 H 1252.47 -1.43934 -0.0437407 0
M  V30 13450 H 1254.43 -3.39412 -2.49755 0
M  V30 13451 H 1253.15 -2.15212 -2.45665 0
M  V30 13452 H 1251.81 -3.56406 -0.858522 0
M  V30 13453 H 1251.46 -3.77368 -3.3257 0
M  V30 13454 H 1251.16 -5.32037 -2.49421 0
M  V30 13455 H 1252.68 -5.07583 -3.39399 0
M  V30 13456 H 1254.1 -5.60898 -1.18602 0
M  V30 13457 H 1252.49 -5.98114 -0.487823 0
M  V30 13458 H 1253.56 -4.83691 0.342151 0
M  V30 13459 N 1254.91 0.036755 -1.57557 0
M  V30 13460 C 1256.32 0.392264 -1.54704 0
M  V30 13461 C 1256.52 1.77076 -0.96157 0
M  V30 13462 O 1255.58 2.45766 -0.579263 0
M  V30 13463 C 1256.89 0.301168 -2.99188 0
M  V30 13464 C 1258.44 0.378813 -3.10699 0
M  V30 13465 C 1258.91 0.317249 -4.569 0
M  V30 13466 N 1260.41 0.376277 -4.61669 0
M  V30 13467 C 1261.14 0.351411 -5.72322 0
M  V30 13468 N 1260.64 0.279288 -6.92237 0
M  V30 13469 N 1262.43 0.400571 -5.60671 0
M  V30 13470 H 1254.58 -0.865455 -1.93968 0
M  V30 13471 H 1256.84 -0.328339 -0.889324 0
M  V30 13472 H 1256.55 -0.64582 -3.4572 0
M  V30 13473 H 1256.42 1.09784 -3.6087 0
M  V30 13474 H 1258.81 1.31623 -2.6412 0
M  V30 13475 H 1258.89 -0.447072 -2.51863 0
M  V30 13476 H 1258.54 -0.616469 -5.04145 0
M  V30 13477 H 1258.47 1.16114 -5.13639 0
M  V30 13478 H 1260.96 0.434843 -3.7539 0
M  V30 13479 H 1261.27 0.265202 -7.72345 0
M  V30 13480 H 1259.61 0.24545 -6.94566 0
M  V30 13481 H 1262.81 0.454854 -4.65885 0
M  V30 13482 H 1262.98 0.377724 -6.46898 0
M  V30 13483 N 1256.39 1.54543 0.308881 0
M  V30 13484 C 1257.34 1.81332 1.38212 0
M  V30 13485 C 1258.32 0.670056 1.46284 0
M  V30 13486 O 1259.51 0.930476 1.50569 0
M  V30 13487 C 1256.64 2.05713 2.7484 0
M  V30 13488 C 1255.73 3.26202 2.71023 0
M  V30 13489 N 1256.12 4.46933 2.36822 0
M  V30 13490 C 1254.42 3.28071 3.02135 0
M  V30 13491 C 1255.12 5.28923 2.42106 0
M  V30 13492 N 1254.09 4.66455 2.79143 0
M  V30 13493 H 1257.89 2.72246 1.10722 0
M  V30 13494 H 1255.41 1.53936 0.51743 0
M  V30 13495 H 1257.41 2.23049 3.52214 0
M  V30 13496 H 1256.07 1.16062 3.03249 0
M  V30 13497 H 1257.08 4.73674 2.09413 0
M  V30 13498 H 1253.75 2.48501 3.3549 0
M  V30 13499 H 1255.14 6.35369 2.1853 0
M  V30 13500 N 1257.86 -0.571685 1.46866 0
M  V30 13501 C 1258.83 -1.66198 1.57832 0
M  V30 13502 C 1259.83 -1.54242 0.454547 0
M  V30 13503 O 1261.02 -1.58661 0.719191 0
M  V30 13504 C 1258.15 -3.05678 1.5091 0
M  V30 13505 H 1259.34 -1.57829 2.5501 0
M  V30 13506 H 1256.89 -0.790433 1.3484 0
M  V30 13507 H 1257.63 -3.19593 0.550529 0
M  V30 13508 H 1257.41 -3.15765 2.32454 0
M  V30 13509 H 1258.9 -3.85027 1.61692 0
M  V30 13510 N 1259.34 -1.34755 -0.817236 0
M  V30 13511 C 1260.59 -1.2762 -1.5761 0
M  V30 13512 C 1260.92 0.152017 -1.93604 0
M  V30 13513 O 1260.2 1.09881 -1.60488 0
M  V30 13514 C 1260.48 -2.17251 -2.87183 0
M  V30 13515 C 1260.33 -3.68638 -2.57733 0
M  V30 13516 C 1261.65 -2.06206 -3.88802 0
M  V30 13517 H 1258.77 -0.464933 -0.571845 0
M  V30 13518 H 1261.41 -1.6506 -0.941028 0
M  V30 13519 H 1259.56 -1.85452 -3.41379 0
M  V30 13520 H 1261.23 -4.10829 -2.09802 0
M  V30 13521 H 1259.48 -3.89445 -1.91089 0
M  V30 13522 H 1260.15 -4.26726 -3.50156 0
M  V30 13523 H 1262.62 -2.34137 -3.43975 0
M  V30 13524 H 1261.5 -2.71136 -4.77259 0
M  V30 13525 H 1261.76 -1.04075 -4.29675 0
M  V30 13526 N 1260.82 1.03812 -1.18578 0
M  V30 13527 C 1262.04 1.8124 -1.00831 0
M  V30 13528 C 1262.47 1.82917 0.43853 0
M  V30 13529 O 1261.83 1.24835 1.31476 0
M  V30 13530 C 1261.88 3.24592 -1.57075 0
M  V30 13531 O 1260.98 4.04688 -0.793824 0
M  V30 13532 H 1260.32 0.559846 -0.357028 0
M  V30 13533 H 1262.85 1.30724 -1.57393 0
M  V30 13534 H 1262.86 3.75363 -1.59896 0
M  V30 13535 H 1261.54 3.22686 -2.62387 0
M  V30 13536 H 1260.11 3.63359 -0.838134 0
M  V30 13537 N 1262.3 0.988223 1.22768 0
M  V30 13538 C 1263.54 0.669599 1.93121 0
M  V30 13539 C 1263.9 -0.783331 1.75294 0
M  V30 13540 O 1265.1 -1.21315 2.39867 0
M  V30 13541 C 1263.37 1.05876 3.41358 0
M  V30 13542 S 1264.93 0.857797 4.30334 0
M  V30 13543 H 1261.75 0.244972 0.667465 0
M  V30 13544 H 1264.35 1.26952 1.48673 0
M  V30 13545 H 1263.06 2.11267 3.51844 0
M  V30 13546 H 1262.59 0.450453 3.90813 0
M  V30 13547 H 1264.6 -0.254171 4.95549 0
M  V30 13548 N 1263.78 -1.38018 0.760839 0
M  V30 13549 C 1265.19 -1.53437 0.439239 0
M  V30 13550 C 1265.39 -1.72184 -1.04666 0
M  V30 13551 O 1264.45 -1.73698 -1.83263 0
M  V30 13552 C 1265.76 -2.73724 1.24481 0
M  V30 13553 C 1267.31 -2.87579 1.23561 0
M  V30 13554 C 1267.78 -4.10836 2.02429 0
M  V30 13555 N 1269.27 -4.17928 1.99727 0
M  V30 13556 C 1270.01 -5.12309 2.57541 0
M  V30 13557 N 1269.51 -6.12317 3.24098 0
M  V30 13558 N 1271.3 -5.04712 2.47431 0
M  V30 13559 H 1263.45 -1.241 1.72375 0
M  V30 13560 H 1265.71 -0.603427 0.73115 0
M  V30 13561 H 1265.42 -2.663 2.29732 0
M  V30 13562 H 1265.29 -3.67111 0.866579 0
M  V30 13563 H 1267.68 -2.9448 0.191122 0
M  V30 13564 H 1267.76 -1.95183 1.6534 0
M  V30 13565 H 1267.4 -4.04696 3.06893 0
M  V30 13566 H 1267.33 -5.02326 1.58039 0
M  V30 13567 H 1269.83 -3.46307 1.51262 0
M  V30 13568 H 1270.14 -6.80842 3.65615 0
M  V30 13569 H 1268.48 -6.12628 3.28195 0
M  V30 13570 H 1271.67 -4.25524 1.95057 0
M  V30 13571 H 1271.85 -5.78085 2.92783 0
M  V30 13572 N 1265.25 -0.510493 -1.49103 0
M  V30 13573 C 1266.2 0.262848 -2.29298 0
M  V30 13574 C 1267.17 0.951714 -1.36131 0
M  V30 13575 O 1268.36 0.956534 -1.65091 0
M  V30 13576 C 1265.5 1.31565 -3.19037 0
M  V30 13577 C 1264.61 0.637598 -4.27269 0
M  V30 13578 C 1263.74 1.67165 -5.04212 0
M  V30 13579 C 1262.78 0.975992 -6.04269 0
M  V30 13580 N 1261.92 1.95468 -6.74342 0
M  V30 13581 H 1266.76 -0.427246 -2.94921 0
M  V30 13582 H 1264.3 -0.222538 -1.45407 0
M  V30 13583 H 1266.25 1.93813 -3.69449 0
M  V30 13584 H 1264.88 1.97438 -2.55379 0
M  V30 13585 H 1263.94 -0.0983863 -3.80273 0
M  V30 13586 H 1265.25 0.0904435 -4.98718 0
M  V30 13587 H 1264.4 2.36893 -5.5854 0
M  V30 13588 H 1263.14 2.25267 -4.32557 0
M  V30 13589 H 1262.15 0.264534 -5.49163 0
M  V30 13590 H 1263.37 0.40134 -6.77913 0
M  V30 13591 H 1261.32 2.52515 -6.05452 0
M  V30 13592 H 1261.23 1.45845 -7.41799 0
M  V30 13593 H 1262.5 2.64455 -7.33269 0
M  V30 13594 N 1266.73 1.55688 -0.24474 0
M  V30 13595 C 1267.96 2.0329 0.384808 0
M  V30 13596 C 1268.37 1.12405 1.51692 0
M  V30 13597 O 1267.73 0.138056 1.81977 0
M  V30 13598 C 1267.78 3.50255 0.894635 0
M  V30 13599 O 1267.5 4.37677 -0.192365 0
M  V30 13600 C 1269 4.13608 1.59509 0
M  V30 13601 H 1266.22 0.664706 0.0916908 0
M  V30 13602 H 1268.77 2.01162 -0.367973 0
M  V30 13603 H 1266.92 3.52924 1.5976 0
M  V30 13604 H 1267.34 5.2414 0.194424 0
M  V30 13605 H 1268.81 5.1814 1.90356 0
M  V30 13606 H 1269.29 3.5997 2.51631 0
M  V30 13607 H 1269.89 4.14856 0.936749 0
M  V30 13608 N 1268.21 -0.0283989 1.57574 0
M  V30 13609 C 1269.43 -0.734537 1.93957 0
M  V30 13610 C 1269.86 -1.68062 0.844787 0
M  V30 13611 O 1269.22 -1.802 -0.199432 0
M  V30 13612 C 1269.27 -1.46716 3.29404 0
M  V30 13613 O 1268.37 -2.58036 3.217 0
M  V30 13614 H 1267.71 -0.197507 0.633946 0
M  V30 13615 H 1270.24 0.0163258 2.04593 0
M  V30 13616 H 1270.25 -1.83693 3.64309 0
M  V30 13617 H 1268.93 -0.773292 4.08648 0
M  V30 13618 H 1267.5 -2.23597 2.98427 0
M  V30 13619 N 1269.69 -1.54705 -0.300681 0
M  V30 13620 C 1271.1 -1.45926 -0.646359 0
M  V30 13621 C 1271.3 -0.65072 -1.90704 0
M  V30 13622 O 1270.36 -0.158547 -2.52002 0
M  V30 13623 C 1271.67 -2.89889 -0.799059 0
M  V30 13624 C 1273.22 -2.99934 -0.894923 0
M  V30 13625 C 1273.7 -4.45093 -1.07962 0
M  V30 13626 N 1275.19 -4.48804 -1.14581 0
M  V30 13627 C 1275.92 -5.58305 -1.30702 0
M  V30 13628 N 1275.42 -6.77729 -1.43719 0
M  V30 13629 N 1277.21 -5.45994 -1.33593 0
M  V30 13630 H 1269.36 -2.05742 0.527617 0
M  V30 13631 H 1271.62 -0.931817 0.174415 0
M  V30 13632 H 1271.33 -3.51655 0.0563954 0
M  V30 13633 H 1271.2 -3.37325 -1.68796 0
M  V30 13634 H 1273.59 -2.38281 -1.74086 0
M  V30 13635 H 1273.67 -2.55794 0.0179973 0
M  V30 13636 H 1273.32 -5.0734 -0.238444 0
M  V30 13637 H 1273.25 -4.86864 -2.00677 0
M  V30 13638 H 1275.74 -3.62766 -1.05874 0
M  V30 13639 H 1276.05 -7.56937 -1.55776 0
M  V30 13640 H 1274.4 -6.80594 -1.40774 0
M  V30 13641 H 1277.59 -4.51641 -1.23035 0
M  V30 13642 H 1277.76 -6.31381 -1.45813 0
M  V30 13643 N 1271.17 0.563888 -1.47167 0
M  V30 13644 C 1272.39 1.35176 -1.57297 0
M  V30 13645 C 1272.82 1.86794 -0.221235 0
M  V30 13646 O 1272.17 1.62606 0.801809 0
M  V30 13647 C 1272.22 2.50225 -2.59654 0
M  V30 13648 O 1271.33 3.5225 -2.14461 0
M  V30 13649 H 1270.67 0.401795 -0.528637 0
M  V30 13650 H 1273.2 0.682137 -1.92894 0
M  V30 13651 H 1273.21 2.96886 -2.79862 0
M  V30 13652 H 1271.88 2.1201 -3.57805 0
M  V30 13653 H 1270.46 3.1194 -2.04323 0
M  V30 13654 N 1272.64 1.35187 0.810078 0
M  V30 13655 C 1274.06 1.15149 1.10512 0
M  V30 13656 C 1274.26 -0.038394 2.01463 0
M  V30 13657 O 1273.32 -0.710056 2.42311 0
M  V30 13658 C 1274.63 2.45282 1.73946 0
M  V30 13659 C 1276.18 2.51457 1.86382 0
M  V30 13660 C 1276.65 3.81625 2.53232 0
M  V30 13661 N 1278.14 3.82856 2.6072 0
M  V30 13662 C 1278.88 4.80302 3.13206 0
M  V30 13663 N 1278.37 5.88134 3.66156 0
M  V30 13664 N 1280.17 4.67743 3.11726 0
M  V30 13665 H 1272.32 2.11405 0.205391 0
M  V30 13666 H 1274.58 0.935457 0.153702 0
M  V30 13667 H 1274.29 3.32512 1.14582 0
M  V30 13668 H 1274.16 2.59573 2.73682 0
M  V30 13669 H 1276.55 1.64659 2.44891 0
M  V30 13670 H 1276.63 2.41084 0.855113 0
M  V30 13671 H 1276.27 4.68819 1.95375 0
M  V30 13672 H 1276.2 3.89285 3.54633 0
M  V30 13673 H 1278.69 3.04941 2.23203 0
M  V30 13674 H 1279.01 6.58487 4.04494 0
M  V30 13675 H 1277.35 5.91831 3.64364 0
M  V30 13676 H 1280.54 3.82642 2.69635 0
M  V30 13677 H 1280.72 5.43849 3.52324 0
M  V30 13678 N 1274.12 -1.03182 1.19127 0
M  V30 13679 C 1275.54 -1.28773 0.942854 0
M  V30 13680 C 1275.74 -1.97759 -0.386483 0
M  V30 13681 O 1274.79 -2.26365 -1.1187 0
M  V30 13682 C 1276.11 -2.13771 2.11476 0
M  V30 13683 C 1277.66 -2.27089 2.15406 0
M  V30 13684 C 1278.13 -3.15458 3.32039 0
M  V30 13685 N 1279.62 -3.23046 3.31957 0
M  V30 13686 C 1280.36 -3.91604 4.18848 0
M  V30 13687 N 1279.85 -4.62418 5.15889 0
M  V30 13688 N 1281.65 -3.87974 4.06734 0
M  V30 13689 H 1273.8 -0.568165 2.0466 0
M  V30 13690 H 1276.06 -0.31328 0.89474 0
M  V30 13691 H 1275.77 -1.704 3.07663 0
M  V30 13692 H 1275.64 -3.14476 2.0829 0
M  V30 13693 H 1278.03 -2.69693 1.19791 0
M  V30 13694 H 1278.11 -1.25945 2.22647 0
M  V30 13695 H 1277.75 -2.73564 4.27931 0
M  V30 13696 H 1277.68 -4.16654 3.22035 0
M  V30 13697 H 1280.17 -2.7261 2.6171 0
M  V30 13698 H 1280.49 -5.12353 5.78545 0
M  V30 13699 H 1278.83 -4.61293 5.1984 0
M  V30 13700 H 1282.02 -3.31789 3.30202 0
M  V30 13701 H 1282.19 -4.4113 4.74666 0
M  V30 13702 N 1275.6 -0.99472 -1.22242 0
M  V30 13703 C 1277.02 -0.705762 -1.43147 0
M  V30 13704 C 1277.22 0.722908 -1.88086 0
M  V30 13705 O 1276.27 1.49359 -2.03588 0
M  V30 13706 C 1277.59 -1.71288 -2.47145 0
M  V30 13707 C 1279.13 -1.72853 -2.60942 0
M  V30 13708 C 1279.61 -2.72433 -3.68163 0
M  V30 13709 N 1281.1 -2.71039 -3.75623 0
M  V30 13710 C 1281.83 -3.44753 -4.58184 0
M  V30 13711 N 1281.33 -4.28075 -5.44724 0
M  V30 13712 N 1283.12 -3.33451 -4.52512 0
M  V30 13713 H 1275.27 -1.91738 -0.913792 0
M  V30 13714 H 1277.54 -0.82702 -0.463403 0
M  V30 13715 H 1277.24 -2.7353 -2.21075 0
M  V30 13716 H 1277.12 -1.50721 -3.45779 0
M  V30 13717 H 1279.5 -0.713085 -2.86355 0
M  V30 13718 H 1279.59 -1.9749 -1.62577 0
M  V30 13719 H 1279.23 -3.74129 -3.43497 0
M  V30 13720 H 1279.16 -2.45066 -4.66101 0
M  V30 13721 H 1281.65 -2.10581 -3.1379 0
M  V30 13722 H 1281.96 -4.81143 -6.04749 0
M  V30 13723 H 1280.31 -4.32161 -5.44299 0
M  V30 13724 H 1283.5 -2.67797 -3.8393 0
M  V30 13725 H 1283.67 -3.91158 -5.16623 0
M  V30 13726 N 1277.08 1.37613 -0.768148 0
M  V30 13727 C 1278.49 1.53202 -0.44737 0
M  V30 13728 C 1278.69 1.72736 1.03752 0
M  V30 13729 O 1277.75 1.74667 1.8234 0
M  V30 13730 C 1279.06 2.7306 -1.25931 0
M  V30 13731 C 1280.61 2.8692 -1.25084 0
M  V30 13732 C 1281.09 4.09757 -2.04605 0
M  V30 13733 N 1282.58 4.16862 -2.0194 0
M  V30 13734 C 1283.31 5.10936 -2.60254 0
M  V30 13735 N 1282.81 6.1059 -3.27341 0
M  V30 13736 N 1284.6 5.03393 -2.50104 0
M  V30 13737 H 1276.75 1.23184 -1.7303 0
M  V30 13738 H 1279.02 0.599541 -0.73434 0
M  V30 13739 H 1278.72 2.65078 -2.31141 0
M  V30 13740 H 1278.6 3.66646 -0.886036 0
M  V30 13741 H 1280.98 2.94375 -0.206736 0
M  V30 13742 H 1281.06 1.94303 -1.66373 0
M  V30 13743 H 1280.71 4.03063 -3.09035 0
M  V30 13744 H 1280.64 5.01481 -1.60701 0
M  V30 13745 H 1283.13 3.455 -1.53096 0
M  V30 13746 H 1283.44 6.78893 -3.6922 0
M  V30 13747 H 1281.79 6.10879 -3.31439 0
M  V30 13748 H 1284.98 4.24483 -1.9731 0
M  V30 13749 H 1285.15 5.76524 -2.95844 0
M  V30 13750 N 1278.56 0.518393 1.4883 0
M  V30 13751 C 1279.97 0.175476 1.58632 0
M  V30 13752 C 1280.17 -1.32081 1.52174 0
M  V30 13753 O 1279.23 -2.09817 1.40474 0
M  V30 13754 C 1280.54 0.767722 2.90734 0
M  V30 13755 C 1282.09 0.735402 3.04238 0
M  V30 13756 C 1282.56 1.30602 4.38984 0
M  V30 13757 N 1284.06 1.26748 4.45521 0
M  V30 13758 C 1284.79 1.679 5.48267 0
M  V30 13759 N 1284.29 2.16728 6.58028 0
M  V30 13760 N 1286.08 1.59209 5.39082 0
M  V30 13761 H 1278.23 1.491 1.51271 0
M  V30 13762 H 1280.49 0.619497 0.717584 0
M  V30 13763 H 1280.2 1.81777 3.01081 0
M  V30 13764 H 1280.07 0.238119 3.76448 0
M  V30 13765 H 1282.46 -0.305852 2.93511 0
M  V30 13766 H 1282.54 1.30235 2.20165 0
M  V30 13767 H 1282.19 2.34614 4.50465 0
M  V30 13768 H 1282.12 0.714858 5.21725 0
M  V30 13769 H 1284.61 0.90991 3.66782 0
M  V30 13770 H 1284.92 2.46154 7.32549 0
M  V30 13771 H 1283.26 2.20714 6.59022 0
M  V30 13772 H 1286.46 1.20869 4.52226 0
M  V30 13773 H 1286.63 1.91602 6.19025 0
M  V30 13774 N 1280.03 -1.55556 0.252993 0
M  V30 13775 C 1281.45 -1.85032 -0.249011 0
M  V30 13776 C 1281.8 -1.17488 -1.57134 0
M  V30 13777 O 1280.92 -0.455387 -2.11554 0
M  V30 13778 C 1281.52 -3.35682 -0.458589 0
M  V30 13779 C 1280.08 -3.65362 -0.90485 0
M  V30 13780 C 1279.22 -2.77296 0.0144927 0
M  V30 13781 H 1282.17 -1.51412 0.475394 0
M  V30 13782 H 1282.19 -3.57591 -1.30034 0
M  V30 13783 H 1281.71 -3.84814 0.503981 0
M  V30 13784 H 1279.81 -3.21713 -1.87967 0
M  V30 13785 H 1279.92 -4.73074 -0.757492 0
M  V30 13786 H 1278.28 -2.49785 -0.497954 0
M  V30 13787 H 1279.07 -3.29236 0.972546 0
M  V30 13788 N 1281.51 0.0200419 -1.57587 0
M  V30 13789 C 1282.76 0.707627 -1.89307 0
M  V30 13790 C 1283.08 1.7541 -0.851831 0
M  V30 13791 O 1282.35 1.95571 0.113404 0
M  V30 13792 H 1280.93 0.264349 -0.698662 0
M  V30 13793 H 1283.59 -0.0161428 -1.94893 0
M  V30 13794 H 1282.69 1.19152 -2.8846 0
M  V30 13795 N 1282.99 1.54862 0.292472 0
M  V30 13796 C 1284.24 1.74203 1.02458 0
M  V30 13797 C 1284.56 0.535398 1.87506 0
M  V30 13798 O 1283.83 -0.450164 1.90658 0
M  V30 13799 H 1282.41 0.642369 0.381276 0
M  V30 13800 H 1285.07 1.92232 0.321398 0
M  V30 13801 H 1284.17 2.63486 1.67277 0
M  V30 13802 N 1284.47 -0.556076 1.47464 0
M  V30 13803 C 1285.88 -1.1382 1.47993 0
M  V30 13804 C 1286.23 -1.94785 0.235249 0
M  V30 13805 O 1285.36 -2.06098 -0.659752 0
M  V30 13806 C 1285.95 -2.07082 2.68146 0
M  V30 13807 C 1284.51 -2.60564 2.71631 0
M  V30 13808 C 1283.66 -1.36967 2.41113 0
M  V30 13809 H 1286.61 -0.34262 1.54957 0
M  V30 13810 H 1286.63 -2.90975 2.45181 0
M  V30 13811 H 1286.14 -1.48127 3.5872 0
M  V30 13812 H 1284.24 -3.23314 1.852 0
M  V30 13813 H 1284.35 -3.0148 3.72353 0
M  V30 13814 H 1282.72 -1.67678 1.91719 0
M  V30 13815 H 1283.5 -0.79803 3.33896 0
M  V30 13816 N 1285.95 -1.35615 -0.802897 0
M  V30 13817 C 1287.17 -1.32377 -1.59659 0
M  V30 13818 C 1287.6 0.0954235 -1.87858 0
M  V30 13819 O 1286.96 1.06336 -1.46842 0
M  V30 13820 C 1287 -2.13972 -2.90256 0
M  V30 13821 O 1286.11 -1.52296 -3.83249 0
M  V30 13822 H 1285.45 -0.453699 -0.484823 0
M  V30 13823 H 1287.98 -1.78708 -0.996217 0
M  V30 13824 H 1287.99 -2.26061 -3.39647 0
M  V30 13825 H 1286.66 -3.17145 -2.69057 0
M  V30 13826 H 1285.24 -1.49068 -3.41809 0
M  V30 13827 N 1287.43 1.02549 -1.19673 0
M  V30 13828 C 1288.84 1.28271 -0.94967 0
M  V30 13829 C 1289.04 1.97961 0.37599 0
M  V30 13830 O 1288.1 2.26955 1.10668 0
M  V30 13831 C 1289.41 2.12647 -2.12607 0
M  V30 13832 C 1290.96 2.25943 -2.16607 0
M  V30 13833 C 1291.43 3.13693 -3.33708 0
M  V30 13834 N 1292.92 3.21281 -3.33665 0
M  V30 13835 C 1293.66 3.89377 -4.20919 0
M  V30 13836 N 1293.16 4.59675 -5.18334 0
M  V30 13837 N 1294.95 3.85811 -4.08786 0
M  V30 13838 H 1287.1 0.557304 -2.04958 0
M  V30 13839 H 1289.36 0.308531 -0.896389 0
M  V30 13840 H 1289.07 1.68766 -3.08563 0
M  V30 13841 H 1288.94 3.13367 -2.09955 0
M  V30 13842 H 1291.33 2.69053 -1.2122 0
M  V30 13843 H 1291.41 1.24762 -2.23311 0
M  V30 13844 H 1291.05 2.7129 -4.29376 0
M  V30 13845 H 1290.98 4.14941 -3.2424 0
M  V30 13846 H 1293.48 2.71218 -2.63152 0
M  V30 13847 H 1293.79 5.09277 -5.81254 0
M  V30 13848 H 1292.13 4.58529 -5.22279 0
M  V30 13849 H 1295.32 3.30033 -3.31957 0
M  V30 13850 H 1295.5 4.38607 -4.76999 0
M  V30 13851 N 1288.9 1.00119 1.21713 0
M  V30 13852 C 1289.87 0.563409 2.22167 0
M  V30 13853 C 1290.87 -0.35819 1.5676 0
M  V30 13854 O 1292.06 -0.149001 1.73562 0
M  V30 13855 C 1289.19 -0.179365 3.40428 0
M  V30 13856 H 1290.38 1.45189 2.62412 0
M  V30 13857 H 1287.93 0.789286 1.34907 0
M  V30 13858 H 1288.67 -1.08345 3.05666 0
M  V30 13859 H 1288.45 0.482471 3.8912 0
M  V30 13860 H 1289.94 -0.473537 4.14906 0
M  V30 13861 N 1290.38 -1.37203 0.775435 0
M  V30 13862 C 1291.31 -2.32819 0.17826 0
M  V30 13863 C 1292.29 -1.55963 -0.678944 0
M  V30 13864 O 1293.48 -1.84183 -0.615648 0
M  V30 13865 C 1290.61 -3.40198 -0.698768 0
M  V30 13866 C 1289.56 -4.27961 0.057423 0
M  V30 13867 C 1288.89 -5.26385 -0.93929 0
M  V30 13868 C 1290.19 -5.07402 1.23856 0
M  V30 13869 H 1291.88 -2.8301 0.977028 0
M  V30 13870 H 1289.43 -1.3607 0.471274 0
M  V30 13871 H 1291.38 -4.06067 -1.12637 0
M  V30 13872 H 1290.1 -2.88541 -1.53009 0
M  V30 13873 H 1288.76 -3.63628 0.465848 0
M  V30 13874 H 1288.41 -4.71007 -1.76527 0
M  V30 13875 H 1288.11 -5.85966 -0.437844 0
M  V30 13876 H 1289.64 -5.9513 -1.36576 0
M  V30 13877 H 1291.05 -5.6639 0.887423 0
M  V30 13878 H 1289.45 -5.76327 1.67234 0
M  V30 13879 H 1290.52 -4.3986 2.04085 0
M  V30 13880 N 1291.86 -0.526279 -1.48553 0
M  V30 13881 C 1292.79 0.227364 -2.3239 0
M  V30 13882 C 1293.77 0.93862 -1.41859 0
M  V30 13883 O 1294.96 0.925119 -1.70749 0
M  V30 13884 C 1292.09 1.277 -3.22971 0
M  V30 13885 C 1291.04 0.684107 -4.22497 0
M  V30 13886 C 1290.37 1.83612 -5.02186 0
M  V30 13887 C 1291.67 -0.341723 -5.21181 0
M  V30 13888 H 1293.36 -0.472486 -2.95648 0
M  V30 13889 H 1290.91 -0.228669 -1.42173 0
M  V30 13890 H 1292.86 1.81215 -3.80446 0
M  V30 13891 H 1291.58 2.00638 -2.57705 0
M  V30 13892 H 1290.24 0.170505 -3.66203 0
M  V30 13893 H 1289.89 2.55379 -4.33348 0
M  V30 13894 H 1289.59 1.44536 -5.69547 0
M  V30 13895 H 1291.11 2.37513 -5.62512 0
M  V30 13896 H 1292.53 0.106207 -5.73202 0
M  V30 13897 H 1290.92 -0.649673 -5.96573 0
M  V30 13898 H 1291.99 -1.2488 -4.68543 0
M  V30 13899 N 1293.34 1.5542 -0.261239 0
M  V30 13900 C 1294.56 2.04142 0.366144 0
M  V30 13901 C 1294.99 1.13884 1.49706 0
M  V30 13902 O 1294.35 0.134629 1.80799 0
M  V30 13903 C 1294.39 3.50733 0.837774 0
M  V30 13904 O 1293.5 3.63588 1.94621 0
M  V30 13905 H 1292.84 0.659424 0.077821 0
M  V30 13906 H 1295.37 2.0082 -0.391487 0
M  V30 13907 H 1295.38 3.91831 1.13721 0
M  V30 13908 H 1294.05 4.15899 0.0102742 0
M  V30 13909 H 1292.63 3.34391 1.65037 0
M  V30 13910 N 1294.82 -0.0116844 1.57596 0
M  V30 13911 C 1295.75 -1.00599 2.10718 0
M  V30 13912 C 1296.73 -1.36601 1.01362 0
M  V30 13913 O 1297.91 -1.4518 1.28982 0
M  V30 13914 C 1295.04 -2.30155 2.60089 0
M  V30 13915 C 1294 -2.08347 3.73866 0
M  V30 13916 C 1293.32 -3.43814 4.09507 0
M  V30 13917 C 1294.62 -1.45552 5.01609 0
M  V30 13918 H 1296.32 -0.563721 2.94045 0
M  V30 13919 H 1293.86 -0.269714 1.41452 0
M  V30 13920 H 1295.81 -3.00058 2.95877 0
M  V30 13921 H 1294.54 -2.76473 1.73868 0
M  V30 13922 H 1293.2 -1.40872 3.38453 0
M  V30 13923 H 1292.85 -3.87814 3.20326 0
M  V30 13924 H 1292.55 -3.30043 4.86154 0
M  V30 13925 H 1294.07 -4.15052 4.47844 0
M  V30 13926 H 1295.48 -2.05396 5.35243 0
M  V30 13927 H 1293.88 -1.42304 5.82983 0
M  V30 13928 H 1294.95 -0.423331 4.83049 0
M  V30 13929 N 1296.29 -1.55015 -0.284256 0
M  V30 13930 C 1297.71 -1.46603 -0.630845 0
M  V30 13931 C 1297.91 -0.67091 -1.90003 0
M  V30 13932 O 1296.97 -0.185266 -2.51819 0
M  V30 13933 C 1298.28 -2.9072 -0.768268 0
M  V30 13934 C 1299.83 -3.00866 -0.863061 0
M  V30 13935 C 1300.3 -4.46214 -1.03235 0
M  V30 13936 N 1301.79 -4.49994 -1.09815 0
M  V30 13937 C 1302.53 -5.5966 -1.24773 0
M  V30 13938 N 1302.02 -6.79215 -1.36523 0
M  V30 13939 N 1303.82 -5.4738 -1.27795 0
M  V30 13940 H 1295.97 -2.05171 0.549409 0
M  V30 13941 H 1298.23 -0.929915 0.184288 0
M  V30 13942 H 1297.94 -3.51575 0.0936899 0
M  V30 13943 H 1297.81 -3.39096 -1.65209 0
M  V30 13944 H 1300.2 -2.40114 -1.71549 0
M  V30 13945 H 1300.28 -2.5576 0.0451267 0
M  V30 13946 H 1299.92 -5.07564 -0.18462 0
M  V30 13947 H 1299.85 -4.88965 -1.95502 0
M  V30 13948 H 1302.34 -3.63869 -1.0202 0
M  V30 13949 H 1302.66 -7.58547 -1.47739 0
M  V30 13950 H 1301 -6.82048 -1.33548 0
M  V30 13951 H 1304.19 -4.52921 -1.18238 0
M  V30 13952 H 1304.37 -6.32892 -1.39109 0
M  V30 13953 N 1297.77 0.548248 -1.47757 0
M  V30 13954 C 1298.73 1.63666 -1.60456 0
M  V30 13955 C 1299.73 1.53499 -0.479028 0
M  V30 13956 O 1300.92 1.57497 -0.744342 0
M  V30 13957 C 1298.06 3.03239 -1.55754 0
M  V30 13958 H 1299.25 1.53752 -2.57488 0
M  V30 13959 H 1296.8 0.768881 -1.36081 0
M  V30 13960 H 1297.54 3.18677 -0.601303 0
M  V30 13961 H 1297.32 3.12027 -2.37448 0
M  V30 13962 H 1298.81 3.82406 -1.67797 0
M  V30 13963 N 1299.25 1.36039 0.795694 0
M  V30 13964 C 1300.5 1.30112 1.5556 0
M  V30 13965 C 1300.83 -0.121197 1.93821 0
M  V30 13966 O 1300.1 -1.07313 1.62216 0
M  V30 13967 C 1300.39 2.21792 2.8369 0
M  V30 13968 C 1300.24 3.72691 2.51836 0
M  V30 13969 C 1301.56 2.12365 3.85472 0
M  V30 13970 H 1298.68 0.473971 0.564376 0
M  V30 13971 H 1301.32 1.66536 0.91465 0
M  V30 13972 H 1299.47 1.9086 3.38386 0
M  V30 13973 H 1301.14 4.14115 2.0324 0
M  V30 13974 H 1299.38 3.92436 1.84869 0
M  V30 13975 H 1300.06 4.32242 3.43323 0
M  V30 13976 H 1302.53 2.3958 3.40207 0
M  V30 13977 H 1301.41 2.78695 4.72885 0
M  V30 13978 H 1301.67 1.10898 4.27965 0
M  V30 13979 N 1300.73 -1.01913 1.20215 0
M  V30 13980 C 1302.14 -1.27766 0.956459 0
M  V30 13981 C 1302.34 -1.98158 -0.365486 0
M  V30 13982 O 1301.4 -2.27539 -1.09463 0
M  V30 13983 C 1302.71 -2.11516 2.13732 0
M  V30 13984 C 1304.26 -2.24792 2.17802 0
M  V30 13985 C 1304.74 -3.11919 3.35367 0
M  V30 13986 N 1306.23 -3.19507 3.35364 0
M  V30 13987 C 1306.96 -3.8714 4.22978 0
M  V30 13988 N 1306.46 -4.5692 5.20765 0
M  V30 13989 N 1308.25 -3.83638 4.10827 0
M  V30 13990 H 1300.4 -0.546426 2.05251 0
M  V30 13991 H 1302.67 -0.303772 0.898012 0
M  V30 13992 H 1302.37 -1.67127 3.09453 0
M  V30 13993 H 1302.25 -3.12249 2.11614 0
M  V30 13994 H 1304.63 -2.68407 1.22645 0
M  V30 13995 H 1304.71 -1.23576 2.2397 0
M  V30 13996 H 1304.36 -2.6901 4.30809 0
M  V30 13997 H 1304.29 -4.13215 3.26436 0
M  V30 13998 H 1306.78 -2.69819 2.64587 0
M  V30 13999 H 1307.09 -5.06188 5.83947 0
M  V30 14000 H 1305.44 -4.55753 5.24704 0
M  V30 14001 H 1308.63 -3.28268 3.33703 0
M  V30 14002 H 1308.8 -4.36071 4.79318 0
M  V30 14003 N 1302.21 -1.00763 -1.2118 0
M  V30 14004 C 1303.12 -0.579646 -2.27326 0
M  V30 14005 C 1304.13 0.378592 -1.69831 0
M  V30 14006 O 1305.31 0.241772 -1.99944 0
M  V30 14007 C 1302.37 0.0843648 -3.46597 0
M  V30 14008 C 1301.43 -0.918685 -4.19355 0
M  V30 14009 C 1300.67 -0.286267 -5.32932 0
M  V30 14010 O 1300.89 0.916274 -5.62993 0
M  V30 14011 O 1299.82 -0.998513 -5.9356 0
M  V30 14012 H 1303.65 -1.46311 -2.66133 0
M  V30 14013 H 1301.24 -0.776641 -1.27627 0
M  V30 14014 H 1303.12 0.455636 -4.18929 0
M  V30 14015 H 1301.79 0.942166 -3.09685 0
M  V30 14016 H 1300.7 -1.34116 -3.49233 0
M  V30 14017 H 1302.03 -1.74616 -4.60185 0
M  V30 14018 N 1303.68 1.3679 -0.7827 0
M  V30 14019 C 1304.62 2.27871 -0.122531 0
M  V30 14020 C 1305.6 1.46885 0.697399 0
M  V30 14021 O 1306.78 1.76198 0.669819 0
M  V30 14022 C 1303.91 3.28314 0.832311 0
M  V30 14023 C 1302.95 4.26394 0.0950152 0
M  V30 14024 S 1303.79 5.2131 -1.22457 0
M  V30 14025 C 1304.94 6.25302 -0.273558 0
M  V30 14026 H 1305.17 2.83514 -0.894814 0
M  V30 14027 H 1302.71 1.43229 -0.5766 0
M  V30 14028 H 1304.67 3.86688 1.37778 0
M  V30 14029 H 1303.33 2.71597 1.57779 0
M  V30 14030 H 1302.52 4.97297 0.819278 0
M  V30 14031 H 1302.12 3.72067 -0.379778 0
M  V30 14032 H 1304.41 6.75263 0.550064 0
M  V30 14033 H 1305.36 7.01684 -0.951071 0
M  V30 14034 H 1305.76 5.64372 0.120115 0
M  V30 14035 N 1305.16 0.53415 1.48272 0
M  V30 14036 C 1306.58 0.192291 1.58437 0
M  V30 14037 C 1306.78 -1.3046 1.53566 0
M  V30 14038 O 1305.83 -2.08316 1.42692 0
M  V30 14039 C 1307.15 0.798515 2.89904 0
M  V30 14040 C 1308.7 0.76763 3.03441 0
M  V30 14041 C 1309.17 1.3525 4.37574 0
M  V30 14042 N 1310.66 1.31466 4.44152 0
M  V30 14043 C 1311.4 1.73706 5.46456 0
M  V30 14044 N 1310.89 2.23695 6.55692 0
M  V30 14045 N 1312.69 1.64918 5.37363 0
M  V30 14046 H 1304.84 1.50696 1.49681 0
M  V30 14047 H 1307.1 0.627073 0.710973 0
M  V30 14048 H 1306.81 1.8496 2.99136 0
M  V30 14049 H 1306.68 0.278033 3.76174 0
M  V30 14050 H 1309.07 -0.274704 2.93819 0
M  V30 14051 H 1309.15 1.32562 2.18771 0
M  V30 14052 H 1308.79 2.39379 4.47951 0
M  V30 14053 H 1308.72 0.770153 5.20938 0
M  V30 14054 H 1311.21 0.948761 3.65796 0
M  V30 14055 H 1311.53 2.5391 7.29897 0
M  V30 14056 H 1309.87 2.27691 6.56644 0
M  V30 14057 H 1313.06 1.25658 4.50919 0
M  V30 14058 H 1313.23 1.98157 6.16958 0
M  V30 14059 N 1306.64 -1.55279 0.269478 0
M  V30 14060 C 1307.57 -2.25278 -0.614188 0
M  V30 14061 C 1308.55 -1.24092 -1.1634 0
M  V30 14062 O 1309.74 -1.52799 -1.19858 0
M  V30 14063 C 1306.87 -2.96956 -1.80096 0
M  V30 14064 C 1305.82 -4.05021 -1.38353 0
M  V30 14065 C 1305.15 -4.64244 -2.65295 0
M  V30 14066 C 1306.45 -5.19523 -0.537886 0
M  V30 14067 H 1308.14 -2.99385 -0.0304397 0
M  V30 14068 H 1305.69 -1.43994 -0.0132004 0
M  V30 14069 H 1307.64 -3.44633 -2.42499 0
M  V30 14070 H 1306.36 -2.20374 -2.41045 0
M  V30 14071 H 1305.02 -3.58146 -0.78273 0
M  V30 14072 H 1304.67 -3.84337 -3.2449 0
M  V30 14073 H 1304.37 -5.37208 -2.38079 0
M  V30 14074 H 1305.89 -5.14668 -3.28557 0
M  V30 14075 H 1307.31 -5.63287 -1.06677 0
M  V30 14076 H 1305.71 -5.99014 -0.360845 0
M  V30 14077 H 1306.78 -4.82857 0.444672 0
M  V30 14078 N 1308.12 0.00332656 -1.576 0
M  V30 14079 C 1309.34 0.703587 -1.95101 0
M  V30 14080 C 1309.77 1.66697 -0.871418 0
M  V30 14081 O 1309.13 1.80494 0.170739 0
M  V30 14082 C 1309.17 1.41457 -3.31696 0
M  V30 14083 O 1308.28 2.52885 -3.25765 0
M  V30 14084 H 1307.62 0.187396 -0.637008 0
M  V30 14085 H 1310.15 -0.0488727 -2.04542 0
M  V30 14086 H 1310.16 1.77874 -3.67185 0
M  V30 14087 H 1308.83 0.708182 -4.09826 0
M  V30 14088 H 1307.41 2.18821 -3.01947 0
M  V30 14089 N 1309.6 1.55164 0.276031 0
M  V30 14090 C 1310.54 1.88623 1.36104 0
M  V30 14091 C 1311.54 0.762265 1.51281 0
M  V30 14092 O 1312.74 0.946573 1.53101 0
M  V30 14093 H 1309.12 0.59863 0.455133 0
M  V30 14094 H 1311.09 2.79266 1.05134 0
M  V30 14095 C 1309.84 2.17207 2.71508 0
M  V30 14096 H 1309.16 3.03179 2.6062 0
M  V30 14097 H 1310.6 2.44541 3.46375 0
M  V30 14098 C 1309.06 0.978671 3.22372 0
M  V30 14099 O 1309.59 0.211766 4.01141 0
M  V30 14100 N 1307.8 0.777199 2.80014 0
M  V30 14101 H 1307.34 1.40252 2.16072 0
M  V30 14102 H 1307.3 -0.0196754 3.14394 0
M  V30 14103 N 1311.07 -0.540404 1.48045 0
M  V30 14104 C 1312.32 -1.29422 1.55224 0
M  V30 14105 C 1312.64 -1.93716 0.223365 0
M  V30 14106 O 1311.91 -1.808 -0.754204 0
M  V30 14107 H 1310.49 -0.480658 0.571819 0
M  V30 14108 H 1313.16 -0.629712 1.84447 0
M  V30 14109 H 1312.25 -2.07897 2.32777 0
M  V30 14110 N 1312.55 -1.36459 -0.788468 0
M  V30 14111 C 1313.5 -1.30863 -1.90115 0
M  V30 14112 C 1314.47 -0.177148 -1.65153 0
M  V30 14113 O 1315.65 -0.363817 -1.87299 0
M  V30 14114 C 1312.79 -1.10473 -3.2694 0
M  V30 14115 C 1311.91 -2.32704 -3.63968 0
M  V30 14116 C 1311.04 -2.05319 -4.89916 0
M  V30 14117 C 1310.08 -3.23506 -5.19625 0
M  V30 14118 N 1309.22 -2.9578 -6.36756 0
M  V30 14119 H 1314.06 -2.26003 -1.94233 0
M  V30 14120 H 1311.6 -1.12324 -0.949827 0
M  V30 14121 H 1313.55 -0.966773 -4.05844 0
M  V30 14122 H 1312.18 -0.189873 -3.22241 0
M  V30 14123 H 1311.24 -2.573 -2.8018 0
M  V30 14124 H 1312.55 -3.20899 -3.81871 0
M  V30 14125 H 1311.7 -1.88459 -5.76687 0
M  V30 14126 H 1310.44 -1.14437 -4.74084 0
M  V30 14127 H 1309.45 -3.40924 -4.31336 0
M  V30 14128 H 1310.67 -4.15216 -5.37376 0
M  V30 14129 H 1308.62 -2.0751 -6.22315 0
M  V30 14130 H 1308.53 -3.77513 -6.54996 0
M  V30 14131 H 1309.8 -2.825 -7.26508 0
M  V30 14132 N 1314.03 1.01274 -1.20754 0
M  V30 14133 C 1314.96 2.11763 -0.983805 0
M  V30 14134 C 1315.94 1.69869 0.0885635 0
M  V30 14135 O 1317.13 1.94075 -0.0697239 0
M  V30 14136 C 1314.26 3.43087 -0.539287 0
M  V30 14137 C 1313.21 3.9874 -1.55534 0
M  V30 14138 C 1312.54 5.25877 -0.967322 0
M  V30 14139 C 1313.84 4.31688 -2.94012 0
M  V30 14140 H 1315.53 2.30737 -1.90789 0
M  V30 14141 H 1313.08 1.10884 -0.918734 0
M  V30 14142 H 1315.03 4.19773 -0.369979 0
M  V30 14143 H 1313.75 3.23883 0.420435 0
M  V30 14144 H 1312.41 3.24166 -1.71207 0
M  V30 14145 H 1312.06 5.03 0.000448307 0
M  V30 14146 H 1311.76 5.64077 -1.64594 0
M  V30 14147 H 1313.28 6.05215 -0.809167 0
M  V30 14148 H 1314.7 4.99246 -2.81827 0
M  V30 14149 H 1313.1 4.81011 -3.58815 0
M  V30 14150 H 1314.17 3.4029 -3.45442 0
M  V30 14151 N 1315.51 1.01404 1.20644 0
M  V30 14152 C 1316.74 0.719995 1.93648 0
M  V30 14153 C 1317.15 -0.722872 1.74846 0
M  V30 14154 O 1316.49 -1.50172 1.05802 0
M  V30 14155 C 1316.55 0.972637 3.46092 0
M  V30 14156 C 1316.22 2.40412 3.88653 0
M  V30 14157 C 1317.21 3.38481 3.94622 0
M  V30 14158 C 1314.9 2.74418 4.20714 0
M  V30 14159 C 1316.89 4.68619 4.32059 0
M  V30 14160 C 1314.58 4.04769 4.57826 0
M  V30 14161 C 1315.58 5.01681 4.63471 0
M  V30 14162 O 1315.27 6.297 4.99733 0
M  V30 14163 H 1315 0.263849 0.622382 0
M  V30 14164 H 1317.55 1.35741 1.54154 0
M  V30 14165 H 1315.78 0.278057 3.85699 0
M  V30 14166 H 1317.47 0.670572 4.00323 0
M  V30 14167 H 1318.24 3.13545 3.7002 0
M  V30 14168 H 1314.12 1.99675 4.15513 0
M  V30 14169 H 1317.66 5.4426 4.3638 0
M  V30 14170 H 1313.56 4.29486 4.81884 0
M  V30 14171 H 1314.32 6.3395 5.17735 0
M  V30 14172 N 1316.99 -1.36373 0.789944 0
M  V30 14173 C 1318.21 -2.04011 0.373396 0
M  V30 14174 C 1318.64 -1.59171 -1.00231 0
M  V30 14175 O 1318 -0.760431 -1.64582 0
M  V30 14176 C 1318.04 -3.5783 0.446083 0
M  V30 14177 O 1317.15 -4.08759 -0.54678 0
M  V30 14178 H 1316.49 -0.644807 0.158495 0
M  V30 14179 H 1319.02 -1.74317 1.0712 0
M  V30 14180 H 1319.03 -4.06822 0.309877 0
M  V30 14181 H 1317.7 -3.89819 1.44962 0
M  V30 14182 H 1316.28 -3.71038 -0.372192 0
M  V30 14183 N 1318.47 -0.542005 -1.47987 0
M  V30 14184 C 1319.43 0.203537 -2.28294 0
M  V30 14185 C 1320.43 0.856762 -1.36074 0
M  V30 14186 O 1321.62 0.71496 -1.58852 0
M  V30 14187 C 1318.75 1.29581 -3.15312 0
M  V30 14188 H 1319.94 -0.501701 -2.95674 0
M  V30 14189 H 1317.5 -0.298378 -1.53426 0
M  V30 14190 H 1318.23 2.03393 -2.5259 0
M  V30 14191 H 1318.02 0.832398 -3.83163 0
M  V30 14192 H 1319.51 1.81988 -3.75859 0
M  V30 14193 N 1319.94 1.55134 -0.277709 0
M  V30 14194 C 1321.19 1.99259 0.337662 0
M  V30 14195 C 1321.51 1.16755 1.56183 0
M  V30 14196 O 1320.78 0.257707 1.94198 0
M  V30 14197 H 1319.36 0.735995 0.127751 0
M  V30 14198 H 1322.02 1.91087 -0.383646 0
M  V30 14199 H 1321.12 3.05763 0.625747 0
M  V30 14200 N 1321.42 0.00503138 1.57599 0
M  V30 14201 C 1322.38 -0.969628 2.0768 0
M  V30 14202 C 1323.38 -1.26933 0.987148 0
M  V30 14203 O 1324.57 -1.21368 1.24962 0
M  V30 14204 C 1321.71 -2.29312 2.52247 0
M  V30 14205 H 1322.9 -0.536342 2.95065 0
M  V30 14206 H 1320.45 -0.242543 1.54407 0
M  V30 14207 H 1321.19 -2.7732 1.6812 0
M  V30 14208 H 1320.97 -2.08878 3.31832 0
M  V30 14209 H 1322.46 -2.99221 2.91302 0
M  V30 14210 N 1322.9 -1.55308 -0.267798 0
M  V30 14211 C 1324.15 -1.75811 -0.996734 0
M  V30 14212 C 1324.47 -0.565161 -1.8663 0
M  V30 14213 O 1323.74 0.419775 -1.9135 0
M  V30 14214 H 1322.32 -0.648353 -0.371008 0
M  V30 14215 H 1324.98 -1.92719 -0.290775 0
M  V30 14216 H 1324.08 -2.66113 -1.63064 0
M  V30 14217 N 1324.38 0.532545 -1.4833 0
M  V30 14218 C 1325.63 1.28597 -1.55908 0
M  V30 14219 C 1325.95 1.93595 -0.233635 0
M  V30 14220 O 1325.22 1.81197 0.744605 0
M  V30 14221 H 1323.8 0.477619 -0.57436 0
M  V30 14222 H 1326.46 0.619922 -1.84778 0
M  V30 14223 H 1325.55 2.0666 -2.33877 0
M  V30 14224 N 1325.86 1.36875 0.78122 0
M  V30 14225 C 1327.13 1.22101 1.52809 0
M  V30 14226 C 1327.51 -0.189402 2.10249 0
M  V30 14227 O 1326.86 -1.19598 1.94701 0
M  V30 14228 C 1327.07 2.30953 2.61652 0
M  V30 14229 C 1328.42 2.68027 3.29313 0
M  V30 14230 O 1329.44 2.30058 2.71941 0
M  V30 14231 O 1328.3 3.33407 4.33015 0
M  V30 14232 H 1325.4 0.4759 0.676349 0
M  V30 14233 H 1327.94 1.48629 0.818998 0
M  V30 14234 H 1326.71 3.25443 2.17261 0
M  V30 14235 H 1326.34 2.05837 3.40172 0
M  V30 14236 N 1327.33 -1.00632 1.21289 0
M  V30 14237 C 1328.3 -2.07543 0.972548 0
M  V30 14238 C 1329.3 -1.60703 -0.0559244 0
M  V30 14239 O 1330.49 -1.73255 0.181213 0
M  V30 14240 C 1327.62 -3.37696 0.466297 0
M  V30 14241 H 1328.81 -2.30298 1.92101 0
M  V30 14242 H 1326.36 -1.17588 1.02969 0
M  V30 14243 H 1327.1 -3.2062 -0.487148 0
M  V30 14244 H 1326.88 -3.73024 1.20813 0
M  V30 14245 H 1328.37 -4.16388 0.317962 0
M  V30 14246 N 1328.81 -1.02043 -1.20104 0
M  V30 14247 C 1330.06 -0.710566 -1.89197 0
M  V30 14248 C 1330.38 0.762471 -1.79475 0
M  V30 14249 O 1329.65 1.54871 -1.19965 0
M  V30 14250 H 1328.23 -0.259839 -0.700352 0
M  V30 14251 H 1330.89 -1.29285 -1.45848 0
M  V30 14252 H 1329.99 -0.997363 -2.95735 0
M  V30 14253 N 1330.29 1.35952 -0.797165 0
M  V30 14254 C 1331.52 2.0381 -0.38421 0
M  V30 14255 C 1331.94 1.597 0.993854 0
M  V30 14256 O 1331.3 0.769148 1.64176 0
M  V30 14257 C 1331.35 3.57589 -0.465054 0
M  V30 14258 O 1330.45 4.09043 0.525095 0
M  V30 14259 H 1329.79 0.643957 -0.161912 0
M  V30 14260 H 1332.32 1.73746 -1.08043 0
M  V30 14261 H 1332.33 4.06651 -0.331448 0
M  V30 14262 H 1331.01 3.89045 -1.47027 0
M  V30 14263 H 1329.58 3.7123 0.352509 0
M  V30 14264 N 1331.77 0.549846 1.47697 0
M  V30 14265 C 1332.73 -0.191427 2.28399 0
M  V30 14266 C 1333.73 -0.849533 1.36527 0
M  V30 14267 O 1334.92 -0.706526 1.59229 0
M  V30 14268 C 1332.05 -1.27907 3.15995 0
M  V30 14269 H 1333.25 0.517375 2.95404 0
M  V30 14270 H 1330.8 0.30651 1.53265 0
M  V30 14271 H 1331.53 -2.0205 2.53665 0
M  V30 14272 H 1331.32 -0.812066 3.83599 0
M  V30 14273 H 1332.81 -1.79992 3.76819 0
M  V30 14274 N 1333.25 -1.54984 0.285932 0
M  V30 14275 C 1334.2 -2.19645 -0.611576 0
M  V30 14276 C 1335.18 -1.16453 -1.11029 0
M  V30 14277 O 1336.37 -1.42228 -1.05357 0
M  V30 14278 C 1333.5 -2.9293 -1.79017 0
M  V30 14279 C 1332.59 -4.03421 -1.30813 0
M  V30 14280 N 1332.98 -5.02877 -0.542993 0
M  V30 14281 C 1331.28 -4.16689 -1.59016 0
M  V30 14282 C 1331.98 -5.80986 -0.288176 0
M  V30 14283 N 1330.95 -5.36695 -0.863695 0
M  V30 14284 H 1334.76 -2.93894 -0.0192813 0
M  V30 14285 H 1332.27 -1.6215 0.0899876 0
M  V30 14286 H 1334.27 -3.37709 -2.44454 0
M  V30 14287 H 1332.93 -2.20194 -2.38631 0
M  V30 14288 H 1333.94 -5.17554 -0.189305 0
M  V30 14289 H 1330.61 -3.5515 -2.19488 0
M  V30 14290 H 1332 -6.71112 0.325337 0
M  V30 14291 N 1334.72 -0.0133892 -1.57594 0
M  V30 14292 C 1335.97 0.667313 -1.90765 0
M  V30 14293 C 1336.29 1.73564 -0.888847 0
M  V30 14294 O 1335.56 1.95768 0.0718946 0
M  V30 14295 H 1334.14 0.24947 -0.704112 0
M  V30 14296 H 1336.81 -0.0574789 -1.94815 0
M  V30 14297 H 1335.9 1.13007 -2.90922 0
M  V30 14298 N 1336.2 1.55448 0.259558 0
M  V30 14299 C 1337.45 1.76337 0.987396 0
M  V30 14300 C 1337.77 0.57505 1.86328 0
M  V30 14301 O 1337.04 -0.409621 1.9157 0
M  V30 14302 H 1335.62 0.650312 0.367565 0
M  V30 14303 H 1338.28 1.9287 0.280551 0
M  V30 14304 H 1337.38 2.66975 1.61651 0
M  V30 14305 N 1337.68 -0.524672 1.4861 0
M  V30 14306 C 1339.09 -1.10655 1.50374 0
M  V30 14307 C 1339.44 -1.94242 0.276512 0
M  V30 14308 O 1338.57 -2.07451 -0.615887 0
M  V30 14309 C 1339.16 -2.01348 2.72478 0
M  V30 14310 C 1337.72 -2.54743 2.77097 0
M  V30 14311 C 1336.87 -1.31822 2.43964 0
M  V30 14312 H 1339.82 -0.309674 1.55649 0
M  V30 14313 H 1339.84 -2.85709 2.51297 0
M  V30 14314 H 1339.35 -1.40485 3.61781 0
M  V30 14315 H 1337.45 -3.19313 1.92016 0
M  V30 14316 H 1337.57 -2.93514 3.78664 0
M  V30 14317 H 1335.93 -1.63574 1.95233 0
M  V30 14318 H 1336.71 -0.727026 3.35513 0
M  V30 14319 N 1339.16 -1.37287 -0.77395 0
M  V30 14320 C 1340.09 -1.28746 -1.89624 0
M  V30 14321 C 1341.1 -0.203715 -1.6152 0
M  V30 14322 O 1342.29 -0.459684 -1.72479 0
M  V30 14323 C 1339.39 -0.967342 -3.24801 0
M  V30 14324 C 1338.57 -2.1561 -3.80567 0
M  V30 14325 C 1337.62 -1.80661 -4.94215 0
M  V30 14326 O 1336.65 -2.5293 -5.09917 0
M  V30 14327 N 1337.85 -0.749424 -5.75642 0
M  V30 14328 H 1340.62 -2.25447 -1.97468 0
M  V30 14329 H 1338.18 -1.30883 -0.952956 0
M  V30 14330 H 1340.17 -0.714421 -3.98344 0
M  V30 14331 H 1338.74 -0.0889573 -3.12473 0
M  V30 14332 H 1337.96 -2.57091 -2.98828 0
M  V30 14333 H 1339.25 -2.94993 -4.14556 0
M  V30 14334 H 1338.65 -0.149673 -5.65502 0
M  V30 14335 H 1337.2 -0.556358 -6.49421 0
M  V30 14336 N 1340.64 0.999871 -1.21821 0
M  V30 14337 C 1342.05 1.26228 -0.976664 0
M  V30 14338 C 1342.25 1.98714 0.333915 0
M  V30 14339 O 1341.31 2.29252 1.05829 0
M  V30 14340 C 1342.62 2.08089 -2.1707 0
M  V30 14341 C 1344.17 2.21298 -2.21351 0
M  V30 14342 C 1344.64 3.06544 -3.40287 0
M  V30 14343 N 1346.14 3.14131 -3.40405 0
M  V30 14344 C 1346.87 3.80362 -4.29083 0
M  V30 14345 N 1346.37 4.48577 -5.27968 0
M  V30 14346 N 1348.16 3.77053 -4.16878 0
M  V30 14347 H 1340.31 0.513704 -2.06094 0
M  V30 14348 H 1342.57 0.289447 -0.902732 0
M  V30 14349 H 1342.28 1.62183 -3.12073 0
M  V30 14350 H 1342.15 3.08843 -2.16554 0
M  V30 14351 H 1344.54 2.66422 -1.269 0
M  V30 14352 H 1344.62 1.19997 -2.25908 0
M  V30 14353 H 1344.27 2.62122 -4.35034 0
M  V30 14354 H 1344.2 4.0797 -3.32969 0
M  V30 14355 H 1346.69 2.65576 -2.68846 0
M  V30 14356 H 1347 4.96833 -5.91926 0
M  V30 14357 H 1345.34 4.47348 -5.31888 0
M  V30 14358 H 1348.54 3.22918 -3.38883 0
M  V30 14359 H 1348.71 4.2839 -4.86195 0
M  V30 14360 N 1342.11 1.02678 1.19562 0
M  V30 14361 C 1343.04 0.626359 2.24942 0
M  V30 14362 C 1344.03 -0.363612 1.66168 0
M  V30 14363 O 1345.21 -0.246793 1.92625 0
M  V30 14364 C 1342.34 -0.0257912 3.4729 0
M  V30 14365 C 1341.29 0.886237 4.18724 0
M  V30 14366 C 1340.62 0.0993081 5.34608 0
M  V30 14367 C 1341.92 2.19901 4.73752 0
M  V30 14368 H 1343.61 1.50729 2.58691 0
M  V30 14369 H 1341.16 0.726195 1.24348 0
M  V30 14370 H 1343.11 -0.317545 4.20202 0
M  V30 14371 H 1341.84 -0.941511 3.12735 0
M  V30 14372 H 1340.5 1.16215 3.47692 0
M  V30 14373 H 1340.14 -0.81838 4.96298 0
M  V30 14374 H 1339.84 0.706776 5.83334 0
M  V30 14375 H 1341.37 -0.185754 6.10317 0
M  V30 14376 H 1342.78 1.96892 5.3843 0
M  V30 14377 H 1341.18 2.75821 5.32956 0
M  V30 14378 H 1342.25 2.85509 3.91934 0
M  V30 14379 N 1343.59 -1.35528 0.804364 0
M  V30 14380 C 1344.52 -2.32388 0.227604 0
M  V30 14381 C 1345.5 -1.57368 -0.645709 0
M  V30 14382 O 1346.69 -1.85448 -0.576441 0
M  V30 14383 C 1343.82 -3.41603 -0.62645 0
M  V30 14384 C 1342.77 -4.27743 0.148187 0
M  V30 14385 C 1342.1 -5.28259 -0.827425 0
M  V30 14386 C 1343.4 -5.04661 1.34591 0
M  V30 14387 H 1345.09 -2.80874 1.03684 0
M  V30 14388 H 1342.64 -1.3504 0.500031 0
M  V30 14389 H 1344.59 -4.08365 -1.03999 0
M  V30 14390 H 1343.32 -2.91721 -1.46855 0
M  V30 14391 H 1341.97 -3.62558 0.542874 0
M  V30 14392 H 1341.62 -4.74645 -1.66496 0
M  V30 14393 H 1341.32 -5.86763 -0.313453 0
M  V30 14394 H 1342.85 -5.97893 -1.23921 0
M  V30 14395 H 1344.26 -5.6438 1.00736 0
M  V30 14396 H 1342.66 -5.7265 1.79422 0
M  V30 14397 H 1343.73 -4.35432 2.1337 0
M  V30 14398 N 1345.07 -0.557671 -1.47404 0
M  V30 14399 C 1346.35 0.031908 -1.95574 0
M  V30 14400 C 1346.73 1.48509 -1.50027 0
M  V30 14401 O 1346.08 2.16209 -0.73932 0
M  V30 14402 C 1346.29 -0.114055 -3.48814 0
M  V30 14403 C 1347.63 0.0310533 -4.24589 0
M  V30 14404 O 1348.66 -0.041626 -3.56176 0
M  V30 14405 O 1347.52 0.187487 -5.46178 0
M  V30 14406 H 1344.61 0.0638747 -0.82453 0
M  V30 14407 H 1347.16 -0.624227 -1.57802 0
M  V30 14408 H 1345.93 -1.12525 -3.74772 0
M  V30 14409 H 1345.55 0.57967 -3.93352 0
M  V30 14410 N 1346.55 1.54831 -0.294147 0
M  V30 14411 C 1347.83 1.92071 0.369902 0
M  V30 14412 C 1348.21 1.22061 1.72233 0
M  V30 14413 O 1347.55 0.353975 2.25742 0
M  V30 14414 C 1347.76 3.45524 0.49135 0
M  V30 14415 C 1349.11 4.17644 0.765411 0
M  V30 14416 O 1350.14 3.51521 0.575428 0
M  V30 14417 O 1349 5.34692 1.12992 0
M  V30 14418 H 1346.09 0.801033 0.20561 0
M  V30 14419 H 1348.64 1.66224 -0.341702 0
M  V30 14420 H 1347.41 3.88591 -0.459663 0
M  V30 14421 H 1347.03 3.77384 1.25169 0
M  V30 14422 N 1348.03 0.0217466 1.57585 0
M  V30 14423 C 1349.44 -0.51811 1.79367 0
M  V30 14424 C 1349.79 -1.72688 0.931313 0
M  V30 14425 O 1348.91 -2.15949 0.139687 0
M  V30 14426 C 1349.51 -0.946711 3.25304 0
M  V30 14427 C 1348.07 -1.43173 3.48107 0
M  V30 14428 C 1347.22 -0.392996 2.74501 0
M  V30 14429 H 1350.17 0.247822 1.56753 0
M  V30 14430 H 1350.19 -1.81152 3.34611 0
M  V30 14431 H 1349.7 -0.0667536 3.88043 0
M  V30 14432 H 1347.8 -2.33186 2.90612 0
M  V30 14433 H 1347.91 -1.44419 4.56815 0
M  V30 14434 H 1346.28 -0.859471 2.39761 0
M  V30 14435 H 1347.06 0.478368 3.39951 0
M  V30 14436 N 1349.51 -1.55583 -0.251311 0
M  V30 14437 C 1350.75 -1.76859 -0.978031 0
M  V30 14438 C 1351.07 -0.584924 -1.86021 0
M  V30 14439 O 1350.34 0.399456 -1.91784 0
M  V30 14440 H 1348.92 -0.652252 -0.364111 0
M  V30 14441 H 1351.59 -1.93016 -0.270319 0
M  V30 14442 H 1350.68 -2.67828 -1.60233 0
M  V30 14443 N 1350.98 0.516783 -1.48886 0
M  V30 14444 C 1352.39 1.09856 -1.50959 0
M  V30 14445 C 1352.75 1.94092 -0.28681 0
M  V30 14446 O 1351.87 2.07774 0.604877 0
M  V30 14447 C 1352.47 1.999 -2.73542 0
M  V30 14448 C 1351.02 2.5327 -2.78444 0
M  V30 14449 C 1350.17 1.30526 -2.44659 0
M  V30 14450 H 1353.12 0.301415 -1.55811 0
M  V30 14451 H 1353.14 2.84373 -2.52809 0
M  V30 14452 H 1352.66 1.38564 -3.62521 0
M  V30 14453 H 1350.76 3.1829 -1.93707 0
M  V30 14454 H 1350.87 2.91502 -3.80215 0
M  V30 14455 H 1349.23 1.62536 -1.96097 0
M  V30 14456 H 1350.02 0.709223 -3.35894 0
M  V30 14457 N 1352.46 1.37696 0.766659 0
M  V30 14458 C 1353.87 1.29668 1.34324 0
M  V30 14459 C 1354.22 -0.0534297 1.96127 0
M  V30 14460 O 1353.35 -0.95534 1.94171 0
M  V30 14461 C 1353.94 2.34818 2.44225 0
M  V30 14462 C 1352.5 2.3041 2.97638 0
M  V30 14463 C 1351.65 2.18378 1.70899 0
M  V30 14464 H 1354.6 1.48244 0.566526 0
M  V30 14465 H 1354.62 1.99778 3.23835 0
M  V30 14466 H 1354.13 3.3307 1.99214 0
M  V30 14467 H 1352.23 1.35698 3.47011 0
M  V30 14468 H 1352.35 3.24028 3.52906 0
M  V30 14469 H 1350.71 1.65008 1.94021 0
M  V30 14470 H 1351.49 3.18551 1.27985 0
M  V30 14471 N 1353.94 -0.993397 1.22349 0
M  V30 14472 C 1355.16 -1.77373 1.07488 0
M  V30 14473 C 1355.59 -1.84418 -0.37034 0
M  V30 14474 O 1354.95 -1.29629 -1.26752 0
M  V30 14475 C 1355 -3.18538 1.69014 0
M  V30 14476 O 1354.1 -4.01463 0.943474 0
M  V30 14477 H 1353.44 -0.546209 0.37756 0
M  V30 14478 H 1355.97 -1.24792 1.62136 0
M  V30 14479 H 1355.98 -3.6917 1.73717 0
M  V30 14480 H 1354.66 -3.12725 2.74182 0
M  V30 14481 H 1353.23 -3.59998 0.972415 0
M  V30 14482 N 1355.42 -1.03311 -1.19015 0
M  V30 14483 C 1356.67 -0.730593 -1.88432 0
M  V30 14484 C 1356.99 0.743392 -1.80274 0
M  V30 14485 O 1356.26 1.5359 -1.21601 0
M  V30 14486 H 1354.84 -0.267253 -0.697556 0
M  V30 14487 H 1357.5 -1.30824 -1.44468 0
M  V30 14488 H 1356.59 -1.02867 -2.9466 0
M  V30 14489 N 1356.9 1.35099 -0.81154 0
M  V30 14490 C 1357.86 2.28033 -0.230947 0
M  V30 14491 C 1358.86 1.49798 0.584575 0
M  V30 14492 O 1360.05 1.6949 0.402336 0
M  V30 14493 C 1357.18 3.341 0.677486 0
M  V30 14494 H 1358.37 2.80893 -1.05067 0
M  V30 14495 H 1355.93 1.45038 -0.582554 0
M  V30 14496 H 1356.66 2.86435 1.5207 0
M  V30 14497 H 1356.45 3.91986 0.0943563 0
M  V30 14498 H 1357.94 4.0345 1.07787 0
M  V30 14499 N 1358.37 0.56548 1.47106 0
M  V30 14500 C 1359.79 0.225855 1.57994 0
M  V30 14501 C 1359.99 -1.27173 1.56299 0
M  V30 14502 O 1359.05 -2.05242 1.47078 0
M  V30 14503 C 1360.36 0.859829 2.88145 0
M  V30 14504 C 1361.91 0.831821 3.01744 0
M  V30 14505 C 1362.38 1.44502 4.34607 0
M  V30 14506 N 1363.87 1.40857 4.41263 0
M  V30 14507 C 1364.61 1.85258 5.42648 0
M  V30 14508 N 1364.1 2.37553 6.508 0
M  V30 14509 N 1365.9 1.76279 5.33744 0
M  V30 14510 H 1358.05 1.53837 1.46451 0
M  V30 14511 H 1360.31 0.642013 0.697512 0
M  V30 14512 H 1360.02 1.91264 2.95146 0
M  V30 14513 H 1359.89 0.357762 3.755 0
M  V30 14514 H 1362.28 -0.212319 2.94335 0
M  V30 14515 H 1362.36 1.37173 2.1591 0
M  V30 14516 H 1362 2.48827 4.42773 0
M  V30 14517 H 1361.93 0.880479 5.19187 0
M  V30 14518 H 1364.42 1.02614 3.63702 0
M  V30 14519 H 1364.74 2.69335 7.24347 0
M  V30 14520 H 1363.08 2.41569 6.51667 0
M  V30 14521 H 1366.27 1.35195 4.48152 0
M  V30 14522 H 1366.45 2.11199 6.12616 0
M  V30 14523 N 1359.85 -1.54672 0.302354 0
M  V30 14524 C 1361.26 -1.85731 -0.190019 0
M  V30 14525 C 1361.61 -1.22427 -1.53317 0
M  V30 14526 O 1360.74 -0.522461 -2.09998 0
M  V30 14527 C 1361.33 -3.36971 -0.351562 0
M  V30 14528 C 1359.89 -3.68056 -0.788155 0
M  V30 14529 C 1359.04 -2.7711 0.102705 0
M  V30 14530 H 1361.99 -1.49823 0.523324 0
M  V30 14531 H 1362.01 -3.61547 -1.18592 0
M  V30 14532 H 1361.52 -3.83016 0.626152 0
M  V30 14533 H 1359.63 -3.2753 -1.77637 0
M  V30 14534 H 1359.74 -4.75244 -0.606604 0
M  V30 14535 H 1358.1 -2.51243 -0.418235 0
M  V30 14536 H 1358.89 -3.25975 1.0768 0
M  V30 14537 N 1361.33 -0.0301034 -1.57571 0
M  V30 14538 C 1362.29 0.936465 -2.09196 0
M  V30 14539 C 1363.29 1.25347 -1.00722 0
M  V30 14540 O 1364.48 1.19364 -1.26877 0
M  V30 14541 C 1361.62 2.2527 -2.55864 0
M  V30 14542 H 1362.81 0.489332 -2.95881 0
M  V30 14543 H 1360.36 0.217948 -1.54773 0
M  V30 14544 H 1361.1 2.7461 -1.72511 0
M  V30 14545 H 1360.88 2.03573 -3.35113 0
M  V30 14546 H 1362.37 2.94549 -2.96025 0
M  V30 14547 N 1362.81 1.55714 0.243056 0
M  V30 14548 C 1363.77 1.89832 1.28438 0
M  V30 14549 C 1364.77 0.775083 1.40887 0
M  V30 14550 O 1365.96 1.04304 1.39521 0
M  V30 14551 C 1363.09 2.13016 2.66153 0
M  V30 14552 H 1364.29 2.82947 0.994022 0
M  V30 14553 H 1361.84 1.48665 0.482521 0
M  V30 14554 H 1362.57 1.22381 3.00322 0
M  V30 14555 H 1362.36 2.94824 2.58498 0
M  V30 14556 H 1363.85 2.40581 3.41336 0
M  V30 14557 N 1364.29 -0.50888 1.49158 0
M  V30 14558 C 1365.7 -1.09054 1.51539 0
M  V30 14559 C 1366.05 -1.93938 0.297099 0
M  V30 14560 O 1365.17 -2.08092 -0.593849 0
M  V30 14561 C 1365.77 -1.98447 2.74599 0
M  V30 14562 C 1364.33 -2.5179 2.79783 0
M  V30 14563 C 1363.47 -1.29227 2.45348 0
M  V30 14564 H 1366.43 -0.293148 1.55969 0
M  V30 14565 H 1366.45 -2.83028 2.54314 0
M  V30 14566 H 1365.96 -1.3664 3.63251 0
M  V30 14567 H 1364.06 -3.17258 1.95392 0
M  V30 14568 H 1364.17 -2.89481 3.81756 0
M  V30 14569 H 1362.54 -1.61494 1.96957 0
M  V30 14570 H 1363.32 -0.6914 3.36266 0
M  V30 14571 N 1365.76 -1.381 -0.759346 0
M  V30 14572 C 1366.99 -1.37213 -1.54855 0
M  V30 14573 C 1367.41 0.0395175 -1.88759 0
M  V30 14574 O 1366.76 1.00462 -1.5236 0
M  V30 14575 C 1366.82 -2.22232 -2.85123 0
M  V30 14576 O 1366.54 -3.57897 -2.52668 0
M  V30 14577 C 1368.04 -2.29461 -3.79292 0
M  V30 14578 H 1365.26 -0.469542 -0.479345 0
M  V30 14579 H 1367.8 -1.81604 -0.940216 0
M  V30 14580 H 1365.96 -1.81317 -3.42349 0
M  V30 14581 H 1366.37 -4.02599 -3.36176 0
M  V30 14582 H 1367.84 -2.93246 -4.67665 0
M  V30 14583 H 1368.32 -1.3066 -4.19315 0
M  V30 14584 H 1368.93 -2.70741 -3.27993 0
M  V30 14585 N 1367.24 0.986894 -1.22875 0
M  V30 14586 C 1368.65 1.54182 -1.05284 0
M  V30 14587 C 1369 1.92448 0.381856 0
M  V30 14588 O 1368.13 1.75381 1.26769 0
M  V30 14589 C 1368.72 2.80173 -1.90496 0
M  V30 14590 C 1367.28 3.32088 -1.77185 0
M  V30 14591 C 1366.43 2.05128 -1.86596 0
M  V30 14592 H 1369.38 0.807304 -1.36632 0
M  V30 14593 H 1369.4 3.52772 -1.42591 0
M  V30 14594 H 1368.91 2.52291 -2.94908 0
M  V30 14595 H 1367.02 3.64864 -0.755295 0
M  V30 14596 H 1367.13 4.02285 -2.60199 0
M  V30 14597 H 1365.49 2.18964 -1.30103 0
M  V30 14598 H 1366.28 1.79635 -2.92551 0
M  V30 14599 N 1368.72 1.0394 1.18466 0
M  V30 14600 C 1369.96 0.750905 1.90107 0
M  V30 14601 C 1370.32 -0.708278 1.78458 0
M  V30 14602 O 1371.53 -1.11033 2.44796 0
M  V30 14603 C 1369.8 1.20259 3.3656 0
M  V30 14604 S 1371.36 1.03954 4.26308 0
M  V30 14605 H 1368.17 0.273061 0.656475 0
M  V30 14606 H 1370.78 1.33143 1.43154 0
M  V30 14607 H 1369.48 2.26 3.42567 0
M  V30 14608 H 1369.01 0.615804 3.8855 0
M  V30 14609 H 1371.03 -0.0437629 4.96181 0
M  V30 14610 N 1370.2 -1.34667 0.818693 0
M  V30 14611 C 1371.43 -2.02642 0.417608 0
M  V30 14612 C 1371.84 -1.61667 -0.97516 0
M  V30 14613 O 1371.2 -0.820056 -1.63038 0
M  V30 14614 C 1371.25 -3.57951 0.505295 0
M  V30 14615 O 1370.97 -3.97441 1.84317 0
M  V30 14616 C 1372.47 -4.4319 0.0985667 0
M  V30 14617 H 1369.69 -0.6496 0.168111 0
M  V30 14618 H 1372.24 -1.72032 1.10568 0
M  V30 14619 H 1370.39 -3.87166 -0.134646 0
M  V30 14620 H 1370.8 -4.92116 1.81444 0
M  V30 14621 H 1372.28 -5.51597 0.211015 0
M  V30 14622 H 1372.76 -4.28637 -0.95745 0
M  V30 14623 H 1373.36 -4.19295 0.71214 0
M  V30 14624 N 1371.68 -0.573274 -1.46804 0
M  V30 14625 C 1372.63 0.186085 -2.27239 0
M  V30 14626 C 1373.61 0.870579 -1.35313 0
M  V30 14627 O 1374.8 0.766233 -1.59555 0
M  V30 14628 C 1371.93 1.2052 -3.21449 0
M  V30 14629 C 1371.02 0.523305 -4.20859 0
M  V30 14630 N 1371.41 -0.415768 -5.04088 0
M  V30 14631 C 1369.71 0.775236 -4.39211 0
M  V30 14632 C 1370.41 -0.81341 -5.75985 0
M  V30 14633 N 1369.38 -0.164647 -5.43351 0
M  V30 14634 H 1373.19 -0.535687 -2.88977 0
M  V30 14635 H 1370.7 -0.394373 -1.57539 0
M  V30 14636 H 1372.7 1.76331 -3.77774 0
M  V30 14637 H 1371.36 1.9279 -2.61271 0
M  V30 14638 H 1372.37 -0.790798 -5.11827 0
M  V30 14639 H 1369.04 1.48522 -3.90189 0
M  V30 14640 H 1370.43 -1.58598 -6.52914 0
M  V30 14641 N 1373.15 1.5451 -0.310553 0
M  V30 14642 C 1374.4 2.00623 0.296343 0
M  V30 14643 C 1374.73 1.19855 1.52802 0
M  V30 14644 O 1374.01 0.277468 1.92511 0
M  V30 14645 C 1374.29 3.54305 0.643448 0
M  V30 14646 C 1374.14 4.45807 -0.598029 0
M  V30 14647 C 1375.46 4.14958 1.46623 0
M  V30 14648 H 1372.58 0.729303 0.106236 0
M  V30 14649 H 1375.22 1.85196 -0.424549 0
M  V30 14650 H 1373.37 3.67581 1.25762 0
M  V30 14651 H 1375.05 4.44421 -1.23643 0
M  V30 14652 H 1373.29 4.16014 -1.22944 0
M  V30 14653 H 1373.96 5.51124 -0.310883 0
M  V30 14654 H 1376.44 4.05176 0.947199 0
M  V30 14655 H 1375.31 5.22627 1.67787 0
M  V30 14656 H 1375.57 3.67445 2.45839 0
M  V30 14657 N 1374.63 0.0384594 1.57553 0
M  V30 14658 C 1376.05 -0.318006 1.564 0
M  V30 14659 C 1376.25 -1.72287 1.04496 0
M  V30 14660 O 1375.31 -2.42722 0.695861 0
M  V30 14661 C 1376.62 -0.158079 3.00284 0
M  V30 14662 C 1378.17 -0.230143 3.12153 0
M  V30 14663 C 1378.64 -0.0988948 4.57893 0
M  V30 14664 N 1380.13 -0.15558 4.62939 0
M  V30 14665 C 1380.87 -0.077948 5.73347 0
M  V30 14666 N 1380.36 0.0513054 6.92781 0
M  V30 14667 N 1382.16 -0.132612 5.61944 0
M  V30 14668 H 1374.31 0.957014 1.89618 0
M  V30 14669 H 1376.57 0.370396 0.872646 0
M  V30 14670 H 1376.28 0.810032 3.42245 0
M  V30 14671 H 1376.15 -0.924413 3.65697 0
M  V30 14672 H 1378.54 -1.18872 2.70099 0
M  V30 14673 H 1378.62 0.56673 2.49443 0
M  V30 14674 H 1378.26 0.856301 5.00629 0
M  V30 14675 H 1378.19 -0.91475 5.18594 0
M  V30 14676 H 1380.68 -0.255245 3.77037 0
M  V30 14677 H 1381 0.103595 7.72731 0
M  V30 14678 H 1379.34 0.0862166 6.94947 0
M  V30 14679 H 1382.53 -0.232056 4.67524 0
M  V30 14680 H 1382.71 -0.0686506 6.47964 0
M  V30 14681 N 1376.11 -1.55841 -0.234795 0
M  V30 14682 C 1377.36 -1.78502 -0.96254 0
M  V30 14683 C 1377.69 -0.605832 -1.84508 0
M  V30 14684 O 1376.97 0.395446 -1.90438 0
M  V30 14685 C 1377.25 -3.11144 -1.81277 0
M  V30 14686 C 1377.1 -4.39488 -0.957607 0
M  V30 14687 C 1378.42 -3.40114 -2.79304 0
M  V30 14688 H 1375.54 -0.649397 -0.348501 0
M  V30 14689 H 1378.18 -1.88575 -0.23224 0
M  V30 14690 H 1376.33 -3.02687 -2.43542 0
M  V30 14691 H 1378 -4.59949 -0.352726 0
M  V30 14692 H 1376.25 -4.33005 -0.262454 0
M  V30 14693 H 1376.92 -5.28707 -1.58659 0
M  V30 14694 H 1379.39 -3.48612 -2.27175 0
M  V30 14695 H 1378.27 -4.34118 -3.35906 0
M  V30 14696 H 1378.53 -2.61623 -3.56378 0
M  V30 14697 N 1377.59 0.500963 -1.49426 0
M  V30 14698 C 1378.83 1.26526 -1.60532 0
M  V30 14699 C 1379.19 1.89864 -0.28562 0
M  V30 14700 O 1380.39 2.67422 -0.271868 0
M  V30 14701 C 1378.67 2.30375 -2.73244 0
M  V30 14702 S 1380.22 3.16143 -3.04301 0
M  V30 14703 H 1377.04 0.429994 -0.566238 0
M  V30 14704 H 1379.64 0.567427 -1.87084 0
M  V30 14705 H 1378.35 1.82373 -3.67652 0
M  V30 14706 H 1377.88 3.04827 -2.48685 0
M  V30 14707 H 1379.89 4.31027 -2.45826 0
M  V30 14708 N 1379.07 1.38501 0.752011 0
M  V30 14709 C 1380 1.31746 1.87551 0
M  V30 14710 C 1381.01 0.229386 1.61176 0
M  V30 14711 O 1382.2 0.487066 1.71726 0
M  V30 14712 C 1379.3 1.01889 3.23221 0
M  V30 14713 C 1378.47 2.21637 3.77088 0
M  V30 14714 C 1377.53 1.885 4.91278 0
M  V30 14715 O 1376.56 2.61011 5.05828 0
M  V30 14716 N 1377.76 0.840909 5.74377 0
M  V30 14717 H 1380.53 2.28561 1.93856 0
M  V30 14718 H 1378.09 1.32383 0.932013 0
M  V30 14719 H 1380.08 0.777704 3.97157 0
M  V30 14720 H 1378.65 0.138658 3.12292 0
M  V30 14721 H 1377.87 2.61812 2.947 0
M  V30 14722 H 1379.16 3.01551 4.0981 0
M  V30 14723 H 1378.56 0.23962 5.65192 0
M  V30 14724 H 1377.11 0.659604 6.48454 0
M  V30 14725 N 1380.55 -0.980364 1.23396 0
M  V30 14726 C 1381.46 -2.10688 1.03188 0
M  V30 14727 C 1382.47 -1.73984 -0.0236159 0
M  V30 14728 O 1383.65 -2.00666 0.171841 0
M  V30 14729 C 1380.71 -3.4101 0.625563 0
M  V30 14730 C 1379.77 -3.91739 1.75611 0
M  V30 14731 C 1379.01 -5.15841 1.36908 0
M  V30 14732 O 1379.23 -5.69837 0.253329 0
M  V30 14733 O 1378.16 -5.60638 2.19018 0
M  V30 14734 H 1381.99 -2.30626 1.97599 0
M  V30 14735 H 1379.57 -1.09067 1.02102 0
M  V30 14736 H 1381.46 -4.19402 0.409909 0
M  V30 14737 H 1380.13 -3.22402 -0.28956 0
M  V30 14738 H 1379.04 -3.14464 2.0264 0
M  V30 14739 H 1380.37 -4.14801 2.64955 0
M  V30 14740 N 1382.02 -1.04567 -1.17913 0
M  V30 14741 C 1383.26 -0.760977 -1.89706 0
M  V30 14742 C 1383.63 0.698804 -1.78832 0
M  V30 14743 O 1384.83 1.09733 -2.45382 0
M  V30 14744 C 1383.1 -1.22042 -3.35917 0
M  V30 14745 S 1384.66 -1.06214 -4.25751 0
M  V30 14746 H 1381.48 -0.276538 -0.655017 0
M  V30 14747 H 1384.08 -1.339 -1.42446 0
M  V30 14748 H 1382.78 -2.27813 -3.41364 0
M  V30 14749 H 1382.31 -0.636401 -3.88218 0
M  V30 14750 H 1384.33 0.0174486 -4.96197 0
M  V30 14751 N 1383.5 1.34231 -0.825823 0
M  V30 14752 C 1384.92 1.51166 -0.511945 0
M  V30 14753 C 1385.12 1.76981 0.963318 0
M  V30 14754 O 1384.17 1.82243 1.74767 0
M  V30 14755 C 1385.49 2.67474 -1.37399 0
M  V30 14756 C 1387.03 2.81356 -1.37141 0
M  V30 14757 C 1387.51 4.0071 -2.218 0
M  V30 14758 N 1389 4.07922 -2.19439 0
M  V30 14759 C 1389.74 4.99438 -2.81691 0
M  V30 14760 N 1389.23 5.96157 -3.52944 0
M  V30 14761 N 1391.02 4.92332 -2.7123 0
M  V30 14762 H 1383.18 1.15734 -1.78099 0
M  V30 14763 H 1385.44 0.567856 -0.759107 0
M  V30 14764 H 1385.14 2.55036 -2.42176 0
M  V30 14765 H 1385.02 3.62558 -1.04075 0
M  V30 14766 H 1387.41 2.93233 -0.331405 0
M  V30 14767 H 1387.49 1.87072 -1.74464 0
M  V30 14768 H 1387.13 3.89593 -3.25852 0
M  V30 14769 H 1387.06 4.94213 -1.81826 0
M  V30 14770 H 1389.55 3.38695 -1.67612 0
M  V30 14771 H 1389.86 6.62623 -3.97682 0
M  V30 14772 H 1388.21 5.96272 -3.5705 0
M  V30 14773 H 1391.4 4.15733 -2.15137 0
M  V30 14774 H 1391.57 5.63458 -3.20031 0
M  V30 14775 N 1384.98 0.581051 1.46498 0
M  V30 14776 C 1386.4 0.242599 1.57745 0
M  V30 14777 C 1386.6 -1.25508 1.57639 0
M  V30 14778 O 1385.65 -2.0367 1.49247 0
M  V30 14779 C 1386.96 0.890342 2.87217 0
M  V30 14780 C 1388.51 0.863778 3.00845 0
M  V30 14781 C 1388.99 1.49103 4.3305 0
M  V30 14782 N 1390.48 1.4553 4.39745 0
M  V30 14783 C 1391.21 1.91003 5.40653 0
M  V30 14784 N 1390.71 2.44442 6.48244 0
M  V30 14785 N 1392.5 1.8193 5.31844 0
M  V30 14786 H 1384.65 1.55382 1.44811 0
M  V30 14787 H 1386.92 0.649375 0.690664 0
M  V30 14788 H 1386.62 1.94383 2.93101 0
M  V30 14789 H 1386.5 0.397569 3.75099 0
M  V30 14790 H 1388.88 -0.181089 2.94544 0
M  V30 14791 H 1388.96 1.39455 2.14443 0
M  V30 14792 H 1388.61 2.53509 4.40109 0
M  V30 14793 H 1388.54 0.935496 5.18224 0
M  V30 14794 H 1391.03 1.06466 3.62593 0
M  V30 14795 H 1391.34 2.77002 7.2145 0
M  V30 14796 H 1389.69 2.48467 6.49068 0
M  V30 14797 H 1392.88 1.3994 4.46693 0
M  V30 14798 H 1393.05 2.17685 6.10342 0
M  V30 14799 N 1386.46 -1.54343 0.318742 0
M  V30 14800 C 1387.71 -1.9966 -0.286146 0
M  V30 14801 C 1388.02 -1.21073 -1.53625 0
M  V30 14802 O 1389.23 -1.56744 -2.21684 0
M  V30 14803 C 1387.68 -3.5551 -0.560405 0
M  V30 14804 C 1387.29 -4.42926 0.672373 0
M  V30 14805 C 1389.03 -4.09307 -1.12551 0
M  V30 14806 C 1386.94 -5.9024 0.370285 0
M  V30 14807 H 1385.87 -0.74583 -0.110698 0
M  V30 14808 H 1388.52 -1.78386 0.430215 0
M  V30 14809 H 1386.9 -3.72753 -1.33683 0
M  V30 14810 H 1388.08 -4.37458 1.448 0
M  V30 14811 H 1386.39 -3.99993 1.15736 0
M  V30 14812 H 1388.99 -5.16955 -1.36607 0
M  V30 14813 H 1389.33 -3.60994 -2.07338 0
M  V30 14814 H 1389.87 -3.95677 -0.410385 0
M  V30 14815 H 1386.6 -6.42738 1.28719 0
M  V30 14816 H 1386.12 -5.98672 -0.367731 0
M  V30 14817 H 1387.8 -6.46996 -0.0216582 0
M  V30 14818 N 1387.94 -0.0468143 -1.5753 0
M  V30 14819 C 1388.87 0.958157 -2.08211 0
M  V30 14820 C 1389.88 1.27757 -1.00906 0
M  V30 14821 O 1391.07 1.23913 -1.28483 0
M  V30 14822 C 1388.17 2.28088 -2.50657 0
M  V30 14823 C 1387.34 2.14403 -3.81248 0
M  V30 14824 C 1386.4 3.29761 -4.10054 0
M  V30 14825 O 1385.43 3.05859 -4.8004 0
M  V30 14826 N 1386.63 4.54104 -3.61621 0
M  V30 14827 H 1389.39 0.525612 -2.95055 0
M  V30 14828 H 1386.96 0.139532 -1.61298 0
M  V30 14829 H 1388.95 3.04121 -2.67007 0
M  V30 14830 H 1387.52 2.62924 -1.69085 0
M  V30 14831 H 1386.74 1.22988 -3.74523 0
M  V30 14832 H 1388.03 2.02482 -4.66775 0
M  V30 14833 H 1387.42 4.76414 -3.05034 0
M  V30 14834 H 1385.98 5.27246 -3.83217 0
M  V30 14835 N 1389.41 1.55964 0.226527 0
M  V30 14836 C 1390.38 1.91184 1.26418 0
M  V30 14837 C 1391.38 0.789982 1.40057 0
M  V30 14838 O 1392.57 1.05778 1.38407 0
M  V30 14839 C 1389.7 2.15826 2.63878 0
M  V30 14840 H 1390.89 2.83986 0.963956 0
M  V30 14841 H 1388.45 1.49169 0.466726 0
M  V30 14842 H 1389.18 1.2556 2.99007 0
M  V30 14843 H 1388.97 2.97549 2.55356 0
M  V30 14844 H 1390.46 2.44188 3.38765 0
M  V30 14845 N 1390.89 -0.493031 1.4969 0
M  V30 14846 C 1391.82 -1.60215 1.69863 0
M  V30 14847 C 1392.8 -1.61053 0.547362 0
M  V30 14848 O 1393.99 -1.77667 0.784093 0
M  V30 14849 C 1391.12 -2.98662 1.77252 0
M  V30 14850 C 1390.07 -3.1269 2.92248 0
M  V30 14851 C 1389.4 -4.52567 2.84758 0
M  V30 14852 C 1390.7 -2.91965 4.33074 0
M  V30 14853 H 1392.39 -1.43587 2.62723 0
M  V30 14854 H 1389.94 -0.689334 1.26429 0
M  V30 14855 H 1391.89 -3.7616 1.89951 0
M  V30 14856 H 1390.62 -3.16397 0.809976 0
M  V30 14857 H 1389.27 -2.37619 2.79164 0
M  V30 14858 H 1388.92 -4.6719 1.86394 0
M  V30 14859 H 1388.62 -4.62893 3.61944 0
M  V30 14860 H 1390.15 -5.32116 2.99475 0
M  V30 14861 H 1391.56 -3.59228 4.46798 0
M  V30 14862 H 1389.96 -3.13756 5.11544 0
M  V30 14863 H 1391.03 -1.88015 4.46966 0
M  V30 14864 N 1392.37 -1.38898 -0.744656 0
M  V30 14865 C 1393.79 -1.20291 -1.04892 0
M  V30 14866 C 1393.99 -0.0577705 -2.01417 0
M  V30 14867 O 1393.04 0.593638 -2.45422 0
M  V30 14868 C 1394.36 -2.53302 -1.62045 0
M  V30 14869 C 1395.9 -2.60063 -1.74173 0
M  V30 14870 C 1396.38 -3.93272 -2.34736 0
M  V30 14871 N 1397.87 -3.9486 -2.42157 0
M  V30 14872 C 1398.6 -4.94698 -2.89933 0
M  V30 14873 N 1398.1 -6.04934 -3.37678 0
M  V30 14874 N 1399.89 -4.82083 -2.89055 0
M  V30 14875 H 1392.04 -2.12144 -0.104294 0
M  V30 14876 H 1394.31 -0.941725 -0.108895 0
M  V30 14877 H 1394.01 -3.376 -0.985868 0
M  V30 14878 H 1393.89 -2.72335 -2.60986 0
M  V30 14879 H 1396.27 -1.76155 -2.36756 0
M  V30 14880 H 1396.36 -2.44889 -0.739115 0
M  V30 14881 H 1396 -4.77607 -1.72784 0
M  V30 14882 H 1395.93 -4.05762 -3.35656 0
M  V30 14883 H 1398.42 -3.15243 -2.08399 0
M  V30 14884 H 1398.73 -6.77036 -3.72616 0
M  V30 14885 H 1397.08 -6.08541 -3.35712 0
M  V30 14886 H 1400.27 -3.9507 -2.51072 0
M  V30 14887 H 1400.44 -5.60039 -3.25975 0
M  V30 14888 N 1393.85 0.973806 -1.23914 0
M  V30 14889 C 1394.81 2.04892 -1.02723 0
M  V30 14890 C 1395.81 1.60795 0.0132972 0
M  V30 14891 O 1397 1.72714 -0.227084 0
M  V30 14892 C 1394.13 3.36341 -0.555667 0
M  V30 14893 H 1395.33 2.25124 -1.98139 0
M  V30 14894 H 1392.88 1.14817 -1.06051 0
M  V30 14895 H 1393.61 3.21799 0.40197 0
M  V30 14896 H 1393.4 3.69689 -1.30661 0
M  V30 14897 H 1394.89 4.15398 -0.428248 0
M  V30 14898 N 1395.33 1.05191 1.17357 0
M  V30 14899 C 1396.55 0.782343 1.92079 0
M  V30 14900 C 1396.98 -0.655957 1.76292 0
M  V30 14901 O 1396.33 -1.45573 1.08065 0
M  V30 14902 C 1396.38 1.16777 3.41168 0
M  V30 14903 O 1395.49 0.299908 4.11308 0
M  V30 14904 H 1394.83 0.286894 0.598822 0
M  V30 14905 H 1397.36 1.40476 1.48754 0
M  V30 14906 H 1397.37 1.13454 3.91909 0
M  V30 14907 H 1396.04 2.2155 3.51978 0
M  V30 14908 H 1394.62 0.393744 3.70815 0
M  V30 14909 N 1396.8 -1.33791 0.83293 0
M  V30 14910 C 1398.05 -1.97582 0.42494 0
M  V30 14911 C 1398.37 -1.66328 -1.01784 0
M  V30 14912 O 1397.64 -0.959141 -1.70814 0
M  V30 14913 H 1396.22 -0.730923 0.154143 0
M  V30 14914 H 1398.89 -1.63257 1.06458 0
M  V30 14915 H 1397.98 -3.07177 0.552127 0
M  V30 14916 N 1398.28 -0.588812 -1.46187 0
M  V30 14917 C 1399.25 0.130803 -2.28826 0
M  V30 14918 C 1400.25 0.813037 -1.38731 0
M  V30 14919 O 1401.44 0.664061 -1.61046 0
M  V30 14920 C 1398.57 1.19484 -3.19275 0
M  V30 14921 H 1399.76 -0.595514 -2.93928 0
M  V30 14922 H 1397.31 -0.347038 -1.52399 0
M  V30 14923 H 1398.05 1.95254 -2.58933 0
M  V30 14924 H 1397.83 0.710077 -3.85617 0
M  V30 14925 H 1399.32 1.69938 -3.81459 0
M  V30 14926 N 1399.76 1.54172 -0.326923 0
M  V30 14927 C 1401.01 2.00233 0.274098 0
M  V30 14928 C 1401.33 1.21665 1.5239 0
M  V30 14929 O 1400.6 0.319359 1.93279 0
M  V30 14930 H 1399.18 0.739687 0.104271 0
M  V30 14931 H 1401.84 1.8977 -0.444244 0
M  V30 14932 H 1400.94 3.07599 0.528154 0
M  V30 14933 N 1401.24 0.0551678 1.57503 0
M  V30 14934 C 1402.2 -0.903065 2.10659 0
M  V30 14935 C 1403.2 -1.23728 1.02703 0
M  V30 14936 O 1404.39 -1.17331 1.2876 0
M  V30 14937 C 1401.52 -2.21171 2.59415 0
M  V30 14938 H 1402.72 -0.442197 2.96622 0
M  V30 14939 H 1400.27 -0.193297 1.551 0
M  V30 14940 H 1401 -2.71831 1.76858 0
M  V30 14941 H 1400.79 -1.98216 3.38309 0
M  V30 14942 H 1402.28 -2.89802 3.00674 0
M  V30 14943 N 1402.72 -1.56081 -0.218252 0
M  V30 14944 C 1404.13 -1.69397 -0.784964 0
M  V30 14945 C 1404.48 -0.65775 -1.84846 0
M  V30 14946 O 1403.6 0.190478 -2.1556 0
M  V30 14947 C 1404.2 -3.07114 -1.4306 0
M  V30 14948 C 1402.76 -3.22273 -1.94466 0
M  V30 14949 C 1401.9 -2.65327 -0.80604 0
M  V30 14950 H 1404.86 -1.58699 0.0064566 0
M  V30 14951 H 1404.88 -3.03156 -2.2995 0
M  V30 14952 H 1404.39 -3.8251 -0.656335 0
M  V30 14953 H 1402.49 -2.51752 -2.74684 0
M  V30 14954 H 1402.6 -4.29526 -2.12237 0
M  V30 14955 H 1400.97 -2.23894 -1.21423 0
M  V30 14956 H 1401.75 -3.43271 -0.0443928 0
M  V30 14957 N 1404.2 0.485086 -1.49949 0
M  V30 14958 C 1405.61 1.06629 -1.53255 0
M  V30 14959 C 1405.96 1.9344 -0.327915 0
M  V30 14960 O 1405.08 2.09011 0.560669 0
M  V30 14961 C 1405.68 1.94053 -2.77721 0
M  V30 14962 C 1404.24 2.47307 -2.83754 0
M  V30 14963 C 1403.38 1.25307 -2.47373 0
M  V30 14964 H 1406.33 0.268297 -1.56416 0
M  V30 14965 H 1406.36 2.78946 -2.58784 0
M  V30 14966 H 1405.87 1.30843 -3.65379 0
M  V30 14967 H 1403.97 3.1411 -2.00414 0
M  V30 14968 H 1404.08 2.83371 -3.86313 0
M  V30 14969 H 1402.45 1.5834 -1.99501 0
M  V30 14970 H 1403.23 0.637815 -3.37323 0
M  V30 14971 N 1405.67 1.39291 0.737279 0
M  V30 14972 C 1407.09 1.20845 1.04253 0
M  V30 14973 C 1407.29 0.0684513 2.01384 0
M  V30 14974 O 1406.35 -0.580615 2.45734 0
M  V30 14975 C 1407.66 2.54158 1.60699 0
M  V30 14976 C 1409.21 2.60983 1.72791 0
M  V30 14977 C 1409.68 3.94511 2.32647 0
M  V30 14978 N 1411.17 3.96138 2.4006 0
M  V30 14979 C 1411.91 4.96229 2.87306 0
M  V30 14980 N 1411.4 6.06716 3.34465 0
M  V30 14981 N 1413.2 4.83609 2.86494 0
M  V30 14982 H 1405.35 2.12196 0.0930416 0
M  V30 14983 H 1407.61 0.942289 0.103899 0
M  V30 14984 H 1407.32 3.38118 0.96795 0
M  V30 14985 H 1407.19 2.73715 2.59538 0
M  V30 14986 H 1409.58 1.77408 2.35818 0
M  V30 14987 H 1409.66 2.45278 0.726118 0
M  V30 14988 H 1409.3 4.78516 1.70249 0
M  V30 14989 H 1409.23 4.07536 3.33499 0
M  V30 14990 H 1411.72 3.16344 2.06725 0
M  V30 14991 H 1412.04 6.79002 3.6902 0
M  V30 14992 H 1410.38 6.10313 3.3248 0
M  V30 14993 H 1413.57 3.96396 2.48973 0
M  V30 14994 H 1413.75 5.6176 3.23001 0
M  V30 14995 N 1407.15 -0.967221 1.24429 0
M  V30 14996 C 1408.4 -1.70688 1.08213 0
M  V30 14997 C 1408.72 -1.91268 -0.379693 0
M  V30 14998 O 1407.99 -1.49077 -1.27094 0
M  V30 14999 H 1406.57 -0.632489 0.39745 0
M  V30 15000 H 1409.23 -1.16356 1.56356 0
M  V30 15001 H 1408.33 -2.69119 1.58055 0
M  V30 15002 N 1408.63 -1.05812 -1.16797 0
M  V30 15003 C 1409.56 -0.685778 -2.23202 0
M  V30 15004 C 1410.54 0.319428 -1.67074 0
M  V30 15005 O 1411.73 0.195635 -1.93212 0
M  V30 15006 C 1408.86 -0.0662958 -3.47237 0
M  V30 15007 C 1407.81 -0.996943 -4.16227 0
M  V30 15008 C 1407.14 -0.241015 -5.34157 0
M  V30 15009 C 1408.44 -2.32384 -4.67755 0
M  V30 15010 H 1410.13 -1.57535 -2.54604 0
M  V30 15011 H 1407.68 -0.758909 -1.22379 0
M  V30 15012 H 1409.63 0.206024 -4.20896 0
M  V30 15013 H 1408.35 0.858263 -3.15121 0
M  V30 15014 H 1407.01 -1.25393 -3.44488 0
M  V30 15015 H 1406.66 0.686508 -4.98293 0
M  V30 15016 H 1406.36 -0.861188 -5.81255 0
M  V30 15017 H 1407.88 0.0238739 -6.10595 0
M  V30 15018 H 1409.3 -2.11099 -5.3302 0
M  V30 15019 H 1407.69 -2.89855 -5.25456 0
M  V30 15020 H 1408.76 -2.958 -3.84227 0
M  V30 15021 N 1410.11 1.33347 -0.840014 0
M  V30 15022 C 1411.36 1.97354 -0.435412 0
M  V30 15023 C 1411.68 1.66866 1.009 0
M  V30 15024 O 1410.95 0.968186 1.70303 0
M  V30 15025 H 1409.53 0.730096 -0.158017 0
M  V30 15026 H 1412.19 1.6269 -1.07322 0
M  V30 15027 H 1411.28 3.0688 -0.56841 0
M  V30 15028 N 1411.59 0.596556 1.45873 0
M  V30 15029 C 1412.83 0.0875879 2.02611 0
M  V30 15030 C 1413.16 -1.27438 1.46538 0
M  V30 15031 O 1412.44 -1.83815 0.635779 0
M  V30 15032 C 1412.72 0.0367394 3.60081 0
M  V30 15033 C 1412.58 1.42859 4.26511 0
M  V30 15034 C 1413.89 -0.656795 4.35171 0
M  V30 15035 H 1411.01 0.0333031 0.736247 0
M  V30 15036 H 1413.66 0.766413 1.73857 0
M  V30 15037 H 1411.81 -0.541345 3.8471 0
M  V30 15038 H 1413.48 2.0529 4.13102 0
M  V30 15039 H 1411.72 1.99243 3.85337 0
M  V30 15040 H 1412.39 1.34535 5.35354 0
M  V30 15041 H 1414.87 -0.165553 4.15771 0
M  V30 15042 H 1413.74 -0.661445 5.449 0
M  V30 15043 H 1414 -1.72079 4.07236 0
M  V30 15044 N 1413.06 -1.53996 0.335095 0
M  V30 15045 C 1414.47 -1.86092 -0.15058 0
M  V30 15046 C 1414.83 -1.25652 -1.50685 0
M  V30 15047 O 1413.95 -0.566887 -2.08843 0
M  V30 15048 C 1414.55 -3.37641 -0.280007 0
M  V30 15049 C 1413.1 -3.69645 -0.709907 0
M  V30 15050 C 1412.25 -2.7683 0.161461 0
M  V30 15051 H 1415.2 -1.4868 0.554986 0
M  V30 15052 H 1415.22 -3.63981 -1.10896 0
M  V30 15053 H 1414.74 -3.81601 0.707254 0
M  V30 15054 H 1412.84 -3.31224 -1.7065 0
M  V30 15055 H 1412.95 -4.76424 -0.505661 0
M  V30 15056 H 1411.31 -2.52073 -0.364849 0
M  V30 15057 H 1412.1 -3.23618 1.1457 0
M  V30 15058 N 1414.54 -0.0635198 -1.57472 0
M  V30 15059 C 1415.5 0.891881 -2.11135 0
M  V30 15060 C 1416.5 1.23182 -1.03358 0
M  V30 15061 O 1417.69 1.16646 -1.2938 0
M  V30 15062 C 1414.83 2.19792 -2.60584 0
M  V30 15063 H 1416.02 0.426461 -2.96852 0
M  V30 15064 H 1413.57 0.185069 -1.552 0
M  V30 15065 H 1414.31 2.70889 -1.78297 0
M  V30 15066 H 1414.09 1.96419 -3.39355 0
M  V30 15067 H 1415.58 2.88203 -3.02206 0
M  V30 15068 N 1416.02 1.56195 0.209972 0
M  V30 15069 C 1416.93 1.96539 1.28101 0
M  V30 15070 C 1417.95 0.870858 1.50639 0
M  V30 15071 O 1419.12 1.17539 1.63544 0
M  V30 15072 C 1416.19 2.28392 2.60841 0
M  V30 15073 C 1415.25 3.51474 2.46505 0
M  V30 15074 C 1414.48 3.81798 3.72915 0
M  V30 15075 O 1414.7 3.13627 4.76439 0
M  V30 15076 O 1413.64 4.75264 3.69334 0
M  V30 15077 H 1417.46 2.87838 0.968671 0
M  V30 15078 H 1415.05 1.43556 0.413777 0
M  V30 15079 H 1416.93 2.50022 3.39215 0
M  V30 15080 H 1415.61 1.40264 2.91732 0
M  V30 15081 H 1414.51 3.35109 1.66292 0
M  V30 15082 H 1415.85 4.40021 2.2055 0
M  V30 15083 N 1417.5 -0.477127 1.50204 0
M  V30 15084 C 1418.46 -1.55824 1.68082 0
M  V30 15085 C 1419.46 -1.51039 0.551719 0
M  V30 15086 O 1420.65 -1.53766 0.818638 0
M  V30 15087 C 1417.78 -2.95462 1.70044 0
M  V30 15088 H 1418.98 -1.41292 2.64531 0
M  V30 15089 H 1416.53 -0.70308 1.39594 0
M  V30 15090 H 1417.26 -3.15445 0.752663 0
M  V30 15091 H 1417.05 -3.00343 2.52065 0
M  V30 15092 H 1418.54 -3.73964 1.85851 0
M  V30 15093 N 1418.98 -1.3968 -0.729882 0
M  V30 15094 C 1420.2 -1.40467 -1.5191 0
M  V30 15095 C 1420.62 -0.000529943 -1.888 0
M  V30 15096 O 1419.98 0.972072 -1.54457 0
M  V30 15097 C 1420.03 -2.2823 -2.80345 0
M  V30 15098 O 1419.75 -3.63176 -2.4502 0
M  V30 15099 C 1421.25 -2.37455 -3.74339 0
M  V30 15100 H 1418.47 -0.479604 -0.469277 0
M  V30 15101 H 1421.01 -1.83558 -0.901484 0
M  V30 15102 H 1419.17 -1.88538 -3.38426 0
M  V30 15103 H 1419.58 -4.0964 -3.2756 0
M  V30 15104 H 1421.06 -3.031 -4.6134 0
M  V30 15105 H 1421.53 -1.39525 -4.16449 0
M  V30 15106 H 1422.14 -2.77638 -3.22176 0
M  V30 15107 N 1420.45 0.960609 -1.2494 0
M  V30 15108 C 1421.68 1.7446 -1.12153 0
M  V30 15109 C 1422.1 1.85335 0.321315 0
M  V30 15110 O 1421.46 1.32944 1.23271 0
M  V30 15111 C 1421.51 3.13945 -1.774 0
M  V30 15112 O 1420.61 3.9882 -1.04958 0
M  V30 15113 H 1419.96 0.536007 -0.391909 0
M  V30 15114 H 1422.49 1.2045 -1.65388 0
M  V30 15115 H 1422.5 3.64434 -1.83444 0
M  V30 15116 H 1421.17 3.05346 -2.82377 0
M  V30 15117 H 1419.75 3.57293 -1.06752 0
M  V30 15118 N 1421.93 1.0643 1.16234 0
M  V30 15119 C 1423.34 0.806012 1.68405 0
M  V30 15120 C 1423.69 -0.670197 1.84398 0
M  V30 15121 O 1422.82 -1.51975 1.54054 0
M  V30 15122 C 1423.41 1.45654 3.05893 0
M  V30 15123 C 1421.97 1.24599 3.55179 0
M  V30 15124 C 1421.12 1.53216 2.31128 0
M  V30 15125 H 1424.07 1.22759 1.00578 0
M  V30 15126 H 1424.09 0.872616 3.70359 0
M  V30 15127 H 1423.6 2.53092 2.94221 0
M  V30 15128 H 1421.71 0.191407 3.72108 0
M  V30 15129 H 1421.82 1.95967 4.37188 0
M  V30 15130 H 1420.18 0.952755 2.36209 0
M  V30 15131 H 1420.97 2.61816 2.22052 0
M  V30 15132 N 1423.41 -1.329 0.847073 0
M  V30 15133 C 1424.82 -1.79813 0.502394 0
M  V30 15134 C 1425.17 -1.70017 -0.979218 0
M  V30 15135 O 1424.3 -1.25427 -1.76344 0
M  V30 15136 C 1424.89 -3.26485 0.905154 0
M  V30 15137 C 1423.45 -3.71383 0.612489 0
M  V30 15138 C 1422.6 -2.54157 1.10903 0
M  V30 15139 H 1425.55 -1.20306 1.035 0
M  V30 15140 H 1425.57 -3.79872 0.218476 0
M  V30 15141 H 1425.08 -3.33583 1.98353 0
M  V30 15142 H 1423.18 -3.69806 -0.45548 0
M  V30 15143 H 1423.3 -4.64507 1.17347 0
M  V30 15144 H 1421.66 -2.49134 0.529576 0
M  V30 15145 H 1422.44 -2.64013 2.19435 0
M  V30 15146 N 1424.89 -0.604284 -1.45555 0
M  V30 15147 C 1426.3 -0.267665 -1.57339 0
M  V30 15148 C 1426.5 1.22984 -1.59616 0
M  V30 15149 O 1425.56 2.0127 -1.52468 0
M  V30 15150 C 1426.87 -0.935923 -2.85764 0
M  V30 15151 C 1428.42 -0.911531 -2.99433 0
M  V30 15152 C 1428.9 -1.55974 -4.30623 0
M  V30 15153 N 1430.39 -1.52507 -4.37374 0
M  V30 15154 C 1431.12 -1.9958 -5.37546 0
M  V30 15155 N 1430.62 -2.54724 -6.44273 0
M  V30 15156 N 1432.41 -1.90368 -5.28882 0
M  V30 15157 H 1424.56 -1.57666 -1.42321 0
M  V30 15158 H 1426.83 -0.66028 -0.680245 0
M  V30 15159 H 1426.53 -1.99022 -2.89971 0
M  V30 15160 H 1426.41 -0.457194 -3.74419 0
M  V30 15161 H 1428.79 0.134206 -2.94795 0
M  V30 15162 H 1428.87 -1.42849 -2.12197 0
M  V30 15163 H 1428.52 -2.60479 -4.3602 0
M  V30 15164 H 1428.45 -1.01782 -5.1667 0
M  V30 15165 H 1430.94 -1.12221 -3.60853 0
M  V30 15166 H 1431.25 -2.88445 -7.16951 0
M  V30 15167 H 1429.6 -2.58761 -6.45033 0
M  V30 15168 H 1432.79 -1.47029 -4.4441 0
M  V30 15169 H 1432.96 -2.27367 -6.06802 0
M  V30 15170 N 1426.37 1.53816 -0.343257 0
M  V30 15171 C 1427.78 1.86169 0.140709 0
M  V30 15172 C 1428.13 1.26449 1.50017 0
M  V30 15173 O 1427.25 0.577955 2.08539 0
M  V30 15174 C 1427.85 3.37785 0.262097 0
M  V30 15175 C 1426.41 3.70016 0.690294 0
M  V30 15176 C 1425.55 2.7674 -0.17614 0
M  V30 15177 H 1428.51 1.48383 -0.562863 0
M  V30 15178 H 1428.53 3.64564 1.08964 0
M  V30 15179 H 1428.04 3.81221 -0.727481 0
M  V30 15180 H 1426.14 3.32124 1.68891 0
M  V30 15181 H 1426.25 4.76686 0.480388 0
M  V30 15182 H 1424.62 2.52263 0.351476 0
M  V30 15183 H 1425.4 3.23006 -1.16285 0
M  V30 15184 N 1427.84 0.0718701 1.57436 0
M  V30 15185 C 1429.26 -0.28476 1.57039 0
M  V30 15186 C 1429.46 -1.70032 1.08127 0
M  V30 15187 O 1428.52 -2.41191 0.747189 0
M  V30 15188 C 1429.83 -0.0943482 3.00552 0
M  V30 15189 C 1431.38 -0.163879 3.12571 0
M  V30 15190 C 1431.85 -0.00174658 4.58 0
M  V30 15191 N 1433.34 -0.0573489 4.63164 0
M  V30 15192 C 1434.08 0.0436849 5.73383 0
M  V30 15193 N 1433.57 0.198243 6.92516 0
M  V30 15194 N 1435.37 -0.0133856 5.62098 0
M  V30 15195 H 1427.52 0.99702 1.87545 0
M  V30 15196 H 1429.78 0.388822 0.864593 0
M  V30 15197 H 1429.49 0.882445 3.40449 0
M  V30 15198 H 1429.36 -0.846636 3.67576 0
M  V30 15199 H 1431.75 -1.13116 2.7256 0
M  V30 15200 H 1431.83 0.619513 2.48185 0
M  V30 15201 H 1431.47 0.9623 4.98701 0
M  V30 15202 H 1431.4 -0.804543 5.20418 0
M  V30 15203 H 1433.89 -0.175212 3.77494 0
M  V30 15204 H 1434.21 0.267479 7.72337 0
M  V30 15205 H 1432.55 0.233606 6.94607 0
M  V30 15206 H 1435.74 -0.132835 4.67911 0
M  V30 15207 H 1435.92 0.0688076 6.47963 0
M  V30 15208 N 1429.32 -1.56304 -0.201686 0
M  V30 15209 C 1430.73 -1.7022 -0.766953 0
M  V30 15210 C 1431.08 -0.677318 -1.84138 0
M  V30 15211 O 1430.21 0.167604 -2.1575 0
M  V30 15212 C 1430.8 -3.08615 -1.39795 0
M  V30 15213 C 1429.36 -3.24317 -1.91037 0
M  V30 15214 C 1428.51 -2.66167 -0.777853 0
M  V30 15215 H 1431.46 -1.58683 0.0232884 0
M  V30 15216 H 1431.48 -3.05578 -2.26721 0
M  V30 15217 H 1430.99 -3.83185 -0.615728 0
M  V30 15218 H 1429.1 -2.54652 -2.71999 0
M  V30 15219 H 1429.21 -4.31753 -2.07669 0
M  V30 15220 H 1427.57 -2.25169 -1.19042 0
M  V30 15221 H 1428.36 -3.43299 -0.00798179 0
M  V30 15222 N 1430.8 0.469154 -1.50455 0
M  V30 15223 C 1432.05 1.21868 -1.61222 0
M  V30 15224 C 1432.37 1.9243 -0.315535 0
M  V30 15225 O 1431.64 1.84192 0.667083 0
M  V30 15226 H 1430.22 0.452828 -0.594101 0
M  V30 15227 H 1432.88 0.540993 -1.87241 0
M  V30 15228 H 1431.98 1.96554 -2.42431 0
M  V30 15229 N 1432.28 1.40065 0.722464 0
M  V30 15230 C 1433.69 1.33876 1.30131 0
M  V30 15231 C 1434.04 0.00899369 1.96198 0
M  V30 15232 O 1433.17 -0.893082 1.97112 0
M  V30 15233 C 1433.76 2.42469 2.36631 0
M  V30 15234 C 1432.32 2.39762 2.90157 0
M  V30 15235 C 1431.47 2.23704 1.63865 0
M  V30 15236 H 1434.42 1.49971 0.519077 0
M  V30 15237 H 1434.44 2.0998 3.17315 0
M  V30 15238 H 1433.95 3.39239 1.88517 0
M  V30 15239 H 1432.05 1.46669 3.42519 0
M  V30 15240 H 1432.16 3.35092 3.42419 0
M  V30 15241 H 1430.53 1.71098 1.88674 0
M  V30 15242 H 1431.31 3.22462 1.17785 0
M  V30 15243 N 1433.76 -0.95397 1.25448 0
M  V30 15244 C 1434.72 -2.03231 1.0597 0
M  V30 15245 C 1435.72 -1.60795 0.0122855 0
M  V30 15246 O 1436.91 -1.7233 0.254533 0
M  V30 15247 C 1434.04 -3.35414 0.609105 0
M  V30 15248 H 1435.24 -2.21943 2.01696 0
M  V30 15249 H 1432.79 -1.13115 1.07864 0
M  V30 15250 H 1433.52 -3.22398 -0.350723 0
M  V30 15251 H 1433.31 -3.67564 1.36526 0
M  V30 15252 H 1434.8 -4.14664 0.49428 0
M  V30 15253 N 1435.24 -1.07045 -1.15668 0
M  V30 15254 C 1436.48 -0.790172 -1.86013 0
M  V30 15255 C 1436.8 0.685663 -1.82548 0
M  V30 15256 O 1436.07 1.49644 -1.26426 0
M  V30 15257 H 1434.65 -0.28931 -0.688701 0
M  V30 15258 H 1437.32 -1.35354 -1.40233 0
M  V30 15259 H 1436.41 -1.1219 -2.91239 0
M  V30 15260 N 1436.71 1.32449 -0.85411 0
M  V30 15261 C 1438.12 1.79545 -0.511923 0
M  V30 15262 C 1438.48 1.70534 0.970188 0
M  V30 15263 O 1437.6 1.2636 1.75676 0
M  V30 15264 C 1438.2 3.26 -0.922456 0
M  V30 15265 C 1436.75 3.71053 -0.632176 0
M  V30 15266 C 1435.9 2.53565 -1.12249 0
M  V30 15267 H 1438.85 1.19755 -1.04137 0
M  V30 15268 H 1438.87 3.79751 -0.238618 0
M  V30 15269 H 1438.39 3.32526 -2.00119 0
M  V30 15270 H 1436.49 3.70042 0.435862 0
M  V30 15271 H 1436.6 4.63878 -1.19809 0
M  V30 15272 H 1434.96 2.48849 -0.542781 0
M  V30 15273 H 1435.75 2.62846 -2.20832 0
M  V30 15274 N 1438.19 0.611994 1.45232 0
M  V30 15275 C 1439.61 0.276005 1.57195 0
M  V30 15276 C 1439.81 -1.22136 1.60266 0
M  V30 15277 O 1438.86 -2.00459 1.53533 0
M  V30 15278 C 1440.18 0.951064 2.85263 0
M  V30 15279 C 1441.72 0.927398 2.98945 0
M  V30 15280 C 1442.2 1.58255 4.2979 0
M  V30 15281 N 1443.69 1.54825 4.36559 0
M  V30 15282 C 1444.43 2.02428 5.3648 0
M  V30 15283 N 1443.92 2.58137 6.42913 0
M  V30 15284 N 1445.71 1.9317 5.27865 0
M  V30 15285 H 1437.87 1.58418 1.41483 0
M  V30 15286 H 1440.13 0.663879 0.676734 0
M  V30 15287 H 1439.83 2.00557 2.88912 0
M  V30 15288 H 1439.71 0.477044 3.74171 0
M  V30 15289 H 1442.1 -0.118571 2.94862 0
M  V30 15290 H 1442.18 1.43973 2.11437 0
M  V30 15291 H 1441.82 2.62787 4.34632 0
M  V30 15292 H 1441.75 1.04521 5.16123 0
M  V30 15293 H 1444.24 1.14133 3.60253 0
M  V30 15294 H 1444.55 2.92243 7.15412 0
M  V30 15295 H 1442.9 2.62179 6.43652 0
M  V30 15296 H 1446.09 1.49384 4.43624 0
M  V30 15297 H 1446.26 2.30582 6.05587 0
M  V30 15298 N 1439.67 -1.53632 0.351409 0
M  V30 15299 C 1440.58 -2.2899 -0.509985 0
M  V30 15300 C 1441.6 -1.34403 -1.10507 0
M  V30 15301 O 1442.77 -1.67448 -1.11906 0
M  V30 15302 C 1439.84 -3.05392 -1.64124 0
M  V30 15303 C 1438.9 -4.15619 -1.07514 0
M  V30 15304 C 1438.13 -4.88369 -2.15248 0
M  V30 15305 O 1438.35 -4.60854 -3.3611 0
M  V30 15306 O 1437.29 -5.74636 -1.79101 0
M  V30 15307 H 1441.11 -3.03526 0.10283 0
M  V30 15308 H 1438.7 -1.48947 0.116214 0
M  V30 15309 H 1440.58 -3.53146 -2.29926 0
M  V30 15310 H 1439.26 -2.33705 -2.23972 0
M  V30 15311 H 1438.16 -3.7215 -0.381421 0
M  V30 15312 H 1439.5 -4.8943 -0.521413 0
M  V30 15313 N 1441.15 -0.0802183 -1.57396 0
M  V30 15314 C 1442.08 0.881426 -2.16225 0
M  V30 15315 C 1443.06 1.30459 -1.09154 0
M  V30 15316 O 1444.24 1.37413 -1.37227 0
M  V30 15317 C 1441.37 2.14599 -2.73065 0
M  V30 15318 C 1440.33 1.86195 -3.85377 0
M  V30 15319 C 1439.65 3.19354 -4.28856 0
M  V30 15320 C 1440.95 1.16059 -5.09242 0
M  V30 15321 H 1442.65 0.391325 -2.96832 0
M  V30 15322 H 1440.19 0.186785 -1.42783 0
M  V30 15323 H 1442.15 2.82297 -3.12868 0
M  V30 15324 H 1440.87 2.65866 -1.89691 0
M  V30 15325 H 1439.53 1.209 -3.46091 0
M  V30 15326 H 1439.18 3.68479 -3.42392 0
M  V30 15327 H 1438.88 3.01137 -5.04569 0
M  V30 15328 H 1440.4 3.88235 -4.71281 0
M  V30 15329 H 1441.82 1.7384 -5.46308 0
M  V30 15330 H 1440.21 1.08072 -5.90288 0
M  V30 15331 H 1441.28 0.14098 -4.84695 0
M  V30 15332 N 1442.63 1.56409 0.193394 0
M  V30 15333 C 1443.59 1.93822 1.22334 0
M  V30 15334 C 1444.59 0.819513 1.3835 0
M  V30 15335 O 1445.78 1.0869 1.36132 0
M  V30 15336 C 1442.91 2.21375 2.59241 0
M  V30 15337 H 1444.1 2.85967 0.903502 0
M  V30 15338 H 1441.66 1.50125 0.43498 0
M  V30 15339 H 1442.39 1.31874 2.96277 0
M  V30 15340 H 1442.18 3.02899 2.48988 0
M  V30 15341 H 1443.67 2.51319 3.33509 0
M  V30 15342 N 1444.1 -0.461169 1.50702 0
M  V30 15343 C 1445.01 -1.58355 1.73092 0
M  V30 15344 C 1446.03 -1.62795 0.61431 0
M  V30 15345 O 1447.21 -1.8048 0.893806 0
M  V30 15346 C 1444.27 -2.94509 1.82936 0
M  V30 15347 C 1443.33 -3.00378 3.06711 0
M  V30 15348 C 1442.56 -4.30037 3.16076 0
M  V30 15349 O 1442.79 -5.21097 2.31978 0
M  V30 15350 O 1441.72 -4.41702 4.08881 0
M  V30 15351 H 1445.55 -1.42384 2.68255 0
M  V30 15352 H 1443.13 -0.641709 1.34916 0
M  V30 15353 H 1445.01 -3.75357 1.91534 0
M  V30 15354 H 1443.69 -3.10658 0.909581 0
M  V30 15355 H 1442.6 -2.18571 3.03608 0
M  V30 15356 H 1443.93 -2.89167 3.983 0
M  V30 15357 N 1445.58 -1.40446 -0.715026 0
M  V30 15358 C 1446.53 -1.37235 -1.82073 0
M  V30 15359 C 1447.52 -0.249808 -1.58949 0
M  V30 15360 O 1448.71 -0.488958 -1.70112 0
M  V30 15361 C 1445.84 -1.23786 -3.20206 0
M  V30 15362 C 1444.92 -2.40824 -3.49091 0
M  V30 15363 N 1445.31 -3.66305 -3.4879 0
M  V30 15364 C 1443.61 -2.34215 -3.79551 0
M  V30 15365 C 1444.31 -4.43817 -3.76034 0
M  V30 15366 N 1443.29 -3.73664 -3.94811 0
M  V30 15367 H 1447.09 -2.32195 -1.80174 0
M  V30 15368 H 1444.6 -1.34226 -0.914175 0
M  V30 15369 H 1446.6 -1.19568 -3.99386 0
M  V30 15370 H 1445.26 -0.297938 -3.2333 0
M  V30 15371 H 1446.27 -3.99458 -3.29626 0
M  V30 15372 H 1442.95 -1.48592 -3.90162 0
M  V30 15373 H 1444.34 -5.52674 -3.82101 0
M  V30 15374 N 1447.06 0.947303 -1.25952 0
M  V30 15375 C 1447.97 2.07878 -1.08738 0
M  V30 15376 C 1448.99 1.73985 -0.0225212 0
M  V30 15377 O 1450.16 2.00139 -0.224984 0
M  V30 15378 C 1447.23 3.39231 -0.715756 0
M  V30 15379 C 1446.29 3.86945 -1.85935 0
M  V30 15380 C 1445.52 5.1203 -1.50537 0
M  V30 15381 O 1445.74 5.68965 -0.404323 0
M  V30 15382 O 1444.68 5.54634 -2.33805 0
M  V30 15383 H 1448.5 2.25305 -2.03645 0
M  V30 15384 H 1446.09 1.06321 -1.04958 0
M  V30 15385 H 1447.97 4.18167 -0.520962 0
M  V30 15386 H 1446.65 3.23057 0.203978 0
M  V30 15387 H 1445.55 3.08981 -2.10906 0
M  V30 15388 H 1446.89 4.0763 -2.75859 0
M  V30 15389 O 1448.58 1.20016 1.08067 0
M  V30 15390 H 1449.27 0.951915 1.68696 0
M  V30 END ATOM
M  V30 BEGIN BOND
M  V30 END BOND
M  V30 END CTAB
M  END
$$$$
