drugbank_target|Q16498 GM-CSF receptor alpha subunit (DB05194; DB05386)
 OpenBabel12092120223D

417421  0  0  0  0  0  0  0  0999 V2000
   -0.9080    1.9825   -0.1171 H   0  0  0  0  0 15  0  0  0  0  0  0
    0.0000    1.5760    0.0000 N   0  0  0  0  0 15  0  0  0  0  0  0
    0.9330    2.0387    1.0253 C   0  0  0  0  0 15  0  0  0  0  0  0
    1.9110    0.9285    1.3348 C   0  0  0  0  0 15  0  0  0  0  0  0
    3.0950    1.1967    1.4564 O   0  0  0  0  0 15  0  0  0  0  0  0
    0.2220    2.4363    2.3529 C   0  0  0  0  0 15  0  0  0  0  0  0
   -0.7320    3.6537    2.2001 C   0  0  0  0  0 15  0  0  0  0  0  0
    0.1010    5.1329    1.5261 S   0  0  0  0  0 15  0  0  0  0  0  0
    1.2570    5.5632    2.8680 C   0  0  0  0  0 15  0  0  0  0  0  0
    1.4900    2.9052    0.6314 H   0  0  0  0  0 15  0  0  0  0  0  0
   -0.9770    1.5295    0.2109 H   0  0  0  0  0 15  0  0  0  0  0  0
    0.9810    2.6720    3.1163 H   0  0  0  0  0 15  0  0  0  0  0  0
   -0.3580    1.5738    2.7183 H   0  0  0  0  0 15  0  0  0  0  0  0
   -1.1650    3.9094    3.1809 H   0  0  0  0  0 15  0  0  0  0  0  0
   -1.5630    3.4180    1.5182 H   0  0  0  0  0 15  0  0  0  0  0  0
    0.7290    5.5878    3.8310 H   0  0  0  0  0 15  0  0  0  0  0  0
    1.6720    6.5627    2.6593 H   0  0  0  0  0 15  0  0  0  0  0  0
    2.0800    4.8389    2.9071 H   0  0  0  0  0 15  0  0  0  0  0  0
    1.4781   -0.2728    1.5522 N   0  0  0  0  0 15  0  0  0  0  0  0
    2.7271   -1.0021    1.7504 C   0  0  0  0  0 15  0  0  0  0  0  0
    3.0401   -1.8744    0.5590 C   0  0  0  0  0 15  0  0  0  0  0  0
    4.2461   -2.6386    0.6397 O   0  0  0  0  0 15  0  0  0  0  0  0
    2.7021   -1.8316    3.0980 C   0  0  0  0  0 15  0  0  0  0  0  0
    2.3101   -1.0080    4.3651 C   0  0  0  0  0 15  0  0  0  0  0  0
    4.0541   -2.5553    3.3898 C   0  0  0  0  0 15  0  0  0  0  0  0
    1.9611   -1.8319    5.6231 C   0  0  0  0  0 15  0  0  0  0  0  0
    0.8911   -0.3779    0.6525 H   0  0  0  0  0 15  0  0  0  0  0  0
    3.5421   -0.2578    1.8168 H   0  0  0  0  0 15  0  0  0  0  0  0
    1.9241   -2.6169    2.9721 H   0  0  0  0  0 15  0  0  0  0  0  0
    3.0981   -0.2669    4.6003 H   0  0  0  0  0 15  0  0  0  0  0  0
    1.4131   -0.3989    4.1448 H   0  0  0  0  0 15  0  0  0  0  0  0
    4.0101   -3.1758    4.3017 H   0  0  0  0  0 15  0  0  0  0  0  0
    4.3531   -3.2583    2.5912 H   0  0  0  0  0 15  0  0  0  0  0  0
    4.8861   -1.8403    3.5267 H   0  0  0  0  0 15  0  0  0  0  0  0
    1.6251   -1.1732    6.4492 H   0  0  0  0  0 15  0  0  0  0  0  0
    1.1451   -2.5491    5.4294 H   0  0  0  0  0 15  0  0  0  0  0  0
    2.8241   -2.4055    6.0062 H   0  0  0  0  0 15  0  0  0  0  0  0
    2.9562   -1.4816   -0.5373 N   0  0  0  0  0 15  0  0  0  0  0  0
    4.2022   -1.5702   -1.2930 C   0  0  0  0  0 15  0  0  0  0  0  0
    4.5572   -0.2378   -1.9092 C   0  0  0  0  0 15  0  0  0  0  0  0
    3.8502    0.7586   -1.7594 O   0  0  0  0  0 15  0  0  0  0  0  0
    4.0442   -2.6396   -2.4096 C   0  0  0  0  0 15  0  0  0  0  0  0
    3.8732   -4.0746   -1.9028 C   0  0  0  0  0 15  0  0  0  0  0  0
    2.6432   -4.7468   -1.7321 C   0  0  0  0  0 15  0  0  0  0  0  0
    4.8412   -4.9386   -1.4356 C   0  0  0  0  0 15  0  0  0  0  0  0
    2.8232   -6.0263   -1.1708 N   0  0  0  0  0 15  0  0  0  0  0  0
    4.1942   -6.1199   -0.9932 C   0  0  0  0  0 15  0  0  0  0  0  0
    6.2492   -4.8014   -1.3179 C   0  0  0  0  0 15  0  0  0  0  0  0
    4.9522   -7.1792   -0.4449 C   0  0  0  0  0 15  0  0  0  0  0  0
    6.9782   -5.8619   -0.7836 C   0  0  0  0  0 15  0  0  0  0  0  0
    6.3402   -7.0352   -0.3513 C   0  0  0  0  0 15  0  0  0  0  0  0
    2.4392   -0.6292   -0.4644 H   0  0  0  0  0 15  0  0  0  0  0  0
    5.0232   -1.8501   -0.6067 H   0  0  0  0  0 15  0  0  0  0  0  0
    3.1942   -2.3780   -3.0709 H   0  0  0  0  0 15  0  0  0  0  0  0
    4.9262   -2.6254   -3.0799 H   0  0  0  0  0 15  0  0  0  0  0  0
    1.6812   -4.3090   -1.9652 H   0  0  0  0  0 15  0  0  0  0  0  0
    2.1052   -6.7085   -0.9104 H   0  0  0  0  0 15  0  0  0  0  0  0
    6.7472   -3.8977   -1.6382 H   0  0  0  0  0 15  0  0  0  0  0  0
    4.4652   -8.0802   -0.1122 H   0  0  0  0  0 15  0  0  0  0  0  0
    8.0512   -5.7762   -0.6958 H   0  0  0  0  0 15  0  0  0  0  0  0
    6.9312   -7.8418    0.0558 H   0  0  0  0  0 15  0  0  0  0  0  0
    4.4343    0.7856   -1.3662 N   0  0  0  0  0 15  0  0  0  0  0  0
    5.3443    1.9296   -1.3342 C   0  0  0  0  0 15  0  0  0  0  0  0
    6.3603    1.7239   -0.2359 C   0  0  0  0  0 15  0  0  0  0  0  0
    7.5363    1.9587   -0.4689 O   0  0  0  0  0 15  0  0  0  0  0  0
    4.6013    3.2788   -1.1266 C   0  0  0  0  0 15  0  0  0  0  0  0
    3.6623    3.6120   -2.3201 C   0  0  0  0  0 15  0  0  0  0  0  0
    2.8953    4.8969   -2.1223 C   0  0  0  0  0 15  0  0  0  0  0  0
    3.1183    5.5970   -1.0995 O   0  0  0  0  0 15  0  0  0  0  0  0
    2.0523    5.2175   -3.0010 O   0  0  0  0  0 15  0  0  0  0  0  0
    5.8783    1.9861   -2.2975 H   0  0  0  0  0 15  0  0  0  0  0  0
    3.4633    0.9264   -1.1721 H   0  0  0  0  0 15  0  0  0  0  0  0
    5.3453    4.0861   -1.0302 H   0  0  0  0  0 15  0  0  0  0  0  0
    4.0203    3.2312   -0.1940 H   0  0  0  0  0 15  0  0  0  0  0  0
    2.9273    2.8077   -2.4723 H   0  0  0  0  0 15  0  0  0  0  0  0
    4.2603    3.7070   -3.2380 H   0  0  0  0  0 15  0  0  0  0  0  0
    5.9124    1.2097    1.0102 N   0  0  0  0  0 15  0  0  0  0  0  0
    6.8224    0.9802    2.1314 C   0  0  0  0  0 15  0  0  0  0  0  0
    7.8384   -0.0661    1.7387 C   0  0  0  0  0 15  0  0  0  0  0  0
    9.0144    0.1228    2.0103 O   0  0  0  0  0 15  0  0  0  0  0  0
    6.0794    0.5422    3.4243 C   0  0  0  0  0 15  0  0  0  0  0  0
    5.1404    1.6600    3.9591 C   0  0  0  0  0 15  0  0  0  0  0  0
    4.3734    1.2428    5.1903 C   0  0  0  0  0 15  0  0  0  0  0  0
    4.5964    0.1142    5.7029 O   0  0  0  0  0 15  0  0  0  0  0  0
    3.5304    2.0527    5.6582 O   0  0  0  0  0 15  0  0  0  0  0  0
    7.3564    1.9191    2.3538 H   0  0  0  0  0 15  0  0  0  0  0  0
    4.9414    0.9941    1.1153 H   0  0  0  0  0 15  0  0  0  0  0  0
    6.8234    0.3074    4.2028 H   0  0  0  0  0 15  0  0  0  0  0  0
    5.4984   -0.3681    3.2160 H   0  0  0  0  0 15  0  0  0  0  0  0
    4.4054    1.9491    3.1932 H   0  0  0  0  0 15  0  0  0  0  0  0
    5.7384    2.5475    4.2114 H   0  0  0  0  0 15  0  0  0  0  0  0
    7.3905   -1.2043    1.0166 N   0  0  0  0  0 15  0  0  0  0  0  0
    8.6375   -1.8980    0.7059 C   0  0  0  0  0 15  0  0  0  0  0  0
    8.9655   -1.7885   -0.7644 C   0  0  0  0  0 15  0  0  0  0  0  0
    8.2205   -1.1669   -1.5710 O   0  0  0  0  0 15  0  0  0  0  0  0
    8.5195   -3.4046    1.0871 C   0  0  0  0  0 15  0  0  0  0  0  0
    8.1855   -3.7161    2.5537 C   0  0  0  0  0 15  0  0  0  0  0  0
    6.8475   -3.7983    2.9544 C   0  0  0  0  0 15  0  0  0  0  0  0
    9.1995   -3.8592    3.5031 C   0  0  0  0  0 15  0  0  0  0  0  0
    6.5275   -3.9980    4.2939 C   0  0  0  0  0 15  0  0  0  0  0  0
    8.8795   -4.0740    4.8395 C   0  0  0  0  0 15  0  0  0  0  0  0
    7.5435   -4.1384    5.2373 C   0  0  0  0  0 15  0  0  0  0  0  0
    6.8135   -0.6945    0.2583 H   0  0  0  0  0 15  0  0  0  0  0  0
    9.4605   -1.4269    1.2772 H   0  0  0  0  0 15  0  0  0  0  0  0
    7.7655   -3.8939    0.4343 H   0  0  0  0  0 15  0  0  0  0  0  0
    9.4625   -3.9243    0.8245 H   0  0  0  0  0 15  0  0  0  0  0  0
    6.0525   -3.6582    2.2332 H   0  0  0  0  0 15  0  0  0  0  0  0
   10.2365   -3.7893    3.2051 H   0  0  0  0  0 15  0  0  0  0  0  0
    5.4925   -4.0302    4.5977 H   0  0  0  0  0 15  0  0  0  0  0  0
    9.6665   -4.1740    5.5745 H   0  0  0  0  0 15  0  0  0  0  0  0
    7.2935   -4.2906    6.2754 H   0  0  0  0  0 15  0  0  0  0  0  0
    8.8686   -0.7928   -1.3621 N   0  0  0  0  0 15  0  0  0  0  0  0
   10.0966   -0.3788   -2.0340 C   0  0  0  0  0 15  0  0  0  0  0  0
   10.5116    1.0059   -1.5977 C   0  0  0  0  0 15  0  0  0  0  0  0
    9.8686    1.6457   -0.7888 O   0  0  0  0  0 15  0  0  0  0  0  0
    9.9196   -0.4368   -3.5885 C   0  0  0  0  0 15  0  0  0  0  0  0
    9.6406   -1.7669   -4.0089 O   0  0  0  0  0 15  0  0  0  0  0  0
   11.1416   -0.0139   -4.4330 C   0  0  0  0  0 15  0  0  0  0  0  0
    8.3616   -0.1557   -0.6527 H   0  0  0  0  0 15  0  0  0  0  0  0
   10.9056   -1.0726   -1.7411 H   0  0  0  0  0 15  0  0  0  0  0  0
    9.0606    0.2086   -3.8684 H   0  0  0  0  0 15  0  0  0  0  0  0
    9.4746   -1.7201   -4.9549 H   0  0  0  0  0 15  0  0  0  0  0  0
   10.9486   -0.1056   -5.5190 H   0  0  0  0  0 15  0  0  0  0  0  0
   11.4256    1.0392   -4.2673 H   0  0  0  0  0 15  0  0  0  0  0  0
   12.0316   -0.6319   -4.2058 H   0  0  0  0  0 15  0  0  0  0  0  0
   10.3467    1.4787   -0.5451 N   0  0  0  0  0 15  0  0  0  0  0  0
   11.7577    1.8638   -0.1086 C   0  0  0  0  0 15  0  0  0  0  0  0
   12.1087    1.4531    1.3183 C   0  0  0  0  0 15  0  0  0  0  0  0
   11.2337    0.8506    1.9898 O   0  0  0  0  0 15  0  0  0  0  0  0
   11.8287    3.3827   -0.1903 C   0  0  0  0  0 15  0  0  0  0  0  0
   10.3877    3.7591    0.1912 C   0  0  0  0  0 15  0  0  0  0  0  0
    9.5347    2.7193   -0.5433 C   0  0  0  0  0 15  0  0  0  0  0  0
   12.4857    1.3956   -0.7555 H   0  0  0  0  0 15  0  0  0  0  0  0
   12.5067    3.7583    0.5942 H   0  0  0  0  0 15  0  0  0  0  0  0
   12.0187    3.6813   -1.2289 H   0  0  0  0  0 15  0  0  0  0  0  0
   10.1197    3.5167    1.2314 H   0  0  0  0  0 15  0  0  0  0  0  0
   10.2327    4.7884   -0.1590 H   0  0  0  0  0 15  0  0  0  0  0  0
    8.5967    2.5470    0.0122 H   0  0  0  0  0 15  0  0  0  0  0  0
    9.3797    3.0463   -1.5828 H   0  0  0  0  0 15  0  0  0  0  0  0
   11.8248    0.2810    1.5507 N   0  0  0  0  0 15  0  0  0  0  0  0
   12.7348   -0.6139    2.2643 C   0  0  0  0  0 15  0  0  0  0  0  0
   13.7508   -1.1652    1.2922 C   0  0  0  0  0 15  0  0  0  0  0  0
   14.9268   -1.1943    1.6217 O   0  0  0  0  0 15  0  0  0  0  0  0
   11.9918   -1.7788    2.9759 C   0  0  0  0  0 15  0  0  0  0  0  0
   11.0528   -1.2636    4.1028 C   0  0  0  0  0 15  0  0  0  0  0  0
   10.2858   -2.3730    4.7804 C   0  0  0  0  0 15  0  0  0  0  0  0
   10.5088   -3.5678    4.4505 O   0  0  0  0  0 15  0  0  0  0  0  0
    9.4428   -2.0512    5.6587 O   0  0  0  0  0 15  0  0  0  0  0  0
   13.2688   -0.0357    3.0368 H   0  0  0  0  0 15  0  0  0  0  0  0
   10.8538    0.0482    1.4932 H   0  0  0  0  0 15  0  0  0  0  0  0
   12.7358   -2.4579    3.4229 H   0  0  0  0  0 15  0  0  0  0  0  0
   11.4108   -2.3440    2.2325 H   0  0  0  0  0 15  0  0  0  0  0  0
   10.3178   -0.5507    3.7002 H   0  0  0  0  0 15  0  0  0  0  0  0
   11.6508   -0.7441    4.8654 H   0  0  0  0  0 15  0  0  0  0  0  0
   13.3029   -1.5760    0.0084 N   0  0  0  0  0 15  0  0  0  0  0  0
   14.2129   -2.1238   -0.9965 C   0  0  0  0  0 15  0  0  0  0  0  0
   15.2289   -1.0711   -1.3713 C   0  0  0  0  0 15  0  0  0  0  0  0
   16.4049   -1.3905   -1.4569 O   0  0  0  0  0 15  0  0  0  0  0  0
   13.4699   -2.6231   -2.2670 C   0  0  0  0  0 15  0  0  0  0  0  0
   12.5309   -3.8222   -1.9546 C   0  0  0  0  0 15  0  0  0  0  0  0
   11.7639   -4.2976   -3.1645 C   0  0  0  0  0 15  0  0  0  0  0  0
   11.9869   -3.7658   -4.2842 O   0  0  0  0  0 15  0  0  0  0  0  0
   10.9209   -5.2183   -2.9996 O   0  0  0  0  0 15  0  0  0  0  0  0
   14.7469   -2.9848   -0.5607 H   0  0  0  0  0 15  0  0  0  0  0  0
   12.3319   -1.4790   -0.2110 H   0  0  0  0  0 15  0  0  0  0  0  0
   14.2139   -2.9459   -3.0132 H   0  0  0  0  0 15  0  0  0  0  0  0
   12.8889   -1.7931   -2.6950 H   0  0  0  0  0 15  0  0  0  0  0  0
   11.7959   -3.5491   -1.1828 H   0  0  0  0  0 15  0  0  0  0  0  0
   13.1289   -4.6632   -1.5749 H   0  0  0  0  0 15  0  0  0  0  0  0
   14.7810    0.2645   -1.5536 N   0  0  0  0  0 15  0  0  0  0  0  0
   16.0290    0.9930   -1.7602 C   0  0  0  0  0 15  0  0  0  0  0  0
   16.3500    1.8651   -0.5691 C   0  0  0  0  0 15  0  0  0  0  0  0
   15.6200    1.9144    0.4157 O   0  0  0  0  0 15  0  0  0  0  0  0
   14.2000    0.3696   -0.6491 H   0  0  0  0  0 15  0  0  0  0  0  0
   16.8620    0.2867   -1.9278 H   0  0  0  0  0 15  0  0  0  0  0  0
   15.9580    1.6250   -2.6646 H   0  0  0  0  0 15  0  0  0  0  0  0
   16.2591    1.4844    0.5294 N   0  0  0  0  0 15  0  0  0  0  0  0
   17.2061    1.6301    1.6339 C   0  0  0  0  0 15  0  0  0  0  0  0
   18.1761    0.4721    1.5925 C   0  0  0  0  0 15  0  0  0  0  0  0
   19.3611    0.6957    1.7767 O   0  0  0  0  0 15  0  0  0  0  0  0
   16.5011    1.6763    3.0165 C   0  0  0  0  0 15  0  0  0  0  0  0
   15.6141    2.9454    3.1603 C   0  0  0  0  0 15  0  0  0  0  0  0
   14.7491    2.9032    4.4485 C   0  0  0  0  0 15  0  0  0  0  0  0
   13.7881    4.1192    4.5275 C   0  0  0  0  0 15  0  0  0  0  0  0
   12.9251    4.0578    5.7297 N   0  0  0  0  0 15  0  0  0  0  0  0
   17.7651    2.5733    1.5028 H   0  0  0  0  0 15  0  0  0  0  0  0
   15.3021    1.2761    0.7317 H   0  0  0  0  0 15  0  0  0  0  0  0
   17.2601    1.6829    3.8175 H   0  0  0  0  0 15  0  0  0  0  0  0
   15.8901    0.7680    3.1353 H   0  0  0  0  0 15  0  0  0  0  0  0
   14.9421    3.0361    2.2918 H   0  0  0  0  0 15  0  0  0  0  0  0
   16.2541    3.8451    3.1773 H   0  0  0  0  0 15  0  0  0  0  0  0
   15.4081    2.8938    5.3324 H   0  0  0  0  0 15  0  0  0  0  0  0
   14.1471    1.9807    4.4567 H   0  0  0  0  0 15  0  0  0  0  0  0
   13.1521    4.1313    3.6277 H   0  0  0  0  0 15  0  0  0  0  0  0
   14.3771    5.0533    4.5367 H   0  0  0  0  0 15  0  0  0  0  0  0
   12.3231    3.1635    5.7468 H   0  0  0  0  0 15  0  0  0  0  0  0
   12.2401    4.8946    5.7616 H   0  0  0  0  0 15  0  0  0  0  0  0
   13.5081    4.0890    6.6364 H   0  0  0  0  0 15  0  0  0  0  0  0
   17.7372   -0.7783    1.3704 N   0  0  0  0  0 15  0  0  0  0  0  0
   18.9852   -1.5336    1.3162 C   0  0  0  0  0 15  0  0  0  0  0  0
   19.3062   -1.9474   -0.1008 C   0  0  0  0  0 15  0  0  0  0  0  0
   18.5762   -1.6580   -1.0435 O   0  0  0  0  0 15  0  0  0  0  0  0
   17.1562   -0.5688    0.4842 H   0  0  0  0  0 15  0  0  0  0  0  0
   19.8182   -0.9267    1.7146 H   0  0  0  0  0 15  0  0  0  0  0  0
   18.9142   -2.4361    1.9510 H   0  0  0  0  0 15  0  0  0  0  0  0
   19.2153   -1.2150   -1.0038 N   0  0  0  0  0 15  0  0  0  0  0  0
   20.4453   -1.0575   -1.7749 C   0  0  0  0  0 15  0  0  0  0  0  0
   20.8533    0.3957   -1.8502 C   0  0  0  0  0 15  0  0  0  0  0  0
   20.1963    1.2863   -1.3115 O   0  0  0  0  0 15  0  0  0  0  0  0
   20.2583   -1.5809   -3.2287 C   0  0  0  0  0 15  0  0  0  0  0  0
   19.9223   -3.0657   -3.3892 C   0  0  0  0  0 15  0  0  0  0  0  0
   20.9193   -4.0411   -3.2710 C   0  0  0  0  0 15  0  0  0  0  0  0
   18.6043   -3.4580   -3.6432 C   0  0  0  0  0 15  0  0  0  0  0  0
   20.5983   -5.3886   -3.4045 C   0  0  0  0  0 15  0  0  0  0  0  0
   18.2853   -4.8071   -3.7731 C   0  0  0  0  0 15  0  0  0  0  0  0
   19.2833   -5.7705   -3.6538 C   0  0  0  0  0 15  0  0  0  0  0  0
   18.9713   -7.0951   -3.7796 O   0  0  0  0  0 15  0  0  0  0  0  0
   18.7033   -0.3718   -0.5646 H   0  0  0  0  0 15  0  0  0  0  0  0
   21.2573   -1.6132   -1.2714 H   0  0  0  0  0 15  0  0  0  0  0  0
   19.4873   -0.9692   -3.7436 H   0  0  0  0  0 15  0  0  0  0  0  0
   21.1763   -1.3816   -3.8166 H   0  0  0  0  0 15  0  0  0  0  0  0
   21.9423   -3.7514   -3.0740 H   0  0  0  0  0 15  0  0  0  0  0  0
   17.8213   -2.7134   -3.7268 H   0  0  0  0  0 15  0  0  0  0  0  0
   21.3653   -6.1404   -3.3106 H   0  0  0  0  0 15  0  0  0  0  0  0
   17.2623   -5.0936   -3.9652 H   0  0  0  0  0 15  0  0  0  0  0  0
   18.0303   -7.1693   -3.9490 H   0  0  0  0  0 15  0  0  0  0  0  0
   20.6934    1.1989   -1.0230 N   0  0  0  0  0 15  0  0  0  0  0  0
   22.1094    1.4146   -0.7390 C   0  0  0  0  0 15  0  0  0  0  0  0
   22.3094    1.8972    0.6788 C   0  0  0  0  0 15  0  0  0  0  0  0
   21.3654    2.0702    1.4457 O   0  0  0  0  0 15  0  0  0  0  0  0
   22.6784    2.4308   -1.7701 C   0  0  0  0  0 15  0  0  0  0  0  0
   24.2264    2.5684   -1.7889 C   0  0  0  0  0 15  0  0  0  0  0  0
   24.7014    3.6171   -2.8095 C   0  0  0  0  0 15  0  0  0  0  0  0
   26.1924    3.6920   -2.7973 N   0  0  0  0  0 15  0  0  0  0  0  0
   26.9274    4.5002   -3.5535 C   0  0  0  0  0 15  0  0  0  0  0  0
   26.4234    5.3459   -4.4066 N   0  0  0  0  0 15  0  0  0  0  0  0
   28.2164    4.4461   -3.4391 N   0  0  0  0  0 15  0  0  0  0  0  0
   20.3674    0.8688   -1.9382 H   0  0  0  0  0 15  0  0  0  0  0  0
   22.6304    0.4440   -0.8376 H   0  0  0  0  0 15  0  0  0  0  0  0
   22.3364    2.1464   -2.7861 H   0  0  0  0  0 15  0  0  0  0  0  0
   22.2104    3.4217   -1.5874 H   0  0  0  0  0 15  0  0  0  0  0  0
   24.5974    2.8461   -0.7797 H   0  0  0  0  0 15  0  0  0  0  0  0
   24.6784    1.5793   -2.0123 H   0  0  0  0  0 15  0  0  0  0  0  0
   24.3224    3.3468   -3.8204 H   0  0  0  0  0 15  0  0  0  0  0  0
   24.2524    4.6026   -2.5587 H   0  0  0  0  0 15  0  0  0  0  0  0
   26.7434    3.0879   -2.1784 H   0  0  0  0  0 15  0  0  0  0  0  0
   27.0564    5.9336   -4.9512 H   0  0  0  0  0 15  0  0  0  0  0  0
   25.4014    5.3407   -4.4474 H   0  0  0  0  0 15  0  0  0  0  0  0
   28.5924    3.7758   -2.7668 H   0  0  0  0  0 15  0  0  0  0  0  0
   28.7654    5.0736   -4.0310 H   0  0  0  0  0 15  0  0  0  0  0  0
   22.1715    0.8000    1.3578 N   0  0  0  0  0 15  0  0  0  0  0  0
   23.0815    0.2072    2.3368 C   0  0  0  0  0 15  0  0  0  0  0  0
   24.0975   -0.6463    1.6155 C   0  0  0  0  0 15  0  0  0  0  0  0
   25.2735   -0.5596    1.9347 O   0  0  0  0  0 15  0  0  0  0  0  0
   22.3385   -0.6397    3.4075 C   0  0  0  0  0 15  0  0  0  0  0  0
   21.3995    0.2336    4.2866 C   0  0  0  0  0 15  0  0  0  0  0  0
   20.6325   -0.5730    5.3062 C   0  0  0  0  0 15  0  0  0  0  0  0
   20.8555   -1.8082    5.4098 O   0  0  0  0  0 15  0  0  0  0  0  0
   19.7895    0.0327    6.0189 O   0  0  0  0  0 15  0  0  0  0  0  0
   23.6155    1.0169    2.8617 H   0  0  0  0  0 15  0  0  0  0  0  0
   21.2005    0.5617    1.3844 H   0  0  0  0  0 15  0  0  0  0  0  0
   23.0825   -1.1222    4.0618 H   0  0  0  0  0 15  0  0  0  0  0  0
   21.7575   -1.4271    2.9054 H   0  0  0  0  0 15  0  0  0  0  0  0
   20.6645    0.7631    3.6623 H   0  0  0  0  0 15  0  0  0  0  0  0
   21.9975    0.9848    4.8225 H   0  0  0  0  0 15  0  0  0  0  0  0
   23.6496   -1.4758    0.5530 N   0  0  0  0  0 15  0  0  0  0  0  0
   24.5596   -2.3374   -0.2004 C   0  0  0  0  0 15  0  0  0  0  0  0
   25.5756   -1.4793   -0.9162 C   0  0  0  0  0 15  0  0  0  0  0  0
   26.7516   -1.8086   -0.8860 O   0  0  0  0  0 15  0  0  0  0  0  0
   23.8166   -3.2454   -1.2197 C   0  0  0  0  0 15  0  0  0  0  0  0
   22.8776   -4.2624   -0.5118 C   0  0  0  0  0 15  0  0  0  0  0  0
   22.1106   -5.1269   -1.4826 C   0  0  0  0  0 15  0  0  0  0  0  0
   22.3336   -5.0153   -2.7171 O   0  0  0  0  0 15  0  0  0  0  0  0
   21.2676   -5.9337   -1.0094 O   0  0  0  0  0 15  0  0  0  0  0  0
   25.0936   -2.9945    0.5063 H   0  0  0  0  0 15  0  0  0  0  0  0
   22.6786   -1.4607    0.3136 H   0  0  0  0  0 15  0  0  0  0  0  0
   24.5606   -3.8063   -1.8083 H   0  0  0  0  0 15  0  0  0  0  0  0
   23.2356   -2.6146   -1.9084 H   0  0  0  0  0 15  0  0  0  0  0  0
   22.1426   -3.7391    0.1178 H   0  0  0  0  0 15  0  0  0  0  0  0
   23.4756   -4.9201    0.1353 H   0  0  0  0  0 15  0  0  0  0  0  0
   25.1277   -0.2892   -1.5492 N   0  0  0  0  0 15  0  0  0  0  0  0
   26.3737    0.3240   -2.0020 C   0  0  0  0  0 15  0  0  0  0  0  0
   26.7067    1.5444   -1.1774 C   0  0  0  0  0 15  0  0  0  0  0  0
   25.9817    1.9288   -0.2509 O   0  0  0  0  0 15  0  0  0  0  0  0
   26.2647    0.6923   -3.5338 C   0  0  0  0  0 15  0  0  0  0  0  0
   26.1177   -0.5365   -4.4659 C   0  0  0  0  0 15  0  0  0  0  0  0
   27.4367    1.5233   -4.1289 C   0  0  0  0  0 15  0  0  0  0  0  0
   24.5557    0.1163   -0.7278 H   0  0  0  0  0 15  0  0  0  0  0  0
   27.1977   -0.3990   -1.8576 H   0  0  0  0  0 15  0  0  0  0  0  0
   25.3477    1.3082   -3.6581 H   0  0  0  0  0 15  0  0  0  0  0  0
   27.0197   -1.1750   -4.4608 H   0  0  0  0  0 15  0  0  0  0  0  0
   25.2627   -1.1719   -4.1767 H   0  0  0  0  0 15  0  0  0  0  0  0
   25.9337   -0.2348   -5.5150 H   0  0  0  0  0 15  0  0  0  0  0  0
   28.4097    1.0030   -4.0383 H   0  0  0  0  0 15  0  0  0  0  0  0
   27.2857    1.7498   -5.2026 H   0  0  0  0  0 15  0  0  0  0  0  0
   27.5467    2.5089   -3.6402 H   0  0  0  0  0 15  0  0  0  0  0  0
   26.6058    1.5759   -0.0167 N   0  0  0  0  0 15  0  0  0  0  0  0
   27.5358    2.1250    0.9679 C   0  0  0  0  0 15  0  0  0  0  0  0
   28.5168    1.0381    1.3475 C   0  0  0  0  0 15  0  0  0  0  0  0
   29.7018    1.3158    1.4283 O   0  0  0  0  0 15  0  0  0  0  0  0
   26.8318    2.6419    2.2543 C   0  0  0  0  0 15  0  0  0  0  0  0
   25.7858    3.7756    2.0158 C   0  0  0  0  0 15  0  0  0  0  0  0
   25.1118    4.1564    3.3638 C   0  0  0  0  0 15  0  0  0  0  0  0
   26.4118    5.0415    1.3649 C   0  0  0  0  0 15  0  0  0  0  0  0
   28.1058    2.9501    0.5106 H   0  0  0  0  0 15  0  0  0  0  0  0
   25.6518    1.4191    0.2442 H   0  0  0  0  0 15  0  0  0  0  0  0
   27.6048    3.0124    2.9468 H   0  0  0  0  0 15  0  0  0  0  0  0
   26.3288    1.7882    2.7330 H   0  0  0  0  0 15  0  0  0  0  0  0
   24.9878    3.4094    1.3475 H   0  0  0  0  0 15  0  0  0  0  0  0
   24.6358    3.2726    3.8198 H   0  0  0  0  0 15  0  0  0  0  0  0
   24.3358    4.9202    3.2123 H   0  0  0  0  0 15  0  0  0  0  0  0
   25.8598    4.5525    4.0691 H   0  0  0  0  0 15  0  0  0  0  0  0
   27.2738    5.3886    1.9572 H   0  0  0  0  0 15  0  0  0  0  0  0
   25.6708    5.8545    1.3178 H   0  0  0  0  0 15  0  0  0  0  0  0
   26.7408    4.8373    0.3362 H   0  0  0  0  0 15  0  0  0  0  0  0
   28.0839   -0.2563    1.5550 N   0  0  0  0  0 15  0  0  0  0  0  0
   29.3119   -1.0034    1.8094 C   0  0  0  0  0 15  0  0  0  0  0  0
   29.7269   -1.7931    0.5911 C   0  0  0  0  0 15  0  0  0  0  0  0
   29.0839   -1.7711   -0.4401 O   0  0  0  0  0 15  0  0  0  0  0  0
   29.1349   -1.9488    3.0448 C   0  0  0  0  0 15  0  0  0  0  0  0
   28.8559   -1.1911    4.2160 O   0  0  0  0  0 15  0  0  0  0  0  0
   30.3569   -2.8127    3.4264 C   0  0  0  0  0 15  0  0  0  0  0  0
   27.5769   -0.2957    0.6023 H   0  0  0  0  0 15  0  0  0  0  0  0
   30.1209   -0.2820    2.0255 H   0  0  0  0  0 15  0  0  0  0  0  0
   28.2759   -2.6246    2.8495 H   0  0  0  0  0 15  0  0  0  0  0  0
   28.6899   -1.8297    4.9155 H   0  0  0  0  0 15  0  0  0  0  0  0
   30.1639   -3.4336    4.3221 H   0  0  0  0  0 15  0  0  0  0  0  0
   30.6409   -3.5190    2.6280 H   0  0  0  0  0 15  0  0  0  0  0  0
   31.2469   -2.1915    3.6449 H   0  0  0  0  0 15  0  0  0  0  0  0
   29.5620   -1.4872   -0.5215 N   0  0  0  0  0 15  0  0  0  0  0  0
   30.8080   -1.5740   -1.2788 C   0  0  0  0  0 15  0  0  0  0  0  0
   31.1410   -0.2508   -1.9257 C   0  0  0  0  0 15  0  0  0  0  0  0
   30.4160    0.7439   -1.7971 O   0  0  0  0  0 15  0  0  0  0  0  0
   30.6990   -2.7184   -2.3616 C   0  0  0  0  0 15  0  0  0  0  0  0
   30.5520   -4.1389   -1.7610 C   0  0  0  0  0 15  0  0  0  0  0  0
   31.8710   -2.8201   -3.3788 C   0  0  0  0  0 15  0  0  0  0  0  0
   28.9900   -0.5729   -0.4636 H   0  0  0  0  0 15  0  0  0  0  0  0
   31.6320   -1.8093   -0.5801 H   0  0  0  0  0 15  0  0  0  0  0  0
   29.7820   -2.5191   -2.9576 H   0  0  0  0  0 15  0  0  0  0  0  0
   31.4540   -4.4528   -1.2050 H   0  0  0  0  0 15  0  0  0  0  0  0
   29.6970   -4.2050   -1.0660 H   0  0  0  0  0 15  0  0  0  0  0  0
   30.3680   -4.8980   -2.5455 H   0  0  0  0  0 15  0  0  0  0  0  0
   32.8440   -3.0009   -2.8825 H   0  0  0  0  0 15  0  0  0  0  0  0
   31.7200   -3.6380   -4.1103 H   0  0  0  0  0 15  0  0  0  0  0  0
   31.9810   -1.9051   -3.9895 H   0  0  0  0  0 15  0  0  0  0  0  0
   31.0401    0.7711   -1.3745 N   0  0  0  0  0 15  0  0  0  0  0  0
   31.9871    1.8844   -1.3327 C   0  0  0  0  0 15  0  0  0  0  0  0
   32.9571    1.6491   -0.1981 C   0  0  0  0  0 15  0  0  0  0  0  0
   34.1421    1.8682   -0.3876 O   0  0  0  0  0 15  0  0  0  0  0  0
   31.2821    3.2551   -1.1462 C   0  0  0  0  0 15  0  0  0  0  0  0
   30.3951    3.6098   -2.3731 C   0  0  0  0  0 15  0  0  0  0  0  0
   29.5301    4.8727   -2.1153 C   0  0  0  0  0 15  0  0  0  0  0  0
   28.5691    5.1547   -3.3009 C   0  0  0  0  0 15  0  0  0  0  0  0
   27.7061    6.3294   -3.0385 N   0  0  0  0  0 15  0  0  0  0  0  0
   32.5461    1.9134   -2.2845 H   0  0  0  0  0 15  0  0  0  0  0  0
   30.0831    0.9355   -1.1352 H   0  0  0  0  0 15  0  0  0  0  0  0
   32.0411    4.0458   -1.0183 H   0  0  0  0  0 15  0  0  0  0  0  0
   30.6711    3.2197   -0.2308 H   0  0  0  0  0 15  0  0  0  0  0  0
   29.7231    2.7689   -2.6084 H   0  0  0  0  0 15  0  0  0  0  0  0
   31.0351    3.7776   -3.2573 H   0  0  0  0  0 15  0  0  0  0  0  0
   30.1891    5.7424   -1.9578 H   0  0  0  0  0 15  0  0  0  0  0  0
   28.9281    4.7259   -1.2046 H   0  0  0  0  0 15  0  0  0  0  0  0
   27.9331    4.2697   -3.4638 H   0  0  0  0  0 15  0  0  0  0  0  0
   29.1581    5.3205   -4.2202 H   0  0  0  0  0 15  0  0  0  0  0  0
   27.1041    6.1963   -2.1541 H   0  0  0  0  0 15  0  0  0  0  0  0
   27.0211    6.5014   -3.8581 H   0  0  0  0  0 15  0  0  0  0  0  0
   28.2891    7.2286   -2.9172 H   0  0  0  0  0 15  0  0  0  0  0  0
   32.5182    1.2203    0.9973 N   0  0  0  0  0 15  0  0  0  0  0  0
   33.4282    1.0027    2.1209 C   0  0  0  0  0 15  0  0  0  0  0  0
   34.4442   -0.0476    1.7393 C   0  0  0  0  0 15  0  0  0  0  0  0
   35.6202    0.1441    2.0088 O   0  0  0  0  0 15  0  0  0  0  0  0
   32.6852    0.5784    3.4184 C   0  0  0  0  0 15  0  0  0  0  0  0
   31.7462    1.7019    3.9412 C   0  0  0  0  0 15  0  0  0  0  0  0
   30.9792    1.2978    5.1768 C   0  0  0  0  0 15  0  0  0  0  0  0
   31.2022    0.1747    5.7013 O   0  0  0  0  0 15  0  0  0  0  0  0
   30.1362    2.1126    5.6361 O   0  0  0  0  0 15  0  0  0  0  0  0
   33.9622    1.9440    2.3333 H   0  0  0  0  0 15  0  0  0  0  0  0
   31.5472    1.0059    1.1047 H   0  0  0  0  0 15  0  0  0  0  0  0
   33.4292    0.3520    4.1993 H   0  0  0  0  0 15  0  0  0  0  0  0
   32.1042   -0.3340    3.2197 H   0  0  0  0  0 15  0  0  0  0  0  0
   31.0112    1.9828    3.1723 H   0  0  0  0  0 15  0  0  0  0  0  0
   32.3442    2.5921    4.1842 H   0  0  0  0  0 15  0  0  0  0  0  0
   33.9963   -1.1934    1.0293 N   0  0  0  0  0 15  0  0  0  0  0  0
   35.2453   -1.8836    0.7213 C   0  0  0  0  0 15  0  0  0  0  0  0
   35.5583   -1.8051   -0.7533 C   0  0  0  0  0 15  0  0  0  0  0  0
   36.7643   -2.4479   -1.1744 O   0  0  0  0  0 15  0  0  0  0  0  0
   35.2203   -3.3787    1.2398 C   0  0  0  0  0 15  0  0  0  0  0  0
   34.8283   -3.5428    2.7421 C   0  0  0  0  0 15  0  0  0  0  0  0
   36.5723   -4.1236    1.0077 C   0  0  0  0  0 15  0  0  0  0  0  0
   34.4793   -4.9768    3.1948 C   0  0  0  0  0 15  0  0  0  0  0  0
   33.4093   -0.7055    0.2661 H   0  0  0  0  0 15  0  0  0  0  0  0
   36.0603   -1.3493    1.2437 H   0  0  0  0  0 15  0  0  0  0  0  0
   34.4423   -3.9071    0.6453 H   0  0  0  0  0 15  0  0  0  0  0  0
   35.6163   -3.1177    3.3932 H   0  0  0  0  0 15  0  0  0  0  0  0
   33.9313   -2.9317    2.9570 H   0  0  0  0  0 15  0  0  0  0  0  0
   36.5283   -5.1812    1.3212 H   0  0  0  0  0 15  0  0  0  0  0  0
   36.8713   -4.1626   -0.0554 H   0  0  0  0  0 15  0  0  0  0  0  0
   37.4043   -3.6567    1.5663 H   0  0  0  0  0 15  0  0  0  0  0  0
   34.1433   -4.9895    4.2513 H   0  0  0  0  0 15  0  0  0  0  0  0
   33.6633   -5.4095    2.5910 H   0  0  0  0  0 15  0  0  0  0  0  0
   35.3423   -5.6634    3.1284 H   0  0  0  0  0 15  0  0  0  0  0  0
   35.4744   -0.8072   -1.3536 N   0  0  0  0  0 15  0  0  0  0  0  0
   36.7024   -0.4004   -2.0299 C   0  0  0  0  0 15  0  0  0  0  0  0
   37.1174    0.9889   -1.6083 C   0  0  0  0  0 15  0  0  0  0  0  0
   36.4744    1.6373   -0.8062 O   0  0  0  0  0 15  0  0  0  0  0  0
   36.5254   -0.4749   -3.5837 C   0  0  0  0  0 15  0  0  0  0  0  0
   36.2464   -1.8093   -3.9899 O   0  0  0  0  0 15  0  0  0  0  0  0
   37.7474   -0.0609   -4.4326 C   0  0  0  0  0 15  0  0  0  0  0  0
   34.9674   -0.1626   -0.6510 H   0  0  0  0  0 15  0  0  0  0  0  0
   37.5114   -1.0910   -1.7297 H   0  0  0  0  0 15  0  0  0  0  0  0
   35.6664    0.1675   -3.8704 H   0  0  0  0  0 15  0  0  0  0  0  0
   36.0804   -1.7726   -4.9364 H   0  0  0  0  0 15  0  0  0  0  0  0
   37.5544   -0.1641   -5.5176 H   0  0  0  0  0 15  0  0  0  0  0  0
   38.0314    0.9938   -4.2781 H   0  0  0  0  0 15  0  0  0  0  0  0
   38.6374   -0.6765   -4.1989 H   0  0  0  0  0 15  0  0  0  0  0  0
   36.9914    1.4545   -0.7018 O   0  0  0  0  0 15  0  0  0  0  0  0
   37.6824    1.9218   -0.2425 H   0  0  0  0  0 15  0  0  0  0  0  0
M  END
$$$$
