drugbank_target|Q16566 Calcium/calmodulin-dependent protein kinase type IV (DB07664; DB07676)
 OpenBabel12092120453D

  0  0  0     0  0            999 V3000
M  V30 BEGIN CTAB
M  V30 COUNTS 7340 7410 0 0 0
M  V30 BEGIN ATOM
M  V30 1 H -0.908 1.98254 -0.117106 0
M  V30 2 N 0 1.576 0 0
M  V30 3 C 0.933 2.03868 1.02534 0
M  V30 4 C 1.911 0.928543 1.3348 0
M  V30 5 O 3.095 1.19667 1.45644 0
M  V30 6 C 0.222 2.43627 2.35294 0
M  V30 7 C -0.732 3.65373 2.2001 0
M  V30 8 S 0.101 5.13292 1.52614 0
M  V30 9 C 1.257 5.56322 2.86805 0
M  V30 10 H 1.49 2.90518 0.631377 0
M  V30 11 H -0.977 1.52953 0.210867 0
M  V30 12 H 0.981 2.67203 3.11629 0
M  V30 13 H -0.358 1.57376 2.7183 0
M  V30 14 H -1.165 3.90944 3.18086 0
M  V30 15 H -1.563 3.418 1.51819 0
M  V30 16 H 0.729 5.58782 3.83104 0
M  V30 17 H 1.672 6.56266 2.65933 0
M  V30 18 H 2.08 4.83886 2.90714 0
M  V30 19 N 1.4781 -0.272755 1.55222 0
M  V30 20 C 2.4081 -1.34136 1.91127 0
M  V30 21 C 3.3891 -1.51513 0.773168 0
M  V30 22 O 4.5741 -1.64552 1.03132 0
M  V30 23 C 1.7041 -2.70083 2.1834 0
M  V30 24 C 0.6581 -2.67437 3.34158 0
M  V30 25 C -0.0159 -4.06938 3.46851 0
M  V30 26 C 1.2841 -2.26686 4.70543 0
M  V30 27 H 2.9781 -1.04333 2.80633 0
M  V30 28 H 0.5241 -0.500454 1.35024 0
M  V30 29 H 2.4771 -3.44952 2.42046 0
M  V30 30 H 1.2011 -3.01469 1.25634 0
M  V30 31 H -0.1399 -1.95026 3.1042 0
M  V30 32 H -0.4919 -4.35547 2.51611 0
M  V30 33 H -0.7919 -4.06062 4.2472 0
M  V30 34 H 0.7321 -4.83545 3.72849 0
M  V30 35 H 2.1461 -2.91277 4.93792 0
M  V30 36 H 0.5431 -2.36971 5.5133 0
M  V30 37 H 1.6131 -1.21818 4.69349 0
M  V30 38 N 2.9562 -1.48159 -0.537278 0
M  V30 39 C 3.9032 -1.62138 -1.64256 0
M  V30 40 C 4.8732 -0.463668 -1.59497 0
M  V30 41 O 6.0582 -0.686241 -1.78032 0
M  V30 42 C 3.1982 -1.66028 -3.02537 0
M  V30 43 C 2.3112 -2.92855 -3.17585 0
M  V30 44 C 1.4462 -2.87952 -4.46382 0
M  V30 45 C 0.4852 -4.09516 -4.54932 0
M  V30 46 N -0.3778 -4.02733 -5.75109 0
M  V30 47 H 4.4622 -2.56529 -1.51647 0
M  V30 48 H 1.9992 -1.27224 -0.738414 0
M  V30 49 H 3.9572 -1.66265 -3.82638 0
M  V30 50 H 2.5872 -0.751331 -3.13934 0
M  V30 51 H 1.6392 -3.02395 -2.30784 0
M  V30 52 H 2.9512 -3.82822 -3.19764 0
M  V30 53 H 2.1052 -2.8655 -5.34765 0
M  V30 54 H 0.8442 -1.95702 -4.46712 0
M  V30 55 H -0.1508 -4.11201 -3.64957 0
M  V30 56 H 1.0742 -5.02917 -4.56346 0
M  V30 57 H -0.9798 -3.13299 -5.76351 0
M  V30 58 H -1.0628 -4.86397 -5.78752 0
M  V30 59 H 0.2052 -4.05379 -6.65799 0
M  V30 60 N 4.4343 0.785586 -1.36625 0
M  V30 61 C 5.6803 1.54591 -1.31261 0
M  V30 62 C 6.0133 1.93906 0.106823 0
M  V30 63 O 5.2883 1.63007 1.06108 0
M  V30 64 C 5.5713 2.82038 -2.23889 0
M  V30 65 C 5.4243 2.49066 -3.74548 0
M  V30 66 C 6.7433 3.83887 -2.15217 0
M  V30 67 H 3.8623 0.560846 -0.478143 0
M  V30 68 H 6.5043 0.902278 -1.67209 0
M  V30 69 H 4.6543 3.36961 -1.93363 0
M  V30 70 H 6.3263 2.00164 -4.15611 0
M  V30 71 H 4.5693 1.81954 -3.93796 0
M  V30 72 H 5.2403 3.40109 -4.34776 0
M  V30 73 H 7.7163 3.38421 -2.42096 0
M  V30 74 H 6.5923 4.70806 -2.82193 0
M  V30 75 H 6.8533 4.27131 -1.14068 0
M  V30 76 N 5.9124 1.20967 1.01018 0
M  V30 77 C 7.1404 1.04956 1.78303 0
M  V30 78 C 7.5554 -0.400915 1.84494 0
M  V30 79 O 6.9124 -1.27826 1.30257 0
M  V30 80 C 6.9634 1.63403 3.22462 0
M  V30 81 O 6.6844 3.02775 3.16637 0
M  V30 82 C 8.1854 1.52432 4.16268 0
M  V30 83 H 5.4054 0.368858 0.560522 0
M  V30 84 H 7.9494 1.60193 1.27116 0
M  V30 85 H 6.1044 1.1227 3.70775 0
M  V30 86 H 6.5184 3.30626 4.07169 0
M  V30 87 H 7.9924 1.98078 5.15237 0
M  V30 88 H 8.4694 0.477875 4.36592 0
M  V30 89 H 9.0754 2.02787 3.73841 0
M  V30 90 N 7.3905 -1.2043 1.01659 0
M  V30 91 C 8.6365 -1.90079 0.706963 0
M  V30 92 C 8.9695 -1.78648 -0.761474 0
M  V30 93 O 8.2445 -1.17069 -1.55323 0
M  V30 94 C 8.5275 -3.41469 1.14327 0
M  V30 95 C 8.3805 -3.61833 2.67201 0
M  V30 96 C 9.6995 -4.34261 0.714529 0
M  V30 97 H 6.8185 -0.690254 0.2583 0
M  V30 98 H 9.4605 -1.41826 1.26433 0
M  V30 99 H 7.6105 -3.82696 0.669056 0
M  V30 100 H 9.2825 -3.2986 3.22475 0
M  V30 101 H 7.5255 -3.05304 3.08175 0
M  V30 102 H 8.1965 -4.67955 2.92783 0
M  V30 103 H 10.6725 -4.00682 1.12221 0
M  V30 104 H 9.5485 -5.38806 1.04784 0
M  V30 105 H 9.8095 -4.40431 -0.383799 0
M  V30 106 N 8.8686 -0.792821 -1.36206 0
M  V30 107 C 10.2796 -0.429513 -1.81692 0
M  V30 108 C 10.6306 1.04695 -1.65932 0
M  V30 109 O 9.7556 1.81256 -1.18218 0
M  V30 110 C 10.3506 -0.772831 -3.29868 0
M  V30 111 C 8.9096 -0.462307 -3.7355 0
M  V30 112 C 8.0566 -1.00569 -2.5842 0
M  V30 113 H 11.0076 -0.985672 -1.24379 0
M  V30 114 H 11.0286 -0.0651928 -3.80444 0
M  V30 115 H 10.5406 -1.84747 -3.41307 0
M  V30 116 H 8.6416 0.604158 -3.67669 0
M  V30 117 H 8.7546 -0.985299 -4.68859 0
M  V30 118 H 7.1186 -0.428734 -2.51066 0
M  V30 119 H 7.9016 -2.08616 -2.72643 0
M  V30 120 N 10.3467 1.47872 -0.545128 0
M  V30 121 C 11.5717 2.07391 -0.0190611 0
M  V30 122 C 11.9967 1.39688 1.25971 0
M  V30 123 O 11.3547 0.467816 1.7516 0
M  V30 124 C 11.4027 3.60188 0.172335 0
M  V30 125 O 10.5067 3.9339 1.23766 0
M  V30 126 H 9.8477 0.662411 -0.0459059 0
M  V30 127 H 12.3777 1.90066 -0.757365 0
M  V30 128 H 12.3877 4.06129 0.390305 0
M  V30 129 H 11.0627 4.08865 -0.761725 0
M  V30 130 H 9.6397 3.5921 1.00114 0
M  V30 131 N 11.8248 0.280983 1.55075 0
M  V30 132 C 13.0648 -0.335234 2.01632 0
M  V30 133 C 13.4288 -1.5261 1.16508 0
M  V30 134 O 14.6298 -2.21235 1.52672 0
M  V30 135 C 12.9008 -0.702172 3.50434 0
M  V30 136 S 14.4598 -1.30409 4.18974 0
M  V30 137 H 11.2778 -0.103967 0.703358 0
M  V30 138 H 13.8798 0.404187 1.91276 0
M  V30 139 H 12.5838 0.17333 4.10034 0
M  V30 140 H 12.1148 -1.4729 3.64786 0
M  V30 141 H 14.1298 -2.59253 4.23087 0
M  V30 142 N 13.3029 -1.57598 0.00835791 0
M  V30 143 C 14.5279 -1.95617 -0.689103 0
M  V30 144 C 14.9529 -0.883753 -1.66046 0
M  V30 145 O 14.3109 0.157352 -1.80616 0
M  V30 146 C 14.3589 -3.32736 -1.38994 0
M  V30 147 O 13.4629 -3.27631 -2.50463 0
M  V30 148 H 12.8039 -0.638379 -0.182668 0
M  V30 149 H 15.3339 -2.045 0.064036 0
M  V30 150 H 15.3439 -3.68494 -1.75147 0
M  V30 151 H 14.0189 -4.1034 -0.677778 0
M  V30 152 H 12.5959 -3.03561 -2.16576 0
M  V30 153 N 14.781 0.264519 -1.55364 0
M  V30 154 C 15.744 1.31046 -1.88042 0
M  V30 155 C 16.744 1.41943 -0.755569 0
M  V30 156 O 17.934 1.40947 -1.02369 0
M  V30 157 C 15.066 2.69067 -2.09323 0
M  V30 158 H 16.259 1.03297 -2.81549 0
M  V30 159 H 13.812 0.502989 -1.47986 0
M  V30 160 H 14.547 3.01982 -1.18226 0
M  V30 161 H 14.332 2.62542 -2.91229 0
M  V30 162 H 15.822 3.44623 -2.35848 0
M  V30 163 N 16.2591 1.48442 0.529413 0
M  V30 164 C 17.4841 1.60406 1.31471 0
M  V30 165 C 17.9091 0.264738 1.86228 0
M  V30 166 O 17.2671 -0.763668 1.64432 0
M  V30 167 C 17.3151 2.65419 2.44101 0
M  V30 168 O 16.4191 2.22618 3.47153 0
M  V30 169 H 15.7601 0.537863 0.389357 0
M  V30 170 H 18.2901 1.94432 0.636965 0
M  V30 171 H 18.3001 2.86709 2.90279 0
M  V30 172 H 16.9751 3.62652 2.03608 0
M  V30 173 H 15.5521 2.11543 3.0709 0
M  V30 174 N 17.7372 -0.778329 1.37039 0
M  V30 175 C 18.9622 -1.57248 1.35233 0
M  V30 176 C 19.3872 -1.87999 -0.0615568 0
M  V30 177 O 18.7452 -1.48734 -1.03672 0
M  V30 178 C 18.7932 -2.86353 2.19167 0
M  V30 179 O 17.8972 -3.80442 1.59178 0
M  V30 180 H 17.2382 -0.476569 0.462362 0
M  V30 181 H 19.7682 -0.963853 1.80474 0
M  V30 182 H 19.7782 -3.35519 2.32145 0
M  V30 183 H 18.4532 -2.63299 3.21942 0
M  V30 184 H 17.0302 -3.39067 1.55203 0
M  V30 185 N 19.2153 -1.21501 -1.00376 0
M  V30 186 C 20.4553 -1.04444 -1.75701 0
M  V30 187 C 20.8193 0.414644 -1.87469 0
M  V30 188 O 22.0203 0.705763 -2.59369 0
M  V30 189 C 20.2913 -1.72389 -3.13077 0
M  V30 190 S 21.8503 -1.70604 -4.04277 0
M  V30 191 H 18.6683 -0.374249 -0.604532 0
M  V30 192 H 21.2703 -1.54267 -1.20091 0
M  V30 193 H 19.9743 -2.77734 -3.02146 0
M  V30 194 H 19.5053 -1.22751 -3.73759 0
M  V30 195 H 21.5203 -0.748012 -4.9053 0
M  V30 196 N 20.6934 1.19889 -1.02296 0
M  V30 197 C 21.9184 1.9393 -0.735237 0
M  V30 198 C 22.3434 1.74639 0.698782 0
M  V30 199 O 21.7014 1.04481 1.48167 0
M  V30 200 C 21.7494 3.43916 -1.08417 0
M  V30 201 O 20.8534 4.11917 -0.199446 0
M  V30 202 H 20.1944 0.605645 -0.272196 0
M  V30 203 H 22.7244 1.52137 -1.36804 0
M  V30 204 H 22.7344 3.9456 -1.03856 0
M  V30 205 H 21.4094 3.5728 -2.12894 0
M  V30 206 H 19.9864 3.71666 -0.303136 0
M  V30 207 N 22.1715 0.800033 1.35784 0
M  V30 208 C 23.3965 0.388511 2.03729 0
M  V30 209 C 23.8215 -0.990481 1.5991 0
M  V30 210 O 23.1795 -1.64013 0.772612 0
M  V30 211 C 23.2275 0.4726 3.5749 0
M  V30 212 O 22.3315 -0.51646 4.09153 0
M  V30 213 H 21.6725 0.163271 0.643614 0
M  V30 214 H 24.2025 1.0841 1.73518 0
M  V30 215 H 24.2125 0.34003 4.06581 0
M  V30 216 H 22.8875 1.47848 3.88734 0
M  V30 217 H 21.4645 -0.344673 3.71304 0
M  V30 218 N 23.6496 -1.47581 0.552962 0
M  V30 219 C 24.8956 -2.02782 0.0273648 0
M  V30 220 C 25.2286 -1.42687 -1.31734 0
M  V30 221 O 24.5036 -0.580897 -1.85623 0
M  V30 222 C 24.7866 -3.60031 -0.0702371 0
M  V30 223 C 24.6396 -4.30566 1.30126 0
M  V30 224 C 25.9586 -4.33028 -0.785771 0
M  V30 225 H 23.0776 -0.736912 0.0114185 0
M  V30 226 H 25.7196 -1.76056 0.714432 0
M  V30 227 H 23.8696 -3.82932 -0.655382 0
M  V30 228 H 25.5416 -4.19018 1.92929 0
M  V30 229 H 23.7846 -3.91086 1.87709 0
M  V30 230 H 24.4556 -5.39114 1.18573 0
M  V30 231 H 26.9316 -4.15095 -0.288982 0
M  V30 232 H 25.8076 -5.42695 -0.823013 0
M  V30 233 H 26.0686 -4.01945 -1.841 0
M  V30 234 N 25.1277 -0.289203 -1.54924 0
M  V30 235 C 26.3557 0.326463 -2.04308 0
M  V30 236 C 26.7707 1.48413 -1.16701 0
M  V30 237 O 26.1277 1.81507 -0.190087 0
M  V30 238 C 26.1787 0.794014 -3.52672 0
M  V30 239 O 25.8997 -0.317564 -4.36948 0
M  V30 240 C 27.4007 1.47605 -4.18004 0
M  V30 241 H 24.6207 0.0726272 -0.667058 0
M  V30 242 H 27.1647 -0.425401 -2.00026 0
M  V30 243 H 25.3197 1.49593 -3.57352 0
M  V30 244 H 25.7337 0.0443186 -5.24481 0
M  V30 245 H 27.2077 1.75447 -5.23376 0
M  V30 246 H 27.6847 2.41224 -3.67025 0
M  V30 247 H 28.2907 0.81762 -4.17367 0
M  V30 248 N 26.6058 1.57591 -0.0167156 0
M  V30 249 C 27.5688 2.08393 0.954204 0
M  V30 250 C 28.5688 0.996531 1.26198 0
M  V30 251 O 29.7588 1.25858 1.20438 0
M  V30 252 C 26.8908 2.5394 2.27436 0
M  V30 253 H 28.0838 2.95455 0.514451 0
M  V30 254 H 25.6368 1.54582 0.231089 0
M  V30 255 H 26.3718 1.70171 2.76066 0
M  V30 256 H 26.1568 3.33371 2.06412 0
M  V30 257 H 27.6468 2.93512 2.97053 0
M  V30 258 N 28.0839 -0.256276 1.55502 0
M  V30 259 C 29.3089 -1.00766 1.81276 0
M  V30 260 C 29.7339 -1.78524 0.59252 0
M  V30 261 O 29.0919 -1.75413 -0.45827 0
M  V30 262 C 29.1399 -1.92869 3.04687 0
M  V30 263 O 28.2439 -3.019 2.80945 0
M  V30 264 H 27.5849 -0.287224 0.598664 0
M  V30 265 H 30.1149 -0.280109 2.02674 0
M  V30 266 H 30.1249 -2.34511 3.33869 0
M  V30 267 H 28.7999 -1.35689 3.93143 0
M  V30 268 H 27.3769 -2.64454 2.62904 0
M  V30 269 N 29.562 -1.4872 -0.521534 0
M  V30 270 C 30.525 -1.63379 -1.60748 0
M  V30 271 C 31.525 -0.50661 -1.52611 0
M  V30 272 O 32.715 -0.772601 -1.5613 0
M  V30 273 C 29.847 -1.61192 -3.00383 0
M  V30 274 H 31.04 -2.60217 -1.49087 0
M  V30 275 H 28.593 -1.37444 -0.744235 0
M  V30 276 H 29.328 -0.65863 -3.17541 0
M  V30 277 H 29.113 -2.43032 -3.07698 0
M  V30 278 H 30.603 -1.7466 -3.7932 0
M  V30 279 N 31.0401 0.771051 -1.3745 0
M  V30 280 C 32.0031 1.86598 -1.33093 0
M  V30 281 C 33.0031 1.59076 -0.234845 0
M  V30 282 O 34.1931 1.67145 -0.490732 0
M  V30 283 C 31.3251 3.23747 -1.06773 0
M  V30 284 H 32.5181 1.91873 -2.30488 0
M  V30 285 H 30.0711 0.970876 -1.2249 0
M  V30 286 H 30.8061 3.24148 -0.099129 0
M  V30 287 H 30.5911 3.45115 -1.86112 0
M  V30 288 H 32.0811 4.03824 -1.06377 0
M  V30 289 N 32.5182 1.22032 0.997298 0
M  V30 290 C 33.9292 1.0397 1.55071 0
M  V30 291 C 34.2802 -0.398192 1.92117 0
M  V30 292 O 33.4052 -1.28254 1.74298 0
M  V30 293 C 34.0002 1.88109 2.81781 0
M  V30 294 C 32.5592 1.74357 3.33581 0
M  V30 295 C 31.7062 1.84846 2.06706 0
M  V30 296 H 34.6572 1.35941 0.818883 0
M  V30 297 H 34.6782 1.39589 3.53971 0
M  V30 298 H 34.1902 2.92754 2.54787 0
M  V30 299 H 32.2912 0.72427 3.65493 0
M  V30 300 H 32.4042 2.56772 4.04481 0
M  V30 301 H 30.7682 1.28238 2.20062 0
M  V30 302 H 31.5512 2.91014 1.82114 0
M  V30 303 N 33.9963 -1.19345 1.0293 0
M  V30 304 C 35.2443 -1.88665 0.724574 0
M  V30 305 C 35.5653 -1.80036 -0.749144 0
M  V30 306 O 34.8353 -1.2111 -1.53978 0
M  V30 307 H 33.4153 -0.698406 0.265025 0
M  V30 308 H 36.0773 -1.44885 1.30362 0
M  V30 309 H 35.1733 -2.94987 1.01926 0
M  V30 310 N 35.4744 -0.807222 -1.35358 0
M  V30 311 C 36.7024 -0.400377 -2.02989 0
M  V30 312 C 37.1174 0.988859 -1.60832 0
M  V30 313 O 36.4744 1.63729 -0.806175 0
M  V30 314 C 36.5254 -0.474867 -3.58368 0
M  V30 315 O 36.2464 -1.80933 -3.98992 0
M  V30 316 C 37.7474 -0.0609112 -4.43258 0
M  V30 317 H 34.9674 -0.162587 -0.651004 0
M  V30 318 H 37.5114 -1.09102 -1.72965 0
M  V30 319 H 35.6664 0.167534 -3.87038 0
M  V30 320 H 36.0804 -1.77256 -4.9364 0
M  V30 321 H 37.5544 -0.164145 -5.51756 0
M  V30 322 H 38.0314 0.993831 -4.27808 0
M  V30 323 H 38.6374 -0.676492 -4.19885 0
M  V30 324 N 36.9525 1.47285 -0.560781 0
M  V30 325 C 37.9155 2.28535 0.174488 0
M  V30 326 C 38.9155 1.37153 0.839388 0
M  V30 327 O 40.1055 1.59748 0.694702 0
M  V30 328 C 37.2375 3.16934 1.25561 0
M  V30 329 H 38.4305 2.95012 -0.539262 0
M  V30 330 H 35.9835 1.53034 -0.317865 0
M  V30 331 H 36.7185 2.55157 2.00164 0
M  V30 332 H 36.5035 3.8419 0.783604 0
M  V30 333 H 37.9935 3.78143 1.77193 0
M  V30 334 N 38.4306 0.297415 1.54768 0
M  V30 335 C 39.6556 -0.318435 2.04941 0
M  V30 336 C 40.0806 -1.4701 1.17345 0
M  V30 337 O 39.4386 -1.80436 0.176758 0
M  V30 338 C 39.4866 -0.755749 3.52592 0
M  V30 339 O 38.5906 -1.86088 3.68028 0
M  V30 340 H 37.9316 -0.062421 0.661059 0
M  V30 341 H 40.4616 0.438215 1.99852 0
M  V30 342 H 40.4716 -1.04552 3.94376 0
M  V30 343 H 39.1466 0.0867233 4.1581 0
M  V30 344 H 37.7236 -1.57193 3.38149 0
M  V30 345 N 39.9087 -1.5758 0.0250728 0
M  V30 346 C 40.8387 -2.13007 -0.956575 0
M  V30 347 C 41.8197 -1.0452 -1.342 0
M  V30 348 O 43.0047 -1.32332 -1.42133 0
M  V30 349 C 40.1347 -2.65386 -2.24026 0
M  V30 350 C 39.0887 -3.78623 -1.99571 0
M  V30 351 C 38.4147 -4.17414 -3.3417 0
M  V30 352 C 39.7147 -5.04867 -1.33814 0
M  V30 353 H 41.4087 -2.9528 -0.494991 0
M  V30 354 H 38.9547 -1.42042 -0.236651 0
M  V30 355 H 40.9077 -3.02794 -2.93076 0
M  V30 356 H 39.6317 -1.80268 -2.72343 0
M  V30 357 H 38.2907 -3.41646 -1.32941 0
M  V30 358 H 37.9387 -3.29284 -3.80238 0
M  V30 359 H 37.6387 -4.93719 -3.18615 0
M  V30 360 H 39.1627 -4.57402 -4.04495 0
M  V30 361 H 40.5767 -5.39888 -1.92857 0
M  V30 362 H 38.9737 -5.86144 -1.28669 0
M  V30 363 H 40.0437 -4.83904 -0.310561 0
M  V30 364 N 41.3868 0.248026 -1.55636 0
M  V30 365 C 42.6328 0.97767 -1.77678 0
M  V30 366 C 42.9658 1.85016 -0.590135 0
M  V30 367 O 42.2408 1.90095 0.411611 0
M  V30 368 C 42.5238 1.83914 -3.09593 0
M  V30 369 C 42.3768 0.99491 -4.38659 0
M  V30 370 C 43.6958 2.82183 -3.37729 0
M  V30 371 H 40.8148 0.354005 -0.646413 0
M  V30 372 H 43.4568 0.248253 -1.88371 0
M  V30 373 H 41.6068 2.46104 -3.00608 0
M  V30 374 H 43.2788 0.391789 -4.59633 0
M  V30 375 H 41.5218 0.299231 -4.32767 0
M  V30 376 H 42.1928 1.63145 -5.2734 0
M  V30 377 H 44.6688 2.30129 -3.4667 0
M  V30 378 H 43.5448 3.39582 -4.31249 0
M  V30 379 H 43.8058 3.58588 -2.58586 0
M  V30 380 N 42.8649 1.48995 0.513639 0
M  V30 381 C 44.2759 1.5119 1.09537 0
M  V30 382 C 44.6269 0.290906 1.94031 0
M  V30 383 O 43.7519 -0.60049 2.07902 0
M  V30 384 C 44.3469 2.73964 1.99322 0
M  V30 385 C 42.9059 2.78978 2.52682 0
M  V30 386 C 42.0529 2.44934 1.30009 0
M  V30 387 H 45.0039 1.55875 0.298125 0
M  V30 388 H 45.0249 2.53409 2.83838 0
M  V30 389 H 44.5369 3.62813 1.37799 0
M  V30 390 H 42.6379 1.94378 3.1788 0
M  V30 391 H 42.7509 3.8083 2.90698 0
M  V30 392 H 41.1149 1.9644 1.62122 0
M  V30 393 H 41.8979 3.36043 0.702131 0
M  V30 394 N 44.343 -0.763751 1.37857 0
M  V30 395 C 45.62 -1.51244 1.24035 0
M  V30 396 C 46 -2.10472 -0.162649 0
M  V30 397 O 45.348 -1.96206 -1.17112 0
M  V30 398 C 45.558 -2.58694 2.34261 0
M  V30 399 C 46.906 -3.25878 2.72193 0
M  V30 400 O 47.93 -2.68993 2.33497 0
M  V30 401 O 46.789 -4.2874 3.38887 0
M  V30 402 H 43.883 -0.670243 0.484462 0
M  V30 403 H 46.429 -0.800031 1.49658 0
M  V30 404 H 45.201 -2.13105 3.2818 0
M  V30 405 H 44.824 -3.37527 2.10146 0
M  V30 406 N 45.8211 -1.22559 -0.990812 0
M  V30 407 C 47.0511 -1.07623 -1.76355 0
M  V30 408 C 47.4591 0.37601 -1.85426 0
M  V30 409 O 46.8021 1.27228 -1.32509 0
M  V30 410 C 46.8641 -1.61507 -3.21179 0
M  V30 411 C 46.5281 -3.10146 -3.35646 0
M  V30 412 C 47.5251 -4.07553 -3.22796 0
M  V30 413 C 45.2101 -3.49644 -3.60631 0
M  V30 414 C 47.2041 -5.42442 -3.34716 0
M  V30 415 C 44.8911 -4.84682 -3.72192 0
M  V30 416 C 45.8891 -5.8089 -3.59243 0
M  V30 417 O 45.5771 -7.13476 -3.70415 0
M  V30 418 H 45.3091 -0.377745 -0.560611 0
M  V30 419 H 47.8631 -1.62658 -1.25425 0
M  V30 420 H 46.0931 -1.00881 -3.73309 0
M  V30 421 H 47.7821 -1.42202 -3.80175 0
M  V30 422 H 48.5481 -3.78381 -3.03403 0
M  V30 423 H 44.4271 -2.75282 -3.69785 0
M  V30 424 H 47.9711 -6.17518 -3.24526 0
M  V30 425 H 43.8681 -5.13534 -3.91092 0
M  V30 426 H 44.6361 -7.21083 -3.87275 0
M  V30 427 N 47.2992 1.18797 -1.03562 0
M  V30 428 C 48.5452 1.89192 -0.746867 0
M  V30 429 C 48.9002 1.78531 0.717245 0
M  V30 430 O 48.1932 1.17137 1.51622 0
M  V30 431 C 48.3872 3.38692 -1.14117 0
M  V30 432 C 48.2162 3.63902 -2.64207 0
M  V30 433 C 46.9862 3.81553 -3.31279 0
M  V30 434 C 49.1842 3.64903 -3.62423 0
M  V30 435 N 47.1662 3.94455 -4.70402 0
M  V30 436 C 48.5372 3.83458 -4.87196 0
M  V30 437 C 50.5922 3.47965 -3.56125 0
M  V30 438 C 49.2952 3.86829 -6.06429 0
M  V30 439 C 51.3212 3.52616 -4.7478 0
M  V30 440 C 50.6832 3.71663 -5.9837 0
M  V30 441 H 46.7822 0.711141 -0.325273 0
M  V30 442 H 49.3662 1.42727 -1.32428 0
M  V30 443 H 47.5372 3.83864 -0.591889 0
M  V30 444 H 49.2692 3.96634 -0.803966 0
M  V30 445 H 46.0242 3.80723 -2.81686 0
M  V30 446 H 46.4482 4.0474 -5.42692 0
M  V30 447 H 51.0902 3.32189 -2.61553 0
M  V30 448 H 48.8082 4.01395 -7.01362 0
M  V30 449 H 52.3942 3.40791 -4.71543 0
M  V30 450 H 51.2742 3.75145 -6.88648 0
M  V30 451 N 48.7773 0.814389 1.34928 0
M  V30 452 C 50.0263 0.394871 1.97797 0
M  V30 453 C 50.3393 -1.04555 1.65311 0
M  V30 454 O 51.5453 -1.56856 2.21604 0
M  V30 455 C 50.0013 0.655103 3.53888 0
M  V30 456 C 49.6093 2.10858 3.95276 0
M  V30 457 C 51.3533 0.301329 4.23429 0
M  V30 458 C 49.2603 2.31415 5.44244 0
M  V30 459 H 48.1903 0.143913 0.740139 0
M  V30 460 H 50.8413 0.999544 1.53888 0
M  V30 461 H 49.2233 -0.0196253 3.95995 0
M  V30 462 H 50.3973 2.82176 3.64298 0
M  V30 463 H 48.7123 2.42297 3.38646 0
M  V30 464 H 51.3093 0.432869 5.32945 0
M  V30 465 H 51.6523 -0.75331 4.09428 0
M  V30 466 H 52.1853 0.930288 3.86769 0
M  V30 467 H 48.9243 3.35353 5.63222 0
M  V30 468 H 48.4443 1.6463 5.76764 0
M  V30 469 H 50.1233 2.13352 6.10811 0
M  V30 470 N 50.2554 -1.46986 0.568584 0
M  V30 471 C 51.5324 -1.95592 -0.0174074 0
M  V30 472 C 51.9124 -1.51124 -1.47393 0
M  V30 473 O 51.2604 -0.755329 -2.15655 0
M  V30 474 C 51.4704 -3.48719 0.139913 0
M  V30 475 C 52.8184 -4.246 0.000426376 0
M  V30 476 O 53.8424 -3.56135 0.0680316 0
M  V30 477 O 52.7014 -5.46302 -0.146988 0
M  V30 478 H 49.7954 -0.82498 -0.0577599 0
M  V30 479 H 52.3414 -1.57335 0.635909 0
M  V30 480 H 51.1134 -3.73927 1.15301 0
M  V30 481 H 50.7364 -3.93771 -0.550491 0
M  V30 482 N 51.7335 -0.305618 -1.54608 0
M  V30 483 C 52.9815 0.301701 -1.99835 0
M  V30 484 C 53.3025 1.54054 -1.19551 0
M  V30 485 O 52.5725 1.93702 -0.292658 0
M  V30 486 H 51.1525 0.114468 -0.738178 0
M  V30 487 H 53.8145 -0.418016 -1.90364 0
M  V30 488 H 52.9105 0.570548 -3.06841 0
M  V30 489 N 53.2116 1.57565 -0.0334293 0
M  V30 490 C 54.4366 1.96689 0.657895 0
M  V30 491 C 54.8616 0.910057 1.64619 0
M  V30 492 O 54.2196 -0.128598 1.80843 0
M  V30 493 C 54.2676 3.34905 1.33683 0
M  V30 494 O 53.3716 3.31574 2.45219 0
M  V30 495 H 52.7126 0.641205 0.172489 0
M  V30 496 H 55.2426 2.04372 -0.0965621 0
M  V30 497 H 55.2526 3.71234 1.69262 0
M  V30 498 H 53.9276 4.11366 0.612411 0
M  V30 499 H 52.5046 3.06968 2.11719 0
M  V30 500 N 54.6897 -0.239769 1.55765 0
M  V30 501 C 55.6377 -1.31668 1.91745 0
M  V30 502 C 56.6317 -1.49462 0.797338 0
M  V30 503 O 57.8377 -1.50852 0.982021 0
M  V30 504 H 54.2127 -0.441048 0.609082 0
M  V30 505 H 56.1837 -0.985923 2.81642 0
M  V30 506 C 54.9327 -2.66368 2.2348 0
M  V30 507 H 54.2557 -2.53478 3.09175 0
M  V30 508 H 55.6957 -3.40578 2.52553 0
M  V30 509 C 54.1547 -3.20002 1.05359 0
M  V30 510 O 54.6847 -4.00538 0.305261 0
M  V30 511 N 52.8907 -2.78126 0.842292 0
M  V30 512 H 52.4377 -2.12742 1.45253 0
M  V30 513 H 52.3957 -3.14354 0.053652 0
M  V30 514 N 56.1678 -1.49265 -0.50573 0
M  V30 515 C 57.5838 -1.35923 -0.836486 0
M  V30 516 C 57.7838 -0.388704 -1.97715 0
M  V30 517 O 56.8398 0.181336 -2.51848 0
M  V30 518 C 58.1528 -2.76531 -1.18115 0
M  V30 519 C 59.7008 -2.85197 -1.28964 0
M  V30 520 C 60.1758 -4.26561 -1.66761 0
M  V30 521 N 61.6668 -4.2935 -1.73819 0
M  V30 522 C 62.4018 -5.35693 -2.045 0
M  V30 523 N 61.8978 -6.52287 -2.33438 0
M  V30 524 N 63.6908 -5.23105 -2.05711 0
M  V30 525 H 55.8418 -2.10965 0.246519 0
M  V30 526 H 58.1048 -0.9468 0.0476887 0
M  V30 527 H 57.8108 -3.49226 -0.416398 0
M  V30 528 H 57.6848 -3.11599 -2.1257 0
M  V30 529 H 60.0718 -2.12742 -2.04511 0
M  V30 530 H 60.1528 -2.53718 -0.325704 0
M  V30 531 H 59.7968 -4.99541 -0.917656 0
M  V30 532 H 59.7268 -4.55502 -2.64246 0
M  V30 533 H 62.2178 -3.4526 -1.53635 0
M  V30 534 H 62.5308 -7.29158 -2.56024 0
M  V30 535 H 60.8758 -6.55521 -2.30905 0
M  V30 536 H 64.0668 -4.31026 -1.82577 0
M  V30 537 H 64.2398 -6.06078 -2.29289 0
M  V30 538 N 57.6459 0.756429 -1.3826 0
M  V30 539 C 58.9229 1.50584 -1.24835 0
M  V30 540 C 59.3029 2.10556 0.151485 0
M  V30 541 O 58.6509 1.96825 1.1607 0
M  V30 542 C 58.8609 2.57448 -2.3563 0
M  V30 543 C 60.2089 3.24429 -2.73917 0
M  V30 544 O 61.2329 2.67751 -2.34921 0
M  V30 545 O 60.0919 4.26937 -3.41156 0
M  V30 546 H 57.1859 0.667664 -0.48801 0
M  V30 547 H 59.7319 0.792083 -1.5008 0
M  V30 548 H 58.5039 2.11362 -3.29305 0
M  V30 549 H 58.1269 3.36408 -2.11933 0
M  V30 550 N 59.124 1.23083 0.984299 0
M  V30 551 C 60.087 1.00979 2.05757 0
M  V30 552 C 61.087 -0.0269573 1.60777 0
M  V30 553 O 62.277 0.212403 1.729 0
M  V30 554 C 59.409 0.527072 3.36801 0
M  V30 555 H 60.602 1.9622 2.26799 0
M  V30 556 H 58.155 1.05072 1.15714 0
M  V30 557 H 58.89 -0.429294 3.21446 0
M  V30 558 H 58.675 1.27515 3.70786 0
M  V30 559 H 60.165 0.392942 4.15747 0
M  V30 560 N 60.6021 -1.18246 1.0419 0
M  V30 561 C 61.5321 -2.24127 0.654914 0
M  V30 562 C 62.5131 -1.66617 -0.342451 0
M  V30 563 O 63.6981 -1.92924 -0.222277 0
M  V30 564 C 60.8281 -3.47295 0.0183757 0
M  V30 565 C 59.7821 -4.17563 0.939414 0
M  V30 566 C 59.1081 -5.34438 0.167286 0
M  V30 567 C 60.4081 -4.70917 2.25908 0
M  V30 568 H 62.1021 -2.56753 1.54007 0
M  V30 569 H 59.6481 -1.23414 0.74195 0
M  V30 570 H 61.6011 -4.20572 -0.264082 0
M  V30 571 H 60.3251 -3.13907 -0.901664 0
M  V30 572 H 58.9841 -3.46186 1.20628 0
M  V30 573 H 58.6321 -4.97298 -0.7552 0
M  V30 574 H 58.3321 -5.82388 0.780901 0
M  V30 575 H 59.8561 -6.10504 -0.108125 0
M  V30 576 H 61.2701 -5.35882 2.03724 0
M  V30 577 H 59.6671 -5.29406 2.82577 0
M  V30 578 H 60.7371 -3.88272 2.9047 0
M  V30 579 N 62.0802 -0.821533 -1.34494 0
M  V30 580 C 63.3052 -0.420873 -2.03085 0
M  V30 581 C 63.7302 0.964915 -1.61465 0
M  V30 582 O 63.0882 1.62763 -0.798607 0
M  V30 583 C 63.1362 -0.529414 -3.56693 0
M  V30 584 O 62.2402 0.451302 -4.09923 0
M  V30 585 H 61.5812 -0.173489 -0.640935 0
M  V30 586 H 64.1112 -1.11157 -1.71771 0
M  V30 587 H 64.1212 -0.404671 -4.05988 0
M  V30 588 H 62.7962 -1.54014 -3.86332 0
M  V30 589 H 61.3732 0.285558 -3.71805 0
M  V30 590 N 63.5583 1.46682 -0.576371 0
M  V30 591 C 64.8353 1.95599 0.00703437 0
M  V30 592 C 65.2153 1.51904 1.46589 0
M  V30 593 O 64.5633 0.766755 2.15251 0
M  V30 594 C 64.7733 3.4864 -0.158404 0
M  V30 595 C 66.1213 4.24594 -0.0229439 0
M  V30 596 O 67.1453 3.56094 -0.0869173 0
M  V30 597 O 66.0043 5.46373 0.118015 0
M  V30 598 H 63.0983 0.825275 0.053384 0
M  V30 599 H 65.6443 1.56996 -0.644244 0
M  V30 600 H 64.4163 3.7331 -1.17282 0
M  V30 601 H 64.0393 3.94057 0.5296 0
M  V30 602 N 65.0364 0.313813 1.54444 0
M  V30 603 C 66.2834 -0.291675 2.00388 0
M  V30 604 C 66.6114 -1.52904 1.2021 0
M  V30 605 O 65.8664 -1.93833 0.269707 0
M  V30 606 C 66.1654 -0.680386 3.50864 0
M  V30 607 C 65.8314 0.456699 4.48581 0
M  V30 608 C 64.4934 0.768824 4.75018 0
M  V30 609 C 66.8454 1.22098 5.06697 0
M  V30 610 C 64.1734 1.84812 5.56831 0
M  V30 611 C 66.5254 2.29029 5.89685 0
M  V30 612 C 65.1894 2.60834 6.14428 0
M  V30 613 H 64.4594 -0.106732 0.733273 0
M  V30 614 H 67.1064 0.43557 1.86481 0
M  V30 615 H 65.4114 -1.48791 3.62448 0
M  V30 616 H 67.1084 -1.16026 3.83847 0
M  V30 617 H 63.6984 0.203337 4.28117 0
M  V30 618 H 67.8824 0.993096 4.86263 0
M  V30 619 H 63.1384 2.09912 5.74236 0
M  V30 620 H 67.3124 2.887 6.33739 0
M  V30 621 H 64.9394 3.44596 6.77612 0
M  V30 622 N 66.5145 -1.57545 0.0417849 0
M  V30 623 C 67.7615 -1.92317 -0.634082 0
M  V30 624 C 68.0895 -0.919334 -1.71402 0
M  V30 625 O 67.3445 0.0698253 -1.95575 0
M  V30 626 C 67.6435 -3.33794 -1.27735 0
M  V30 627 C 67.3095 -4.49716 -0.326543 0
M  V30 628 C 65.9715 -4.81156 -0.0648814 0
M  V30 629 C 68.3235 -5.20182 0.325623 0
M  V30 630 C 65.6515 -5.80414 0.856539 0
M  V30 631 C 68.0035 -6.20424 1.23518 0
M  V30 632 C 66.6675 -6.50298 1.5056 0
M  V30 633 H 65.9375 -0.703736 -0.232027 0
M  V30 634 H 68.5845 -1.91205 0.106259 0
M  V30 635 H 66.8895 -3.31228 -2.09274 0
M  V30 636 H 68.5865 -3.57975 -1.80707 0
M  V30 637 H 65.1765 -4.25176 -0.540665 0
M  V30 638 H 69.3605 -4.96112 0.136546 0
M  V30 639 H 64.6165 -6.019 1.07363 0
M  V30 640 H 68.7905 -6.74141 1.74664 0
M  V30 641 H 66.4175 -7.27025 2.22123 0
M  V30 642 N 67.9926 0.231505 -1.5589 0
M  V30 643 C 68.9026 1.308 -1.94752 0
M  V30 644 C 69.9186 1.51826 -0.849989 0
M  V30 645 O 71.0946 1.6515 -1.15271 0
M  V30 646 C 68.1596 2.63968 -2.24771 0
M  V30 647 C 67.2206 2.51331 -3.48039 0
M  V30 648 C 66.4536 3.78148 -3.76616 0
M  V30 649 O 66.6766 4.80722 -3.07022 0
M  V30 650 O 65.6106 3.75857 -4.70123 0
M  V30 651 H 69.4366 1.0083 -2.86474 0
M  V30 652 H 67.0216 0.433547 -1.42971 0
M  V30 653 H 68.9036 3.42633 -2.45318 0
M  V30 654 H 67.5786 2.9364 -1.36225 0
M  V30 655 H 66.4856 1.709 -3.32782 0
M  V30 656 H 67.8186 2.26601 -4.36936 0
M  V30 657 N 69.4707 1.49531 0.497807 0
M  V30 658 C 70.7167 1.59415 1.25358 0
M  V30 659 C 71.0497 0.281422 1.9215 0
M  V30 660 O 70.3247 -0.715249 1.80871 0
M  V30 661 C 70.6077 2.75566 2.3181 0
M  V30 662 C 70.4607 4.16642 1.69498 0
M  V30 663 C 71.7797 2.87347 3.33346 0
M  V30 664 H 68.8987 0.580244 0.454408 0
M  V30 665 H 71.5407 1.81827 0.551262 0
M  V30 666 H 69.6907 2.56587 2.91711 0
M  V30 667 H 71.3627 4.47145 1.13399 0
M  V30 668 H 69.6057 4.22141 0.998978 0
M  V30 669 H 70.2767 4.93792 2.46725 0
M  V30 670 H 72.7527 3.04634 2.83438 0
M  V30 671 H 71.6287 3.70289 4.05188 0
M  V30 672 H 71.8897 1.96834 3.95865 0
M  V30 673 N 70.9488 -0.749086 1.3866 0
M  V30 674 C 71.8588 -1.89358 1.38494 0
M  V30 675 C 72.8748 -1.71708 0.281476 0
M  V30 676 O 74.0508 -1.94554 0.520643 0
M  V30 677 C 71.1158 -3.24782 1.21316 0
M  V30 678 C 70.1768 -3.54926 2.41508 0
M  V30 679 C 69.4098 -4.83888 2.2514 0
M  V30 680 O 69.6328 -5.56592 1.24746 0
M  V30 681 O 68.5668 -5.13612 3.13826 0
M  V30 682 H 72.3928 -1.92452 2.34938 0
M  V30 683 H 69.9778 -0.894981 1.19626 0
M  V30 684 H 71.8598 -4.05739 1.13814 0
M  V30 685 H 70.5348 -3.2249 0.279592 0
M  V30 686 H 69.4418 -2.74112 2.54585 0
M  V30 687 H 70.7748 -3.61983 3.3351 0
M  V30 688 N 72.4269 -1.23603 -0.977757 0
M  V30 689 C 73.6519 -1.09735 -1.75991 0
M  V30 690 C 74.0769 0.346858 -1.84874 0
M  V30 691 O 73.4349 1.25093 -1.3123 0
M  V30 692 C 73.4829 -1.73051 -3.16363 0
M  V30 693 O 72.5869 -0.994452 -4.0023 0
M  V30 694 H 71.9279 -0.384476 -0.541364 0
M  V30 695 H 74.4579 -1.6371 -1.2272 0
M  V30 696 H 74.4679 -1.78398 -3.66931 0
M  V30 697 H 73.1429 -2.78137 -3.09213 0
M  V30 698 H 71.7199 -1.01812 -3.58732 0
M  V30 699 N 73.905 1.17692 -1.04816 0
M  V30 700 C 74.815 2.25229 -0.65643 0
M  V30 701 C 75.831 1.71018 0.320761 0
M  V30 702 O 77.007 2.00649 0.173805 0
M  V30 703 C 74.072 3.46684 -0.0332629 0
M  V30 704 C 73.133 4.15997 -1.06042 0
M  V30 705 C 72.366 5.31654 -0.466893 0
M  V30 706 O 72.589 5.65777 0.724758 0
M  V30 707 O 71.523 5.89831 -1.1993 0
M  V30 708 H 75.349 2.61016 -1.55255 0
M  V30 709 H 72.934 1.24919 -0.81949 0
M  V30 710 H 74.816 4.20234 0.313256 0
M  V30 711 H 73.491 3.12703 0.836566 0
M  V30 712 H 72.398 3.44482 -1.45886 0
M  V30 713 H 73.731 4.53996 -1.90127 0
M  V30 714 N 75.3831 0.828654 1.34056 0
M  V30 715 C 76.3131 0.269443 2.3194 0
M  V30 716 C 77.2941 -0.617247 1.58506 0
M  V30 717 O 78.4791 -0.542931 1.86456 0
M  V30 718 C 75.6091 -0.564793 3.42677 0
M  V30 719 C 74.5631 0.225241 4.27407 0
M  V30 720 C 73.8891 -0.7321 5.29664 0
M  V30 721 C 75.1891 1.43663 5.02154 0
M  V30 722 H 76.8831 1.08728 2.7896 0
M  V30 723 H 74.4291 0.524283 1.34117 0
M  V30 724 H 76.3821 -0.966233 4.10173 0
M  V30 725 H 75.1061 -1.41574 2.9432 0
M  V30 726 H 73.7651 0.608117 3.61521 0
M  V30 727 H 73.4131 -1.57916 4.77568 0
M  V30 728 H 73.1131 -0.20767 5.87233 0
M  V30 729 H 74.6371 -1.13128 6.00029 0
M  V30 730 H 76.0511 1.1089 5.62473 0
M  V30 731 H 74.4481 1.89711 5.69324 0
M  V30 732 H 75.5181 2.21181 4.31517 0
M  V30 733 N 76.8612 -1.46375 0.584142 0
M  V30 734 C 78.1092 -2.01978 0.0701287 0
M  V30 735 C 78.4302 -1.4579 -1.295 0
M  V30 736 O 77.7002 -0.64314 -1.85042 0
M  V30 737 H 76.2802 -0.746648 0.0229345 0
M  V30 738 H 78.9422 -1.79461 0.760245 0
M  V30 739 H 78.0382 -3.121 0.0022064 0
M  V30 740 N 78.3393 -0.321999 -1.54275 0
M  V30 741 C 79.7553 0.0306999 -1.5957 0
M  V30 742 C 79.9553 1.50614 -1.33857 0
M  V30 743 O 79.0113 2.2619 -1.12223 0
M  V30 744 C 80.3243 -0.386122 -2.98211 0
M  V30 745 C 81.8723 -0.336647 -3.11184 0
M  V30 746 C 82.3473 -0.728607 -4.52167 0
M  V30 747 N 83.8383 -0.681952 -4.58152 0
M  V30 748 C 84.5733 -0.957449 -5.6535 0
M  V30 749 N 84.0693 -1.3 -6.80494 0
M  V30 750 N 85.8623 -0.883113 -5.55119 0
M  V30 751 H 78.0133 -1.28332 -1.69247 0
M  V30 752 H 80.2763 -0.521716 -0.791528 0
M  V30 753 H 79.9823 -1.41404 -3.22022 0
M  V30 754 H 79.8563 0.249662 -3.76373 0
M  V30 755 H 82.2433 0.682058 -2.8711 0
M  V30 756 H 82.3243 -1.00734 -2.3513 0
M  V30 757 H 81.9683 -1.74522 -4.76974 0
M  V30 758 H 81.8983 -0.0356152 -5.26588 0
M  V30 759 H 84.3893 -0.428985 -3.75457 0
M  V30 760 H 84.7023 -1.49563 -7.58189 0
M  V30 761 H 83.0473 -1.33824 -6.81994 0
M  V30 762 H 86.2383 -0.615001 -4.64042 0
M  V30 763 H 86.4113 -1.10118 -6.38575 0
M  V30 764 N 79.8174 1.5752 -0.0501392 0
M  V30 765 C 81.0654 1.9227 0.622642 0
M  V30 766 C 81.3864 0.929083 1.71444 0
M  V30 767 O 80.6564 -0.0262186 1.95882 0
M  V30 768 H 79.2364 0.709739 0.232981 0
M  V30 769 H 81.8984 1.94628 -0.102898 0
M  V30 770 H 80.9944 2.93479 1.06191 0
M  V30 771 N 81.2955 -0.223234 1.56011 0
M  V30 772 C 82.2585 -1.26014 1.9145 0
M  V30 773 C 83.2585 -1.3989 0.792937 0
M  V30 774 O 84.4485 -1.38184 1.0607 0
M  V30 775 C 81.5805 -2.63422 2.16383 0
M  V30 776 H 82.7735 -0.95796 2.84189 0
M  V30 777 H 80.3265 -0.463576 1.49267 0
M  V30 778 H 81.0615 -2.98741 1.2619 0
M  V30 779 H 80.8465 -2.54728 2.98088 0
M  V30 780 H 82.3365 -3.38249 2.44903 0
M  V30 781 N 82.7736 -1.49793 -0.48987 0
M  V30 782 C 84.0016 -1.63568 -1.26701 0
M  V30 783 C 84.4166 -0.311465 -1.86213 0
M  V30 784 O 83.7736 0.704416 -1.68357 0
M  V30 785 C 83.8246 -2.71284 -2.38929 0
M  V30 786 O 83.5456 -3.9857 -1.81861 0
M  V30 787 C 85.0466 -2.95864 -3.3012 0
M  V30 788 H 82.2666 -0.550342 -0.383881 0
M  V30 789 H 84.8106 -1.95898 -0.586864 0
M  V30 790 H 82.9656 -2.417 -3.02753 0
M  V30 791 H 83.3796 -4.57993 -2.55622 0
M  V30 792 H 84.8536 -3.74941 -4.05121 0
M  V30 793 H 85.3306 -2.06206 -3.87783 0
M  V30 794 H 85.9366 -3.26907 -2.72051 0
M  V30 795 N 84.2517 0.741722 -1.39055 0
M  V30 796 C 85.4767 1.53607 -1.39354 0
M  V30 797 C 85.9017 1.88096 0.0116905 0
M  V30 798 O 85.2597 1.5143 0.996924 0
M  V30 799 C 85.3077 2.80441 -2.26682 0
M  V30 800 O 84.4117 3.76088 -1.69208 0
M  V30 801 H 83.7527 0.464142 -0.474835 0
M  V30 802 H 86.2827 0.915665 -1.82967 0
M  V30 803 H 86.2927 3.29246 -2.40959 0
M  V30 804 H 84.9677 2.5467 -3.2881 0
M  V30 805 H 83.5447 3.34833 -1.64138 0
M  V30 806 N 85.7298 1.2412 0.971189 0
M  V30 807 C 86.9788 1.07284 1.70801 0
M  V30 808 C 87.2918 -0.388902 1.91695 0
M  V30 809 O 88.4978 -0.677379 2.62914 0
M  V30 810 C 86.9538 1.87145 3.07416 0
M  V30 811 C 86.5618 3.37707 2.94377 0
M  V30 812 C 88.3058 1.78828 3.84995 0
M  V30 813 C 86.2128 4.09925 4.26281 0
M  V30 814 H 85.1428 0.397854 0.64049 0
M  V30 815 H 87.7938 1.4817 1.0825 0
M  V30 816 H 86.1758 1.39071 3.70777 0
M  V30 817 H 87.3498 3.93335 2.4005 0
M  V30 818 H 85.6648 3.46938 2.30267 0
M  V30 819 H 88.2618 2.30089 4.82662 0
M  V30 820 H 88.6048 0.75284 4.09436 0
M  V30 821 H 89.1378 2.24563 3.28354 0
M  V30 822 H 85.8768 5.13813 4.07033 0
M  V30 823 H 85.3968 3.59083 4.80437 0
M  V30 824 H 87.0758 4.1673 4.94919 0
M  V30 825 N 87.2079 -1.17134 1.05439 0
M  V30 826 C 88.4539 -1.87733 0.767077 0
M  V30 827 C 88.7869 -1.8098 -0.704253 0
M  V30 828 O 88.0619 -1.21951 -1.5152 0
M  V30 829 C 88.3449 -3.37659 1.25133 0
M  V30 830 C 88.1979 -3.53149 2.78578 0
M  V30 831 C 89.5169 -4.31768 0.852324 0
M  V30 832 H 86.6359 -0.681687 0.280129 0
M  V30 833 H 89.2779 -1.37732 1.30881 0
M  V30 834 H 87.4279 -3.80373 0.790469 0
M  V30 835 H 89.0999 -3.19434 3.32806 0
M  V30 836 H 87.3429 -2.95345 3.17732 0
M  V30 837 H 88.0139 -4.58403 3.07523 0
M  V30 838 H 90.4899 -3.96909 1.24911 0
M  V30 839 H 89.3659 -5.35199 1.21873 0
M  V30 840 H 89.6269 -4.41429 -0.243485 0
M  V30 841 N 88.686 -0.835752 -1.33615 0
M  V30 842 C 89.916 -0.442701 -2.01801 0
M  V30 843 C 90.324 0.959807 -1.63047 0
M  V30 844 O 89.667 1.63468 -0.838088 0
M  V30 845 C 89.729 -0.480125 -3.56279 0
M  V30 846 C 89.393 -1.8382 -4.18401 0
M  V30 847 C 90.39 -2.80097 -4.37998 0
M  V30 848 C 88.075 -2.13019 -4.54894 0
M  V30 849 C 90.069 -4.03736 -4.9323 0
M  V30 850 C 87.756 -3.36916 -5.09834 0
M  V30 851 C 88.754 -4.32091 -5.28948 0
M  V30 852 O 88.442 -5.53797 -5.82721 0
M  V30 853 H 88.174 -0.17441 -0.653114 0
M  V30 854 H 90.728 -1.129 -1.71589 0
M  V30 855 H 88.958 0.262931 -3.85805 0
M  V30 856 H 90.647 -0.105335 -4.05763 0
M  V30 857 H 91.413 -2.58838 -4.10156 0
M  V30 858 H 87.292 -1.39733 -4.39313 0
M  V30 859 H 90.836 -4.78034 -5.08064 0
M  V30 860 H 86.733 -3.58033 -5.37106 0
M  V30 861 H 87.501 -5.55494 -6.0114 0
M  V30 862 N 90.1641 1.46063 -0.591896 0
M  V30 863 C 91.5801 1.57561 -0.254288 0
M  V30 864 C 91.7801 1.58565 1.24336 0
M  V30 865 O 90.8361 1.50753 2.02558 0
M  V30 866 C 92.1491 2.86549 -0.911611 0
M  V30 867 C 93.6971 3.00197 -0.886059 0
M  V30 868 C 94.1721 4.31933 -1.5231 0
M  V30 869 N 95.6631 4.38654 -1.48786 0
M  V30 870 C 96.3981 5.39222 -1.95006 0
M  V30 871 N 95.8941 6.46414 -2.49241 0
M  V30 872 N 97.6871 5.3048 -1.85868 0
M  V30 873 H 89.8381 1.43655 -1.56451 0
M  V30 874 H 92.1011 0.68583 -0.654478 0
M  V30 875 H 91.8071 2.91651 -1.96551 0
M  V30 876 H 91.6811 3.74794 -0.425368 0
M  V30 877 H 94.0681 2.9467 0.159246 0
M  V30 878 H 94.1491 2.13403 -1.41041 0
M  V30 879 H 93.7931 4.38217 -2.56765 0
M  V30 880 H 93.7231 5.17516 -0.973891 0
M  V30 881 H 96.2141 3.61793 -1.09151 0
M  V30 882 H 96.5271 7.19376 -2.82344 0
M  V30 883 H 94.8721 6.47208 -2.53272 0
M  V30 884 H 98.0631 4.45643 -1.43248 0
M  V30 885 H 98.2361 6.08711 -2.22204 0
M  V30 886 N 91.6422 0.330177 1.54103 0
M  V30 887 C 92.8822 -0.270916 2.02597 0
M  V30 888 C 93.2462 -1.48826 1.21304 0
M  V30 889 O 94.4472 -2.16266 1.59633 0
M  V30 890 C 92.7182 -0.590328 3.52491 0
M  V30 891 S 94.2772 -1.17014 4.2291 0
M  V30 892 H 91.0952 -0.0815379 0.706309 0
M  V30 893 H 93.6972 0.464835 1.89893 0
M  V30 894 H 92.4012 0.303691 4.09275 0
M  V30 895 H 91.9322 -1.3561 3.69288 0
M  V30 896 H 93.9472 -2.45662 4.3112 0
M  V30 897 N 93.1203 -1.57491 0.0584922 0
M  V30 898 C 94.0673 -2.11958 -0.913376 0
M  V30 899 C 95.0373 -1.02875 -1.30407 0
M  V30 900 O 96.2223 -1.30464 -1.39226 0
M  V30 901 C 93.3623 -2.67497 -2.18035 0
M  V30 902 C 92.4753 -3.90691 -1.84349 0
M  V30 903 C 91.6103 -4.3452 -3.05559 0
M  V30 904 C 90.6493 -5.50395 -2.67827 0
M  V30 905 N 89.7863 -5.89244 -3.81754 0
M  V30 906 H 94.6263 -2.94704 -0.442017 0
M  V30 907 H 92.1633 -1.45643 -0.206545 0
M  V30 908 H 94.1213 -2.978 -2.92183 0
M  V30 909 H 92.7513 -1.87537 -2.62735 0
M  V30 910 H 91.8033 -3.66934 -1.00319 0
M  V30 911 H 93.1153 -4.7489 -1.5258 0
M  V30 912 H 92.2693 -4.66414 -3.87998 0
M  V30 913 H 91.0083 -3.49147 -3.40511 0
M  V30 914 H 90.0133 -5.18165 -1.83806 0
M  V30 915 H 91.2383 -6.3749 -2.34059 0
M  V30 916 H 89.1843 -5.06823 -4.16493 0
M  V30 917 H 89.1013 -6.68151 -3.53708 0
M  V30 918 H 90.3693 -6.25756 -4.64811 0
M  V30 919 N 94.5984 0.214957 -1.56127 0
M  V30 920 C 95.5304 1.29004 -1.89448 0
M  V30 921 C 96.5434 1.42716 -0.783326 0
M  V30 922 O 97.7324 1.43496 -1.06166 0
M  V30 923 C 94.8324 2.66482 -2.09381 0
M  V30 924 C 94.0054 2.74633 -3.40434 0
M  V30 925 C 93.0644 3.9317 -3.49719 0
M  V30 926 O 92.0904 3.812 -4.227 0
M  V30 927 N 93.2924 5.07765 -2.81346 0
M  V30 928 H 96.0574 1.00743 -2.82261 0
M  V30 929 H 93.6184 0.40497 -1.56753 0
M  V30 930 H 95.6104 3.44173 -2.12901 0
M  V30 931 H 94.1804 2.87314 -1.23163 0
M  V30 932 H 93.4004 1.83368 -3.48955 0
M  V30 933 H 94.6884 2.77054 -4.26754 0
M  V30 934 H 94.0864 5.20386 -2.21843 0
M  V30 935 H 92.6434 5.83474 -2.90519 0
M  V30 936 N 96.0765 1.50051 0.48192 0
M  V30 937 C 97.0235 1.68122 1.58125 0
M  V30 938 C 97.9935 0.522545 1.57666 0
M  V30 939 O 99.1785 0.751844 1.75362 0
M  V30 940 C 96.3185 1.77142 2.96167 0
M  V30 941 C 95.4315 3.0444 3.06497 0
M  V30 942 C 94.5665 3.04321 4.35387 0
M  V30 943 C 93.6055 4.26118 4.3942 0
M  V30 944 N 92.7425 4.238 5.59766 0
M  V30 945 H 97.5825 2.6198 1.42022 0
M  V30 946 H 95.1195 1.29877 0.690687 0
M  V30 947 H 97.0775 1.80352 3.76203 0
M  V30 948 H 95.7075 0.867329 3.1093 0
M  V30 949 H 94.7595 3.10752 2.19402 0
M  V30 950 H 96.0715 3.94426 3.05336 0
M  V30 951 H 95.2255 3.062 5.23762 0
M  V30 952 H 93.9645 2.12147 4.39141 0
M  V30 953 H 92.9695 4.24463 3.49444 0
M  V30 954 H 94.1945 5.19507 4.37366 0
M  V30 955 H 92.1405 3.34474 5.64326 0
M  V30 956 H 92.0575 5.07542 5.60301 0
M  V30 957 H 93.3255 4.2981 6.50295 0
M  V30 958 N 97.5546 -0.734337 1.39446 0
M  V30 959 C 98.8026 -1.49096 1.36436 0
M  V30 960 C 99.1236 -1.94961 -0.0388255 0
M  V30 961 O 98.3936 -1.69033 -0.990191 0
M  V30 962 H 96.9736 -0.5531 0.502085 0
M  V30 963 H 99.6356 -0.871725 1.74319 0
M  V30 964 H 98.7316 -2.37276 2.02747 0
M  V30 965 N 99.0327 -1.24633 -0.964593 0
M  V30 966 C 100.261 -1.11501 -1.74285 0
M  V30 967 C 100.676 0.332165 -1.85855 0
M  V30 968 O 100.033 1.22903 -1.34911 0
M  V30 969 C 100.084 -1.75258 -3.16175 0
M  V30 970 O 99.8047 -3.14318 -3.05182 0
M  V30 971 C 101.306 -1.67776 -4.10324 0
M  V30 972 H 98.5257 -0.389407 -0.546446 0
M  V30 973 H 101.07 -1.64801 -1.21083 0
M  V30 974 H 99.2247 -1.25954 -3.66353 0
M  V30 975 H 99.6387 -3.4551 -3.94618 0
M  V30 976 H 101.113 -2.17064 -5.0753 0
M  V30 977 H 101.59 -0.639584 -4.34518 0
M  V30 978 H 102.196 -2.16522 -3.66058 0
M  V30 979 N 100.511 1.16574 -1.06058 0
M  V30 980 C 101.443 2.2045 -0.627239 0
M  V30 981 C 102.456 1.59752 0.313534 0
M  V30 982 O 103.645 1.78192 0.104896 0
M  V30 983 C 100.745 3.3875 0.100974 0
M  V30 984 C 99.9178 4.29008 -0.852687 0
M  V30 985 C 98.9768 5.25944 -0.164152 0
M  V30 986 O 98.0028 5.63535 -0.801047 0
M  V30 987 N 99.2048 5.70075 1.09518 0
M  V30 988 H 101.97 2.58249 -1.52077 0
M  V30 989 H 99.5308 1.3156 -0.943594 0
M  V30 990 H 101.523 4.00638 0.57194 0
M  V30 991 H 100.093 2.99476 0.89628 0
M  V30 992 H 99.3128 3.64419 -1.50308 0
M  V30 993 H 100.601 4.86195 -1.49972 0
M  V30 994 H 99.9988 5.41624 1.6328 0
M  V30 995 H 98.5558 6.34067 1.51006 0
M  V30 996 N 101.989 0.842826 1.3317 0
M  V30 997 C 102.936 0.276885 2.29133 0
M  V30 998 C 103.906 -0.609527 1.54512 0
M  V30 999 O 105.091 -0.546955 1.82792 0
M  V30 1000 C 102.231 -0.538707 3.40869 0
M  V30 1001 C 101.344 0.372169 4.30394 0
M  V30 1002 C 100.479 -0.454908 5.29249 0
M  V30 1003 C 99.5179 0.45411 6.10413 0
M  V30 1004 N 98.6549 -0.335075 7.013 0
M  V30 1005 H 103.495 1.10052 2.76934 0
M  V30 1006 H 101.032 0.554161 1.36262 0
M  V30 1007 H 102.99 -1.02709 4.0436 0
M  V30 1008 H 101.62 -1.32727 2.9425 0
M  V30 1009 H 100.672 0.97888 3.6759 0
M  V30 1010 H 101.984 1.0703 4.87182 0
M  V30 1011 H 101.138 -1.00695 5.98285 0
M  V30 1012 H 99.8769 -1.18646 4.73048 0
M  V30 1013 H 98.8819 1.01813 5.40291 0
M  V30 1014 H 100.107 1.18409 6.68697 0
M  V30 1015 H 98.0529 -1.04994 6.47543 0
M  V30 1016 H 97.9699 0.304262 7.55387 0
M  V30 1017 H 99.2379 -0.869224 7.74638 0
M  V30 1018 N 103.467 -1.45747 0.599634 0
M  V30 1019 C 104.878 -1.85853 0.177681 0
M  V30 1020 C 105.229 -1.50102 -1.26348 0
M  V30 1021 O 104.354 -0.923905 -1.95686 0
M  V30 1022 C 104.949 -3.37326 0.315688 0
M  V30 1023 C 103.508 -3.76365 -0.0515144 0
M  V30 1024 C 102.655 -2.69722 0.643822 0
M  V30 1025 H 105.606 -1.36661 0.806814 0
M  V30 1026 H 105.627 -3.77778 -0.454321 0
M  V30 1027 H 105.139 -3.63315 1.36468 0
M  V30 1028 H 103.24 -3.55993 -1.09999 0
M  V30 1029 H 103.353 -4.77916 0.336594 0
M  V30 1030 H 101.717 -2.54567 0.0822881 0
M  V30 1031 H 102.5 -2.98549 1.6948 0
M  V30 1032 N 104.945 -0.338344 -1.53925 0
M  V30 1033 C 106.175 0.260919 -2.04946 0
M  V30 1034 C 106.583 1.45174 -1.2133 0
M  V30 1035 O 105.926 1.82122 -0.240262 0
M  V30 1036 C 105.988 0.744596 -3.51704 0
M  V30 1037 C 105.652 -0.325883 -4.55837 0
M  V30 1038 C 106.649 -1.16687 -5.06636 0
M  V30 1039 C 104.334 -0.478317 -5.00017 0
M  V30 1040 C 106.328 -2.14588 -6.00192 0
M  V30 1041 C 104.015 -1.46073 -5.93385 0
M  V30 1042 C 105.013 -2.29297 -6.4336 0
M  V30 1043 O 104.701 -3.25867 -7.34892 0
M  V30 1044 H 104.433 0.0551207 -0.673749 0
M  V30 1045 H 106.987 -0.486984 -1.99544 0
M  V30 1046 H 105.217 1.54366 -3.54553 0
M  V30 1047 H 106.906 1.26383 -3.85723 0
M  V30 1048 H 107.672 -1.06016 -4.73271 0
M  V30 1049 H 103.551 0.159613 -4.60724 0
M  V30 1050 H 107.095 -2.79585 -6.39123 0
M  V30 1051 H 102.992 -1.56802 -6.26166 0
M  V30 1052 H 103.76 -3.21278 -7.5281 0
M  V30 1053 N 106.423 1.57458 -0.0668435 0
M  V30 1054 C 107.386 2.11323 0.887422 0
M  V30 1055 C 108.386 1.03618 1.22964 0
M  V30 1056 O 109.576 1.29626 1.16373 0
M  V30 1057 C 106.708 2.61048 2.19242 0
M  V30 1058 H 107.901 2.96942 0.420194 0
M  V30 1059 H 105.454 1.55239 0.181793 0
M  V30 1060 H 106.189 1.78868 2.70512 0
M  V30 1061 H 105.974 3.39769 1.95702 0
M  V30 1062 H 107.464 3.02814 2.87565 0
M  V30 1063 N 107.901 -0.206675 1.56239 0
M  V30 1064 C 108.831 -1.25909 1.96645 0
M  V30 1065 C 109.812 -1.48097 0.836734 0
M  V30 1066 O 110.997 -1.6003 1.10019 0
M  V30 1067 C 108.127 -2.6058 2.29599 0
M  V30 1068 C 107.081 -2.53024 3.452 0
M  V30 1069 C 106.407 -3.91861 3.63798 0
M  V30 1070 C 107.707 -2.06524 4.79734 0
M  V30 1071 H 109.401 -0.923369 2.84806 0
M  V30 1072 H 106.947 -0.442735 1.37025 0
M  V30 1073 H 108.9 -3.34375 2.56459 0
M  V30 1074 H 107.624 -2.95869 1.38307 0
M  V30 1075 H 106.283 -1.81684 3.18412 0
M  V30 1076 H 105.931 -4.24483 2.69857 0
M  V30 1077 H 105.631 -3.87683 4.4156 0
M  V30 1078 H 107.155 -4.67296 3.93022 0
M  V30 1079 H 108.569 -2.70072 5.05702 0
M  V30 1080 H 106.966 -2.13374 5.60885 0
M  V30 1081 H 108.036 -1.01802 4.74093 0
M  V30 1082 N 109.379 -1.50304 -0.473955 0
M  V30 1083 C 110.326 -1.68959 -1.57231 0
M  V30 1084 C 111.296 -0.530899 -1.57387 0
M  V30 1085 O 112.481 -0.761133 -1.74961 0
M  V30 1086 C 109.621 -1.7871 -2.95223 0
M  V30 1087 C 108.734 -3.06061 -3.04878 0
M  V30 1088 C 107.869 -3.06626 -4.33767 0
M  V30 1089 C 106.908 -4.28443 -4.37154 0
M  V30 1090 N 106.045 -4.26763 -5.5751 0
M  V30 1091 H 110.885 -2.6273 -1.40631 0
M  V30 1092 H 108.422 -1.30241 -0.683789 0
M  V30 1093 H 110.38 -1.82344 -3.75242 0
M  V30 1094 H 109.01 -0.883806 -3.10465 0
M  V30 1095 H 108.062 -3.11911 -2.17751 0
M  V30 1096 H 109.374 -3.96039 -3.0324 0
M  V30 1097 H 108.528 -3.08973 -5.22131 0
M  V30 1098 H 107.267 -2.14473 -4.3801 0
M  V30 1099 H 106.272 -4.2631 -3.47188 0
M  V30 1100 H 107.497 -5.2182 -4.34605 0
M  V30 1101 H 105.443 -3.37462 -5.62544 0
M  V30 1102 H 105.36 -5.10507 -5.57601 0
M  V30 1103 H 106.628 -4.33253 -6.48006 0
M  V30 1104 N 110.857 0.726932 -1.39834 0
M  V30 1105 C 112.103 1.48884 -1.377 0
M  V30 1106 C 112.436 1.94185 0.0244852 0
M  V30 1107 O 111.711 1.67361 0.990986 0
M  V30 1108 C 111.994 2.72288 -2.3565 0
M  V30 1109 C 111.847 2.32956 -3.84775 0
M  V30 1110 C 113.166 3.74414 -2.31306 0
M  V30 1111 H 110.285 0.540062 -0.5015 0
M  V30 1112 H 112.927 0.830547 -1.70886 0
M  V30 1113 H 111.077 3.28457 -2.07481 0
M  V30 1114 H 112.749 1.82356 -4.23726 0
M  V30 1115 H 110.992 1.65088 -4.01159 0
M  V30 1116 H 111.663 3.21362 -4.4881 0
M  V30 1117 H 114.139 3.27849 -2.56231 0
M  V30 1118 H 113.015 4.58414 -3.01907 0
M  V30 1119 H 113.276 4.21909 -1.32081 0
M  V30 1120 N 112.336 1.25143 0.95797 0
M  V30 1121 C 113.266 1.07711 2.07173 0
M  V30 1122 C 114.247 -0.0128462 1.70095 0
M  V30 1123 O 115.432 0.156061 1.93572 0
M  V30 1124 C 112.562 0.691503 3.40346 0
M  V30 1125 C 111.516 1.73132 3.9142 0
M  V30 1126 C 110.842 1.20049 5.21049 0
M  V30 1127 C 112.142 3.1294 4.1817 0
M  V30 1128 H 113.836 2.00873 2.22014 0
M  V30 1129 H 111.382 0.967191 1.06684 0
M  V30 1130 H 113.335 0.556505 4.17709 0
M  V30 1131 H 112.059 -0.275819 3.25433 0
M  V30 1132 H 110.718 1.8547 3.16222 0
M  V30 1133 H 110.366 0.223499 5.02503 0
M  V30 1134 H 110.066 1.89545 5.56189 0
M  V30 1135 H 111.59 1.07782 6.01012 0
M  V30 1136 H 113.004 3.03775 4.86203 0
M  V30 1137 H 111.401 3.79875 4.64559 0
M  V30 1138 H 112.471 3.6025 3.24573 0
M  V30 1139 N 113.814 -1.1601 1.06675 0
M  V30 1140 C 114.761 -2.20525 0.680967 0
M  V30 1141 C 115.731 -1.62904 -0.324283 0
M  V30 1142 O 116.916 -1.89615 -0.212294 0
M  V30 1143 C 114.056 -3.45013 0.0776551 0
M  V30 1144 C 113.169 -4.16863 1.13355 0
M  V30 1145 C 112.304 -5.2888 0.49597 0
M  V30 1146 C 111.343 -5.92537 1.53513 0
M  V30 1147 N 110.48 -6.96038 0.920631 0
M  V30 1148 H 115.32 -2.52876 1.57663 0
M  V30 1149 H 112.857 -1.24199 0.788223 0
M  V30 1150 H 114.815 -4.16193 -0.289704 0
M  V30 1151 H 113.445 -3.132 -0.781393 0
M  V30 1152 H 112.497 -3.44248 1.61857 0
M  V30 1153 H 113.809 -4.60294 1.92174 0
M  V30 1154 H 112.963 -6.06653 0.0758604 0
M  V30 1155 H 111.702 -4.86622 -0.324062 0
M  V30 1156 H 110.707 -5.13482 1.9651 0
M  V30 1157 H 111.932 -6.36873 2.35733 0
M  V30 1158 H 109.878 -6.55888 0.12138 0
M  V30 1159 H 109.795 -7.3786 1.64616 0
M  V30 1160 H 111.063 -7.77725 0.525795 0
M  V30 1161 N 115.292 -0.849877 -1.32721 0
M  V30 1162 C 116.239 -0.289033 -2.28983 0
M  V30 1163 C 117.209 0.601324 -1.54833 0
M  V30 1164 O 118.394 0.537253 -1.8308 0
M  V30 1165 C 115.534 0.520623 -3.4115 0
M  V30 1166 C 114.647 -0.394989 -4.3019 0
M  V30 1167 C 113.782 0.426834 -5.29482 0
M  V30 1168 C 112.821 -0.486476 -6.10164 0
M  V30 1169 N 111.958 0.297879 -7.01468 0
M  V30 1170 H 116.798 -1.11519 -2.76347 0
M  V30 1171 H 114.335 -0.56138 -1.35967 0
M  V30 1172 H 116.293 1.00563 -4.04899 0
M  V30 1173 H 114.923 1.31165 -2.9495 0
M  V30 1174 H 113.975 -0.99836 -3.67065 0
M  V30 1175 H 115.287 -1.09612 -4.86607 0
M  V30 1176 H 114.441 0.975205 -5.98811 0
M  V30 1177 H 113.18 1.16136 -4.73671 0
M  V30 1178 H 112.185 -1.04677 -5.39743 0
M  V30 1179 H 113.41 -1.21953 -6.6806 0
M  V30 1180 H 111.356 1.01558 -6.48091 0
M  V30 1181 H 111.273 -0.344318 -7.55216 0
M  V30 1182 H 112.541 0.828131 -7.75089 0
M  V30 1183 N 116.77 1.45427 -0.607355 0
M  V30 1184 C 117.998 2.06614 -0.108814 0
M  V30 1185 C 118.413 1.45204 1.2067 0
M  V30 1186 O 117.77 0.566132 1.73497 0
M  V30 1187 C 117.821 3.61481 0.0375347 0
M  V30 1188 O 117.542 4.20598 -1.22593 0
M  V30 1189 C 119.043 4.39652 0.567561 0
M  V30 1190 H 116.263 0.66747 -0.0687351 0
M  V30 1191 H 118.807 1.86675 -0.835022 0
M  V30 1192 H 116.962 3.80762 0.714068 0
M  V30 1193 H 117.376 5.1377 -1.05547 0
M  V30 1194 H 118.85 5.48518 0.61905 0
M  V30 1195 H 119.327 4.09417 1.58978 0
M  V30 1196 H 119.933 4.25234 -0.0749202 0
M  V30 1197 N 118.248 0.346503 1.53744 0
M  V30 1198 C 119.494 -0.249473 2.0126 0
M  V30 1199 C 119.827 -1.49965 1.23386 0
M  V30 1200 O 119.102 -1.91811 0.32229 0
M  V30 1201 C 119.385 -0.560643 3.55709 0
M  V30 1202 C 119.238 0.701836 4.44291 0
M  V30 1203 C 120.557 -1.36905 4.18264 0
M  V30 1204 H 117.676 -0.0891987 0.731582 0
M  V30 1205 H 120.318 0.467624 1.84156 0
M  V30 1206 H 118.468 -1.17156 3.70414 0
M  V30 1207 H 120.14 1.33974 4.41417 0
M  V30 1208 H 118.383 1.32612 4.13033 0
M  V30 1209 H 119.054 0.43933 5.50249 0
M  V30 1210 H 121.53 -0.852448 4.07275 0
M  V30 1211 H 120.406 -1.55553 5.26398 0
M  V30 1212 H 120.667 -2.37203 3.73078 0
M  V30 1213 N 119.726 -1.57421 0.075193 0
M  V30 1214 C 121.003 -1.85029 -0.634329 0
M  V30 1215 C 121.383 -0.968305 -1.87582 0
M  V30 1216 O 120.731 -0.0354749 -2.28472 0
M  V30 1217 C 120.941 -3.35286 -0.968742 0
M  V30 1218 C 122.289 -4.02875 -1.34077 0
M  V30 1219 O 123.313 -3.40051 -1.06037 0
M  V30 1220 O 122.172 -5.13691 -1.86506 0
M  V30 1221 H 119.266 -0.7645 -0.315387 0
M  V30 1222 H 121.812 -1.69366 0.106382 0
M  V30 1223 H 120.584 -3.91203 -0.0871376 0
M  V30 1224 H 120.207 -3.56223 -1.7661 0
M  V30 1225 N 121.204 0.198386 -1.56346 0
M  V30 1226 C 122.151 1.24589 -1.94284 0
M  V30 1227 C 123.121 1.454 -0.802997 0
M  V30 1228 O 124.306 1.58588 -1.06087 0
M  V30 1229 C 121.446 2.58631 -2.28482 0
M  V30 1230 C 120.559 2.45426 -3.55514 0
M  V30 1231 C 119.694 3.7215 -3.79049 0
M  V30 1232 C 118.733 3.53763 -4.99518 0
M  V30 1233 N 117.87 4.72491 -5.19323 0
M  V30 1234 H 122.71 0.915356 -2.83593 0
M  V30 1235 H 120.247 0.440629 -1.40346 0
M  V30 1236 H 122.205 3.3672 -2.46324 0
M  V30 1237 H 120.835 2.89734 -1.42317 0
M  V30 1238 H 119.887 1.58652 -3.45737 0
M  V30 1239 H 121.199 2.27772 -4.43758 0
M  V30 1240 H 120.353 4.58679 -3.97113 0
M  V30 1241 H 119.092 3.92754 -2.89129 0
M  V30 1242 H 118.097 2.65619 -4.8138 0
M  V30 1243 H 119.322 3.34607 -5.90944 0
M  V30 1244 H 117.268 4.93365 -4.3235 0
M  V30 1245 H 117.185 4.5765 -6.01741 0
M  V30 1246 H 118.453 5.6038 -5.41843 0
M  V30 1247 N 122.682 1.50554 0.465978 0
M  V30 1248 C 123.629 1.6979 1.56333 0
M  V30 1249 C 124.599 0.539239 1.57103 0
M  V30 1250 O 125.784 0.770401 1.74555 0
M  V30 1251 C 122.924 1.80273 2.94271 0
M  V30 1252 C 122.037 3.07674 3.0325 0
M  V30 1253 C 121.172 3.08922 4.32135 0
M  V30 1254 C 120.211 4.30755 4.34875 0
M  V30 1255 N 119.348 4.29714 5.55239 0
M  V30 1256 H 124.188 2.63472 1.39235 0
M  V30 1257 H 121.725 1.30602 0.676873 0
M  V30 1258 H 123.683 1.84332 3.74269 0
M  V30 1259 H 122.313 0.900258 3.09992 0
M  V30 1260 H 121.365 3.13062 2.16094 0
M  V30 1261 H 122.677 3.97642 3.01135 0
M  V30 1262 H 121.831 3.11738 5.20485 0
M  V30 1263 H 120.57 2.16792 4.36866 0
M  V30 1264 H 119.575 4.28146 3.44922 0
M  V30 1265 H 120.8 5.24117 4.31831 0
M  V30 1266 H 118.746 3.4044 5.60746 0
M  V30 1267 H 118.663 5.13456 5.54886 0
M  V30 1268 H 119.931 4.36683 6.457 0
M  V30 1269 N 124.16 -0.719506 1.40217 0
M  V30 1270 C 125.409 -1.47486 1.37589 0
M  V30 1271 C 125.722 -1.9559 -0.0201568 0
M  V30 1272 O 126.928 -2.70973 -0.169049 0
M  V30 1273 C 125.384 -2.66575 2.41796 0
M  V30 1274 C 124.992 -2.25358 3.87192 0
M  V30 1275 C 126.736 -3.4433 2.48269 0
M  V30 1276 C 124.643 -3.41262 4.83005 0
M  V30 1277 H 123.573 -0.553901 0.511576 0
M  V30 1278 H 126.224 -0.783427 1.65936 0
M  V30 1279 H 124.606 -3.3787 2.06543 0
M  V30 1280 H 125.78 -1.61509 4.31569 0
M  V30 1281 H 124.095 -1.60657 3.84159 0
M  V30 1282 H 126.692 -4.30569 3.17041 0
M  V30 1283 H 127.035 -3.87872 1.51198 0
M  V30 1284 H 127.568 -2.80076 2.82493 0
M  V30 1285 H 124.307 -3.02755 5.81394 0
M  V30 1286 H 123.827 -4.0404 4.43297 0
M  V30 1287 H 125.506 -4.07383 5.02641 0
M  V30 1288 N 125.638 -1.25649 -0.95132 0
M  V30 1289 C 126.884 -1.10757 -1.69884 0
M  V30 1290 C 127.217 0.350061 -1.91019 0
M  V30 1291 O 126.492 1.25783 -1.48354 0
M  V30 1292 C 126.775 -1.86606 -3.07978 0
M  V30 1293 C 126.628 -3.40217 -2.94232 0
M  V30 1294 C 127.947 -1.65182 -4.07925 0
M  V30 1295 H 125.066 -0.40374 -0.616574 0
M  V30 1296 H 127.708 -1.54521 -1.10558 0
M  V30 1297 H 125.858 -1.49409 -3.58621 0
M  V30 1298 H 127.53 -3.87108 -2.50889 0
M  V30 1299 H 125.773 -3.67759 -2.30078 0
M  V30 1300 H 126.444 -3.88505 -3.92133 0
M  V30 1301 H 128.92 -1.9757 -3.66204 0
M  V30 1302 H 127.796 -2.20683 -5.02583 0
M  V30 1303 H 128.057 -0.593933 -4.38092 0
M  V30 1304 N 127.117 1.15442 -1.07289 0
M  V30 1305 C 128.533 1.38201 -0.798288 0
M  V30 1306 C 128.733 1.92429 0.597769 0
M  V30 1307 O 127.789 2.12962 1.3566 0
M  V30 1308 C 129.102 2.35357 -1.87156 0
M  V30 1309 C 130.65 2.49021 -1.89624 0
M  V30 1310 C 131.125 3.49468 -2.96034 0
M  V30 1311 N 132.616 3.57003 -2.95132 0
M  V30 1312 C 133.351 4.34543 -3.74112 0
M  V30 1313 N 132.847 5.15421 -4.6294 0
M  V30 1314 N 134.64 4.29625 -3.62462 0
M  V30 1315 H 126.791 0.78584 -1.97328 0
M  V30 1316 H 129.054 0.408065 -0.855679 0
M  V30 1317 H 128.76 2.02626 -2.87464 0
M  V30 1318 H 128.634 3.35129 -1.73114 0
M  V30 1319 H 131.021 2.81051 -0.899687 0
M  V30 1320 H 131.102 1.4925 -2.07745 0
M  V30 1321 H 130.746 3.18173 -3.95889 0
M  V30 1322 H 130.676 4.48992 -2.75161 0
M  V30 1323 H 133.167 2.99276 -2.30743 0
M  V30 1324 H 133.48 5.7183 -5.19837 0
M  V30 1325 H 131.825 5.14729 -4.66989 0
M  V30 1326 H 135.016 3.65505 -2.92444 0
M  V30 1327 H 135.189 4.89807 -4.24256 0
M  V30 1328 N 128.595 0.856903 1.32268 0
M  V30 1329 C 129.823 0.475439 2.01363 0
M  V30 1330 C 130.238 -0.928486 1.64392 0
M  V30 1331 O 129.595 -1.60624 0.866387 0
M  V30 1332 C 129.646 0.607545 3.56358 0
M  V30 1333 O 129.367 1.95617 3.92002 0
M  V30 1334 C 130.868 0.225382 4.42727 0
M  V30 1335 H 128.088 0.186636 0.644521 0
M  V30 1336 H 130.632 1.15446 1.68797 0
M  V30 1337 H 128.787 -0.0237719 3.87393 0
M  V30 1338 H 129.201 1.95455 4.86721 0
M  V30 1339 H 130.675 0.368813 5.50767 0
M  V30 1340 H 131.152 -0.834369 4.31202 0
M  V30 1341 H 131.758 0.831864 4.17085 0
M  V30 1342 N 130.073 -1.45103 0.615059 0
M  V30 1343 C 130.983 -2.34382 -0.101034 0
M  V30 1344 C 131.999 -1.51681 -0.852585 0
M  V30 1345 O 133.175 -1.8446 -0.808484 0
M  V30 1346 C 130.24 -3.29417 -1.08099 0
M  V30 1347 C 129.301 -4.28025 -0.330577 0
M  V30 1348 C 128.534 -5.1852 -1.26385 0
M  V30 1349 O 128.757 -5.12598 -2.50198 0
M  V30 1350 O 127.691 -5.97122 -0.756866 0
M  V30 1351 H 131.517 -2.97033 0.632855 0
M  V30 1352 H 129.102 -1.4461 0.375293 0
M  V30 1353 H 130.984 -3.87958 -1.6452 0
M  V30 1354 H 129.659 -2.69321 -1.79577 0
M  V30 1355 H 128.566 -3.73078 0.276283 0
M  V30 1356 H 129.899 -4.90997 0.343866 0
M  V30 1357 N 131.551 -0.354651 -1.53558 0
M  V30 1358 C 132.8 0.239504 -2.00273 0
M  V30 1359 C 133.113 1.50759 -1.24623 0
M  V30 1360 O 134.319 2.17968 -1.61871 0
M  V30 1361 C 132.775 0.477341 -3.5672 0
M  V30 1362 C 132.383 -0.775488 -4.41237 0
M  V30 1363 C 134.127 1.02975 -4.11821 0
M  V30 1364 C 132.034 -0.507838 -5.89216 0
M  V30 1365 H 130.964 0.0932743 -0.748208 0
M  V30 1366 H 133.615 -0.471701 -1.77334 0
M  V30 1367 H 131.997 1.24953 -3.7577 0
M  V30 1368 H 133.171 -1.54963 -4.33962 0
M  V30 1369 H 131.486 -1.25033 -3.97185 0
M  V30 1370 H 134.083 1.24513 -5.2 0
M  V30 1371 H 134.426 1.98862 -3.65731 0
M  V30 1372 H 134.959 0.317994 -3.96527 0
M  V30 1373 H 131.698 -1.43674 -6.39561 0
M  V30 1374 H 131.218 0.228011 -5.99366 0
M  V30 1375 H 132.897 -0.129238 -6.46871 0
M  V30 1376 N 133.029 1.57378 -0.0835403 0
M  V30 1377 C 134.277 1.93547 0.581718 0
M  V30 1378 C 134.598 0.96524 1.69435 0
M  V30 1379 O 133.868 0.0153369 1.95894 0
M  V30 1380 H 132.448 0.714521 0.217874 0
M  V30 1381 H 135.11 1.94366 -0.144158 0
M  V30 1382 H 134.206 2.95665 0.999423 0
M  V30 1383 N 134.507 -0.190092 1.56449 0
M  V30 1384 C 135.753 -0.911052 1.81184 0
M  V30 1385 C 136.086 -1.82699 0.658396 0
M  V30 1386 O 135.361 -1.91491 -0.340775 0
M  V30 1387 C 135.644 -1.72297 3.16205 0
M  V30 1388 C 135.497 -0.831419 4.42049 0
M  V30 1389 C 136.816 -2.69454 3.47969 0
M  V30 1390 H 133.935 -0.32977 0.659106 0
M  V30 1391 H 136.577 -0.178169 1.89163 0
M  V30 1392 H 134.727 -2.34778 3.09534 0
M  V30 1393 H 136.399 -0.220929 4.60771 0
M  V30 1394 H 134.642 -0.138406 4.33579 0
M  V30 1395 H 135.313 -1.43461 5.33032 0
M  V30 1396 H 137.789 -2.17104 3.54972 0
M  V30 1397 H 136.665 -3.23342 4.43555 0
M  V30 1398 H 136.926 -3.48744 2.71717 0
M  V30 1399 N 135.985 -1.50799 -0.457987 0
M  V30 1400 C 136.915 -1.73553 -1.5621 0
M  V30 1401 C 137.896 -0.584774 -1.59732 0
M  V30 1402 O 139.081 -0.825314 -1.7579 0
M  V30 1403 C 136.211 -1.84169 -2.94447 0
M  V30 1404 C 135.165 -2.99461 -3.0579 0
M  V30 1405 C 134.491 -2.95235 -4.45803 0
M  V30 1406 C 135.791 -4.39766 -2.81786 0
M  V30 1407 H 137.485 -2.66 -1.37421 0
M  V30 1408 H 135.031 -1.28002 -0.659662 0
M  V30 1409 H 136.984 -1.98672 -3.71628 0
M  V30 1410 H 135.708 -0.883545 -3.14422 0
M  V30 1411 H 134.367 -2.8463 -2.31044 0
M  V30 1412 H 134.015 -1.97239 -4.62715 0
M  V30 1413 H 133.715 -3.72642 -4.54326 0
M  V30 1414 H 135.239 -3.11803 -5.24987 0
M  V30 1415 H 136.653 -4.55054 -3.4871 0
M  V30 1416 H 135.05 -5.18722 -3.0174 0
M  V30 1417 H 136.12 -4.51229 -1.7754 0
M  V30 1418 N 137.463 0.71206 -1.40597 0
M  V30 1419 C 138.393 1.83889 -1.43899 0
M  V30 1420 C 139.374 1.67442 -0.299504 0
M  V30 1421 O 140.559 1.87421 -0.508624 0
M  V30 1422 C 137.689 3.21877 -1.30431 0
M  V30 1423 C 136.643 3.53002 -2.42019 0
M  V30 1424 C 135.969 4.90172 -2.13626 0
M  V30 1425 C 137.269 3.53643 -3.84362 0
M  V30 1426 H 138.963 1.81383 -2.38203 0
M  V30 1427 H 136.509 0.871237 -1.14654 0
M  V30 1428 H 138.462 4.00404 -1.31357 0
M  V30 1429 H 137.186 3.24968 -0.326049 0
M  V30 1430 H 135.845 2.76818 -2.40349 0
M  V30 1431 H 135.493 4.89869 -1.14182 0
M  V30 1432 H 135.193 5.11962 -2.88389 0
M  V30 1433 H 136.717 5.71028 -2.1624 0
M  V30 1434 H 138.131 4.22203 -3.87837 0
M  V30 1435 H 136.528 3.86961 -4.58673 0
M  V30 1436 H 137.598 2.52954 -4.13693 0
M  V30 1437 N 138.941 1.26152 0.944643 0
M  V30 1438 C 140.357 1.03189 1.21754 0
M  V30 1439 C 140.557 -0.245112 2.00004 0
M  V30 1440 O 139.613 -0.955176 2.33736 0
M  V30 1441 C 140.926 2.26119 1.98219 0
M  V30 1442 C 142.474 2.30984 2.11224 0
M  V30 1443 C 142.949 3.53597 2.91089 0
M  V30 1444 N 144.44 3.54053 2.98664 0
M  V30 1445 C 145.175 4.45593 3.60881 0
M  V30 1446 N 144.671 5.47416 4.24626 0
M  V30 1447 N 146.464 4.33252 3.58119 0
M  V30 1448 H 138.615 2.08177 0.421437 0
M  V30 1449 H 140.878 0.914723 0.248969 0
M  V30 1450 H 140.584 3.18984 1.48128 0
M  V30 1451 H 140.458 2.3009 2.98895 0
M  V30 1452 H 142.845 1.38635 2.60508 0
M  V30 1453 H 142.926 2.31026 1.09821 0
M  V30 1454 H 142.57 4.46273 2.42493 0
M  V30 1455 H 142.5 3.50802 3.92741 0
M  V30 1456 H 144.991 2.80403 2.53343 0
M  V30 1457 H 145.304 6.13459 4.69987 0
M  V30 1458 H 143.649 5.51278 4.23223 0
M  V30 1459 H 146.84 3.52924 3.0751 0
M  V30 1460 H 147.013 5.04786 4.06319 0
M  V30 1461 N 140.419 -1.14872 1.07899 0
M  V30 1462 C 141.349 -2.2193 0.725887 0
M  V30 1463 C 142.33 -1.67622 -0.28927 0
M  V30 1464 O 143.515 -1.93533 -0.160787 0
M  V30 1465 C 140.645 -3.47061 0.128856 0
M  V30 1466 C 139.599 -4.14363 1.07178 0
M  V30 1467 C 138.925 -5.33636 0.337229 0
M  V30 1468 C 140.225 -4.63492 2.40775 0
M  V30 1469 H 141.919 -2.51724 1.62097 0
M  V30 1470 H 139.465 -1.20991 0.780838 0
M  V30 1471 H 141.418 -4.21199 -0.130147 0
M  V30 1472 H 140.142 -3.16617 -0.80134 0
M  V30 1473 H 138.801 -3.42173 1.3158 0
M  V30 1474 H 138.449 -4.99449 -0.596606 0
M  V30 1475 H 138.149 -5.79609 0.965788 0
M  V30 1476 H 139.673 -6.10539 0.0861567 0
M  V30 1477 H 141.087 -5.2913 2.20669 0
M  V30 1478 H 139.484 -5.20148 2.99276 0
M  V30 1479 H 140.554 -3.78834 3.02676 0
M  V30 1480 N 141.898 -0.863906 -1.31812 0
M  V30 1481 C 143.123 -0.48527 -2.01643 0
M  V30 1482 C 143.548 0.913058 -1.64453 0
M  V30 1483 O 142.906 1.6014 -0.849985 0
M  V30 1484 C 142.954 -0.642625 -3.54828 0
M  V30 1485 O 142.058 0.320659 -4.11151 0
M  V30 1486 H 141.399 -0.193793 -0.635091 0
M  V30 1487 H 143.929 -1.16565 -1.68148 0
M  V30 1488 H 143.939 -0.533628 -4.04495 0
M  V30 1489 H 142.614 -1.66227 -3.81237 0
M  V30 1490 H 141.191 0.167126 -3.72525 0
M  V30 1491 N 143.376 1.44774 -0.622745 0
M  V30 1492 C 144.326 2.2774 0.108889 0
M  V30 1493 C 145.31 1.38189 0.824175 0
M  V30 1494 O 146.502 1.62063 0.711664 0
M  V30 1495 C 143.631 3.25353 1.09546 0
M  V30 1496 C 142.717 4.22392 0.380232 0
M  V30 1497 N 143.108 5.02388 -0.586535 0
M  V30 1498 C 141.406 4.41588 0.625792 0
M  V30 1499 C 142.107 5.72894 -1.00834 0
M  V30 1500 N 141.083 5.42479 -0.348878 0
M  V30 1501 H 144.885 2.86993 -0.63341 0
M  V30 1502 H 142.399 1.5611 -0.447589 0
M  V30 1503 H 144.396 3.83538 1.63414 0
M  V30 1504 H 143.056 2.6766 1.83815 0
M  V30 1505 H 144.067 5.0885 -0.963975 0
M  V30 1506 H 140.744 3.95003 1.352 0
M  V30 1507 H 142.134 6.47158 -1.80656 0
M  V30 1508 N 144.854 0.36279 1.53368 0
M  V30 1509 C 146.265 -0.117022 1.86333 0
M  V30 1510 C 146.616 -1.48397 1.28347 0
M  V30 1511 O 145.741 -2.07787 0.604428 0
M  V30 1512 C 146.336 -0.21912 3.38091 0
M  V30 1513 C 144.895 -0.643184 3.70864 0
M  V30 1514 C 144.042 0.211318 2.76494 0
M  V30 1515 H 146.993 0.581687 1.47655 0
M  V30 1516 H 147.014 -1.04319 3.6592 0
M  V30 1517 H 146.526 0.775902 3.80265 0
M  V30 1518 H 144.627 -1.64654 3.34245 0
M  V30 1519 H 144.74 -0.41973 4.77258 0
M  V30 1520 H 143.104 -0.319367 2.5269 0
M  V30 1521 H 143.887 1.20383 3.21501 0
M  V30 1522 N 146.332 -1.57332 0.0918853 0
M  V30 1523 C 147.28 -2.15075 -0.885747 0
M  V30 1524 C 148.274 -1.09277 -1.29441 0
M  V30 1525 O 149.48 -1.27627 -1.26931 0
M  V30 1526 H 145.855 -0.687966 -0.303656 0
M  V30 1527 H 147.826 -2.96047 -0.373995 0
M  V30 1528 C 146.575 -2.74325 -2.13638 0
M  V30 1529 H 145.898 -3.55418 -1.8308 0
M  V30 1530 H 147.338 -3.183 -2.80109 0
M  V30 1531 C 145.797 -1.70062 -2.90827 0
M  V30 1532 O 146.327 -1.13763 -3.85254 0
M  V30 1533 N 144.533 -1.40628 -2.54307 0
M  V30 1534 H 144.08 -1.866 -1.7759 0
M  V30 1535 H 144.038 -0.711043 -3.06254 0
M  V30 1536 N 147.81 0.181792 -1.56548 0
M  V30 1537 C 149.059 0.898348 -1.8059 0
M  V30 1538 C 149.372 1.83862 -0.667379 0
M  V30 1539 O 150.578 2.59678 -0.792446 0
M  V30 1540 C 149.034 1.64791 -3.19956 0
M  V30 1541 C 148.642 0.751789 -4.41647 0
M  V30 1542 C 150.386 2.35331 -3.53298 0
M  V30 1543 C 148.293 1.50098 -5.72035 0
M  V30 1544 H 147.223 0.339194 -0.673397 0
M  V30 1545 H 149.874 0.151413 -1.82874 0
M  V30 1546 H 148.256 2.43921 -3.11959 0
M  V30 1547 H 149.43 -0.0018076 -4.608 0
M  V30 1548 H 147.745 0.156562 -4.16106 0
M  V30 1549 H 150.342 2.91958 -4.47956 0
M  V30 1550 H 150.685 3.10164 -2.77676 0
M  V30 1551 H 151.218 1.63154 -3.62803 0
M  V30 1552 H 147.957 0.795175 -6.50659 0
M  V30 1553 H 147.477 2.22817 -5.56878 0
M  V30 1554 H 149.156 2.05125 -6.13622 0
M  V30 1555 N 149.288 1.51039 0.449983 0
M  V30 1556 C 150.537 1.62317 1.19733 0
M  V30 1557 C 150.85 0.339101 1.92638 0
M  V30 1558 O 152.056 0.331069 2.69474 0
M  V30 1559 C 150.512 2.86608 2.17678 0
M  V30 1560 C 150.12 4.21972 1.50479 0
M  V30 1561 C 151.864 3.07239 2.92924 0
M  V30 1562 C 149.771 5.37426 2.46834 0
M  V30 1563 H 148.701 0.604532 0.450619 0
M  V30 1564 H 151.352 1.77494 0.465625 0
M  V30 1565 H 149.734 2.65037 2.94231 0
M  V30 1566 H 150.908 4.53878 0.795716 0
M  V30 1567 H 149.223 4.07117 0.874344 0
M  V30 1568 H 151.82 3.90668 3.65079 0
M  V30 1569 H 152.163 2.19807 3.5354 0
M  V30 1570 H 152.696 3.29091 2.23481 0
M  V30 1571 H 149.435 6.27079 1.90926 0
M  V30 1572 H 148.955 5.09912 3.15832 0
M  V30 1573 H 150.634 5.68862 3.08228 0
M  V30 1574 N 150.766 -0.704594 1.40972 0
M  V30 1575 C 151.713 -1.81862 1.42109 0
M  V30 1576 C 152.683 -1.63781 0.276593 0
M  V30 1577 O 153.868 -1.84759 0.4763 0
M  V30 1578 C 151.008 -3.19669 1.30022 0
M  V30 1579 C 150.121 -3.49246 2.54267 0
M  V30 1580 C 149.256 -4.76618 2.3454 0
M  V30 1581 C 148.295 -4.99133 3.54306 0
M  V30 1582 N 147.432 -6.17726 3.33706 0
M  V30 1583 H 152.272 -1.80226 2.37324 0
M  V30 1584 H 149.809 -0.880238 1.17857 0
M  V30 1585 H 151.767 -3.99263 1.21018 0
M  V30 1586 H 150.397 -3.20506 0.384192 0
M  V30 1587 H 149.449 -2.64125 2.73756 0
M  V30 1588 H 150.761 -3.61788 3.43381 0
M  V30 1589 H 149.915 -5.64249 2.22952 0
M  V30 1590 H 148.654 -4.66305 1.42867 0
M  V30 1591 H 147.659 -4.09953 3.66359 0
M  V30 1592 H 148.884 -5.11311 4.4692 0
M  V30 1593 H 146.83 -6.08642 2.44725 0
M  V30 1594 H 146.747 -6.30995 4.16391 0
M  V30 1595 H 148.015 -7.08115 3.25873 0
M  V30 1596 N 152.244 -1.26651 -0.937939 0
M  V30 1597 C 153.174 -1.10993 -2.05433 0
M  V30 1598 C 154.155 -0.0142161 -1.70094 0
M  V30 1599 O 155.34 -0.186837 -1.93299 0
M  V30 1600 C 152.47 -0.745561 -3.39203 0
M  V30 1601 C 151.424 -1.79337 -3.88616 0
M  V30 1602 C 150.75 -1.28324 -5.19073 0
M  V30 1603 C 152.05 -3.19553 -4.13138 0
M  V30 1604 H 153.744 -2.0438 -2.1879 0
M  V30 1605 H 151.29 -0.984041 -1.05131 0
M  V30 1606 H 153.243 -0.622888 -4.16771 0
M  V30 1607 H 151.967 0.22401 -3.25831 0
M  V30 1608 H 150.626 -1.90477 -3.13231 0
M  V30 1609 H 150.274 -0.303414 -5.02084 0
M  V30 1610 H 149.974 -1.98369 -5.53103 0
M  V30 1611 H 151.498 -1.1733 -5.99221 0
M  V30 1612 H 152.912 -3.11471 -4.81309 0
M  V30 1613 H 151.309 -3.87218 -4.58457 0
M  V30 1614 H 152.379 -3.65368 -3.18801 0
M  V30 1615 N 153.722 1.14298 -1.08507 0
M  V30 1616 C 154.669 2.19414 -0.715965 0
M  V30 1617 C 155.639 1.63399 0.298326 0
M  V30 1618 O 156.824 1.89929 0.182101 0
M  V30 1619 C 153.964 3.44845 -0.132534 0
M  V30 1620 C 153.077 4.15007 -1.19973 0
M  V30 1621 C 152.212 5.28024 -0.580048 0
M  V30 1622 C 151.251 5.9002 -1.62921 0
M  V30 1623 N 150.388 6.94485 -1.03125 0
M  V30 1624 H 155.228 2.50336 -1.61666 0
M  V30 1625 H 152.765 1.2293 -0.807882 0
M  V30 1626 H 154.723 4.16601 0.223454 0
M  V30 1627 H 153.353 3.14403 0.731467 0
M  V30 1628 H 152.405 3.41629 -1.67313 0
M  V30 1629 H 153.717 4.57178 -1.99473 0
M  V30 1630 H 152.871 6.06455 -0.172364 0
M  V30 1631 H 151.61 4.87076 0.246603 0
M  V30 1632 H 150.615 5.10291 -2.04654 0
M  V30 1633 H 151.84 6.33042 -2.45835 0
M  V30 1634 H 149.786 6.55612 -0.225711 0
M  V30 1635 H 149.703 7.35148 -1.76334 0
M  V30 1636 H 150.971 7.7679 -0.649458 0
M  V30 1637 N 155.201 0.870884 1.31352 0
M  V30 1638 C 156.111 0.330783 2.32256 0
M  V30 1639 C 157.127 -0.559767 1.6475 0
M  V30 1640 O 158.303 -0.456263 1.96164 0
M  V30 1641 C 155.368 -0.458137 3.4366 0
M  V30 1642 C 154.429 0.460482 4.26823 0
M  V30 1643 C 153.662 -0.290881 5.32907 0
M  V30 1644 O 153.885 -1.51885 5.49806 0
M  V30 1645 O 152.819 0.351732 6.00871 0
M  V30 1646 H 156.645 1.16718 2.80376 0
M  V30 1647 H 154.23 0.634285 1.35267 0
M  V30 1648 H 156.112 -0.905343 4.1156 0
M  V30 1649 H 154.787 -1.27106 2.97701 0
M  V30 1650 H 153.694 0.956207 3.61673 0
M  V30 1651 H 155.027 1.23903 4.7635 0
M  V30 1652 N 156.679 -1.44442 0.630414 0
M  V30 1653 C 157.928 -2.01267 0.132073 0
M  V30 1654 C 158.241 -1.50172 -1.25331 0
M  V30 1655 O 159.447 -1.9912 -1.84562 0
M  V30 1656 C 157.903 -3.59422 0.185362 0
M  V30 1657 C 157.511 -4.19514 1.57201 0
M  V30 1658 C 159.255 -4.23724 -0.256553 0
M  V30 1659 C 157.162 -5.69891 1.58045 0
M  V30 1660 H 156.092 -0.752619 0.0456092 0
M  V30 1661 H 158.743 -1.65666 0.789106 0
M  V30 1662 H 157.125 -3.92318 -0.538759 0
M  V30 1663 H 158.299 -3.98156 2.31966 0
M  V30 1664 H 156.614 -3.67496 1.95795 0
M  V30 1665 H 159.211 -5.34019 -0.269767 0
M  V30 1666 H 159.554 -3.96013 -1.28372 0
M  V30 1667 H 160.087 -3.95629 0.41505 0
M  V30 1668 H 156.826 -6.02336 2.58597 0
M  V30 1669 H 156.346 -5.93373 0.875725 0
M  V30 1670 H 158.025 -6.33515 1.31408 0
M  V30 1671 N 158.157 -0.370918 -1.53173 0
M  V30 1672 C 159.404 0.217102 -2.01333 0
M  V30 1673 C 159.732 1.48338 -1.25802 0
M  V30 1674 O 158.987 1.92698 -0.34146 0
M  V30 1675 C 159.286 0.549696 -3.53147 0
M  V30 1676 C 158.952 -0.622872 -4.46577 0
M  V30 1677 C 157.614 -0.944595 -4.71838 0
M  V30 1678 C 159.966 -1.40819 -5.01816 0
M  V30 1679 C 157.294 -2.05351 -5.49589 0
M  V30 1680 C 159.646 -2.50757 -5.80778 0
M  V30 1681 C 158.31 -2.83458 -6.04324 0
M  V30 1682 H 157.58 0.0794431 -0.736729 0
M  V30 1683 H 160.227 -0.504481 -1.84736 0
M  V30 1684 H 158.532 1.35237 -3.6772 0
M  V30 1685 H 160.229 1.017 -3.87889 0
M  V30 1686 H 156.819 -0.36209 -4.27068 0
M  V30 1687 H 161.003 -1.17289 -4.82242 0
M  V30 1688 H 156.259 -2.3108 -5.6605 0
M  V30 1689 H 160.433 -3.12022 -6.22588 0
M  V30 1690 H 158.06 -3.69508 -6.64355 0
M  V30 1691 N 159.635 1.57281 -0.100228 0
M  V30 1692 C 160.545 2.17833 0.870965 0
M  V30 1693 C 161.561 1.14921 1.30649 0
M  V30 1694 O 162.737 1.47313 1.37335 0
M  V30 1695 C 159.802 2.75085 2.1102 0
M  V30 1696 C 158.863 3.9297 1.72838 0
M  V30 1697 C 158.096 4.47482 2.90854 0
M  V30 1698 O 158.319 4.00922 4.05731 0
M  V30 1699 O 157.253 5.38433 2.69023 0
M  V30 1700 H 161.079 3.0124 0.38575 0
M  V30 1701 H 158.664 1.48881 0.124397 0
M  V30 1702 H 160.546 3.11656 2.83634 0
M  V30 1703 H 159.221 1.94721 2.58584 0
M  V30 1704 H 158.128 3.61201 0.973883 0
M  V30 1705 H 159.461 4.74713 1.30033 0
M  V30 1706 N 161.113 -0.173488 1.56642 0
M  V30 1707 C 162.341 -0.906095 1.86004 0
M  V30 1708 C 162.756 -1.75921 0.685355 0
M  V30 1709 O 162.113 -1.79198 -0.345578 0
M  V30 1710 C 162.164 -1.78462 3.14378 0
M  V30 1711 O 161.885 -0.965914 4.27319 0
M  V30 1712 C 163.386 -2.62707 3.57071 0
M  V30 1713 H 160.606 -0.263341 0.617165 0
M  V30 1714 H 163.15 -0.174236 2.03756 0
M  V30 1715 H 161.305 -2.46984 2.98459 0
M  V30 1716 H 161.719 -1.56655 5.00559 0
M  V30 1717 H 163.193 -3.19969 4.49804 0
M  V30 1718 H 163.67 -3.37472 2.81086 0
M  V30 1719 H 164.276 -1.99521 3.75595 0
M  V30 1720 N 162.591 -1.51276 -0.441967 0
M  V30 1721 C 164.002 -1.56244 -1.02199 0
M  V30 1722 C 164.353 -0.383149 -1.92422 0
M  V30 1723 O 163.478 0.500613 -2.1053 0
M  V30 1724 C 164.073 -2.83162 -1.86024 0
M  V30 1725 C 162.632 -2.90716 -2.39084 0
M  V30 1726 C 161.779 -2.50858 -1.18175 0
M  V30 1727 H 164.73 -1.5712 -0.223416 0
M  V30 1728 H 164.751 -2.66663 -2.71425 0
M  V30 1729 H 164.263 -3.68974 -1.20331 0
M  V30 1730 H 162.364 -2.09323 -3.08244 0
M  V30 1731 H 162.477 -3.94266 -2.72198 0
M  V30 1732 H 160.841 -2.03951 -1.52565 0
M  V30 1733 H 161.624 -3.3901 -0.541001 0
M  V30 1734 N 164.069 0.697108 -1.41344 0
M  V30 1735 C 165.297 1.48593 -1.43972 0
M  V30 1736 C 165.712 1.88747 -0.0445612 0
M  V30 1737 O 165.069 1.56682 0.935785 0
M  V30 1738 C 165.12 2.74946 -2.34706 0
M  V30 1739 O 164.841 2.36484 -3.68791 0
M  V30 1740 C 166.342 3.687 -2.46121 0
M  V30 1741 H 163.562 0.457964 -0.490418 0
M  V30 1742 H 166.106 0.858429 -1.8561 0
M  V30 1743 H 164.261 3.33937 -1.9638 0
M  V30 1744 H 164.675 3.17918 -4.17167 0
M  V30 1745 H 166.149 4.54145 -3.13777 0
M  V30 1746 H 166.626 4.13081 -1.49199 0
M  V30 1747 H 167.232 3.15613 -2.85076 0
M  V30 1748 N 165.547 1.27147 0.931209 0
M  V30 1749 C 166.457 1.11372 2.06478 0
M  V30 1750 C 167.473 0.044645 1.73943 0
M  V30 1751 O 168.649 0.250417 1.99837 0
M  V30 1752 C 165.714 0.758838 3.38294 0
M  V30 1753 C 164.775 1.90841 3.84549 0
M  V30 1754 C 164.008 1.57036 5.10074 0
M  V30 1755 O 164.231 0.476645 5.68405 0
M  V30 1756 O 163.165 2.40839 5.51616 0
M  V30 1757 H 166.991 2.06493 2.22698 0
M  V30 1758 H 164.576 1.06301 1.04978 0
M  V30 1759 H 166.458 0.574098 4.17471 0
M  V30 1760 H 165.133 -0.162879 3.2329 0
M  V30 1761 H 164.04 2.14819 3.06274 0
M  V30 1762 H 165.373 2.81021 4.04089 0
M  V30 1763 N 167.025 -1.13721 1.09112 0
M  V30 1764 C 168.274 -1.84275 0.82009 0
M  V30 1765 C 168.587 -1.84253 -0.656509 0
M  V30 1766 O 169.793 -2.50668 -1.04296 0
M  V30 1767 C 168.249 -3.30825 1.41714 0
M  V30 1768 C 167.857 -3.39244 2.92605 0
M  V30 1769 C 169.601 -4.06443 1.22492 0
M  V30 1770 C 167.508 -4.80047 3.45411 0
M  V30 1771 H 166.438 -0.690387 0.30312 0
M  V30 1772 H 169.089 -1.28146 1.31343 0
M  V30 1773 H 167.471 -3.86737 0.851498 0
M  V30 1774 H 168.645 -2.93344 3.55367 0
M  V30 1775 H 166.96 -2.77088 3.10823 0
M  V30 1776 H 169.557 -5.10387 1.59402 0
M  V30 1777 H 169.9 -4.15972 0.165299 0
M  V30 1778 H 170.433 -3.56852 1.75788 0
M  V30 1779 H 167.172 -4.75709 4.50978 0
M  V30 1780 H 166.692 -5.26455 2.87411 0
M  V30 1781 H 168.371 -5.48957 3.42425 0
M  V30 1782 N 168.503 -0.877838 -1.30888 0
M  V30 1783 C 169.728 -0.506629 -2.01117 0
M  V30 1784 C 170.153 0.895564 -1.65412 0
M  V30 1785 O 169.511 1.5923 -0.866922 0
M  V30 1786 C 169.559 -0.680223 -3.54126 0
M  V30 1787 O 168.663 0.277033 -4.11468 0
M  V30 1788 H 168.004 -0.200518 -0.633 0
M  V30 1789 H 170.534 -1.18342 -1.66902 0
M  V30 1790 H 170.544 -0.5765 -4.03907 0
M  V30 1791 H 169.219 -1.70261 -3.79452 0
M  V30 1792 H 167.796 0.127606 -3.72682 0
M  V30 1793 N 169.982 1.44106 -0.638065 0
M  V30 1794 C 170.912 2.33448 0.0494287 0
M  V30 1795 C 171.893 1.48606 0.827672 0
M  V30 1796 O 173.078 1.77308 0.792173 0
M  V30 1797 C 170.208 3.31771 1.02691 0
M  V30 1798 C 169.162 4.26485 0.359823 0
M  V30 1799 C 168.488 5.14729 1.44769 0
M  V30 1800 C 169.788 5.17056 -0.738296 0
M  V30 1801 H 171.482 2.91183 -0.696636 0
M  V30 1802 H 169.028 1.40014 -0.336456 0
M  V30 1803 H 170.981 3.93161 1.51666 0
M  V30 1804 H 169.705 2.7226 1.80395 0
M  V30 1805 H 168.364 3.66437 -0.10934 0
M  V30 1806 H 168.012 4.51566 2.21578 0
M  V30 1807 H 167.712 5.78913 1.00668 0
M  V30 1808 H 169.236 5.78991 1.93911 0
M  V30 1809 H 170.65 5.72342 -0.331354 0
M  V30 1810 H 169.047 5.89879 -1.10286 0
M  V30 1811 H 170.117 4.57652 -1.60258 0
M  V30 1812 N 171.46 0.379036 1.52974 0
M  V30 1813 C 172.706 -0.206727 2.01744 0
M  V30 1814 C 173.039 -1.47314 1.26539 0
M  V30 1815 O 172.314 -1.91084 0.362903 0
M  V30 1816 C 172.597 -0.485066 3.56818 0
M  V30 1817 C 172.45 0.795919 4.42702 0
M  V30 1818 C 173.769 -1.28003 4.21074 0
M  V30 1819 H 170.888 -0.0736607 0.73331 0
M  V30 1820 H 173.53 0.506581 1.83122 0
M  V30 1821 H 171.68 -1.09272 3.72816 0
M  V30 1822 H 173.352 1.43307 4.38476 0
M  V30 1823 H 171.595 1.41344 4.10127 0
M  V30 1824 H 172.266 0.555947 5.49193 0
M  V30 1825 H 174.742 -0.765867 4.08991 0
M  V30 1826 H 173.618 -1.44352 5.29579 0
M  V30 1827 H 173.879 -2.29236 3.78026 0
M  V30 1828 N 172.938 -1.57226 0.108567 0
M  V30 1829 C 173.868 -2.17778 -0.84232 0
M  V30 1830 C 174.849 -1.11487 -1.2847 0
M  V30 1831 O 176.034 -1.39681 -1.34918 0
M  V30 1832 C 173.164 -2.76888 -2.09644 0
M  V30 1833 C 172.118 -3.88669 -1.79221 0
M  V30 1834 C 171.444 -4.34541 -3.11574 0
M  V30 1835 C 172.744 -5.11251 -1.06864 0
M  V30 1836 H 174.438 -2.97489 -0.337774 0
M  V30 1837 H 171.984 -1.43097 -0.161025 0
M  V30 1838 H 173.937 -3.17904 -2.76614 0
M  V30 1839 H 172.661 -1.94451 -2.62405 0
M  V30 1840 H 171.32 -3.48213 -1.14644 0
M  V30 1841 H 170.968 -3.48977 -3.62249 0
M  V30 1842 H 170.668 -5.09914 -2.91996 0
M  V30 1843 H 172.192 -4.782 -3.7968 0
M  V30 1844 H 173.606 -5.49352 -1.63968 0
M  V30 1845 H 172.003 -5.9214 -0.974178 0
M  V30 1846 H 173.073 -4.8487 -0.0536168 0
M  V30 1847 N 174.416 0.165178 -1.56732 0
M  V30 1848 C 175.326 1.22423 -2.00125 0
M  V30 1849 C 176.342 1.48084 -0.913619 0
M  V30 1850 O 177.518 1.60112 -1.22172 0
M  V30 1851 C 174.583 2.54197 -2.35764 0
M  V30 1852 C 173.644 2.36343 -3.58386 0
M  V30 1853 C 172.877 3.61834 -3.92316 0
M  V30 1854 O 173.1 4.67267 -3.27135 0
M  V30 1855 O 172.034 3.55579 -4.85641 0
M  V30 1856 H 175.86 0.885886 -2.90492 0
M  V30 1857 H 173.445 0.372518 -1.44681 0
M  V30 1858 H 175.327 3.3192 -2.59629 0
M  V30 1859 H 174.002 2.87598 -1.48557 0
M  V30 1860 H 172.909 1.56632 -3.39731 0
M  V30 1861 H 174.242 2.07865 -4.46154 0
M  V30 1862 N 175.894 1.51508 0.433938 0
M  V30 1863 C 176.824 1.76016 1.53429 0
M  V30 1864 C 177.805 0.610112 1.58782 0
M  V30 1865 O 178.99 0.853177 1.74455 0
M  V30 1866 C 176.12 1.88831 2.9148 0
M  V30 1867 C 175.074 3.04288 3.00987 0
M  V30 1868 C 174.4 3.0229 4.4105 0
M  V30 1869 C 175.7 4.44193 2.74754 0
M  V30 1870 H 177.394 2.68152 1.33171 0
M  V30 1871 H 174.94 1.29035 0.639214 0
M  V30 1872 H 176.893 2.04559 3.6842 0
M  V30 1873 H 175.617 0.933455 3.12976 0
M  V30 1874 H 174.276 2.8827 2.26486 0
M  V30 1875 H 173.924 2.04576 4.59519 0
M  V30 1876 H 173.624 3.79822 4.4834 0
M  V30 1877 H 175.148 3.20116 5.1996 0
M  V30 1878 H 176.562 4.60544 3.41426 0
M  V30 1879 H 174.959 5.23457 2.9345 0
M  V30 1880 H 176.029 4.53996 1.70339 0
M  V30 1881 N 177.372 -0.689602 1.41712 0
M  V30 1882 C 178.618 -1.45181 1.41599 0
M  V30 1883 C 178.951 -1.94181 0.0270081 0
M  V30 1884 O 178.226 -1.6993 -0.946265 0
M  V30 1885 C 178.509 -2.65945 2.42787 0
M  V30 1886 C 178.362 -2.22672 3.90816 0
M  V30 1887 C 179.681 -3.68149 2.41151 0
M  V30 1888 H 176.8 -0.526576 0.515642 0
M  V30 1889 H 179.442 -0.784947 1.73028 0
M  V30 1890 H 177.592 -3.2284 2.16116 0
M  V30 1891 H 179.264 -1.71058 4.28412 0
M  V30 1892 H 177.507 -1.54394 4.05395 0
M  V30 1893 H 178.178 -3.0935 4.57172 0
M  V30 1894 H 180.654 -3.2094 2.64834 0
M  V30 1895 H 179.53 -4.50248 3.13955 0
M  V30 1896 H 179.791 -4.18259 1.43221 0
M  V30 1897 N 178.85 -1.27639 -0.924453 0
M  V30 1898 C 180.078 -1.16989 -1.70649 0
M  V30 1899 C 180.493 0.272869 -1.86818 0
M  V30 1900 O 179.85 1.18549 -1.38753 0
M  V30 1901 C 179.901 -1.85229 -3.10439 0
M  V30 1902 O 179.622 -3.23868 -2.95028 0
M  V30 1903 C 181.123 -1.80746 -4.04779 0
M  V30 1904 H 178.343 -0.406595 -0.53378 0
M  V30 1905 H 180.887 -1.68569 -1.15778 0
M  V30 1906 H 179.042 -1.37545 -3.6216 0
M  V30 1907 H 179.456 -3.57889 -3.83426 0
M  V30 1908 H 180.93 -2.33101 -5.00368 0
M  V30 1909 H 181.407 -0.777499 -4.32263 0
M  V30 1910 H 182.013 -2.28059 -3.58984 0
M  V30 1911 N 180.328 1.1314 -1.09713 0
M  V30 1912 C 181.576 1.84119 -0.833338 0
M  V30 1913 C 181.897 1.84097 0.642904 0
M  V30 1914 O 181.167 1.29881 1.46655 0
M  V30 1915 H 179.747 0.681766 -0.305293 0
M  V30 1916 H 182.409 1.37038 -1.38588 0
M  V30 1917 H 181.505 2.88543 -1.18951 0
M  V30 1918 N 181.806 0.884767 1.30421 0
M  V30 1919 C 183.054 0.502112 1.95763 0
M  V30 1920 C 183.375 -0.951815 1.70192 0
M  V30 1921 O 182.645 -1.6692 1.0254 0
M  V30 1922 H 181.225 0.182694 0.724315 0
M  V30 1923 H 183.887 1.1278 1.58955 0
M  V30 1924 H 182.983 0.672188 3.04775 0
M  V30 1925 N 183.284 -1.43765 0.645699 0
M  V30 1926 C 184.194 -2.34544 -0.0512957 0
M  V30 1927 C 185.21 -1.53455 -0.82022 0
M  V30 1928 O 186.386 -1.86133 -0.769176 0
M  V30 1929 C 183.451 -3.31636 -1.01087 0
M  V30 1930 C 182.512 -4.2863 -0.239712 0
M  V30 1931 C 181.745 -5.21084 -1.15358 0
M  V30 1932 O 181.968 -5.1779 -2.39269 0
M  V30 1933 O 180.902 -5.98593 -0.630038 0
M  V30 1934 H 184.728 -2.95624 0.695718 0
M  V30 1935 H 182.313 -1.43781 0.405882 0
M  V30 1936 H 184.195 -3.9136 -1.56254 0
M  V30 1937 H 182.87 -2.73069 -1.73824 0
M  V30 1938 H 181.777 -3.72408 0.355356 0
M  V30 1939 H 183.11 -4.90157 0.447936 0
M  V30 1940 N 184.763 -0.387143 -1.52771 0
M  V30 1941 C 185.693 0.440551 -2.29306 0
M  V30 1942 C 186.674 1.06535 -1.32606 0
M  V30 1943 O 187.859 1.07853 -1.61497 0
M  V30 1944 C 184.989 1.56919 -3.09829 0
M  V30 1945 C 183.943 1.07054 -4.14395 0
M  V30 1946 C 183.269 2.29109 -4.83129 0
M  V30 1947 C 184.569 0.140015 -5.22112 0
M  V30 1948 H 186.263 -0.198026 -2.98744 0
M  V30 1949 H 183.809 -0.09668 -1.43675 0
M  V30 1950 H 185.762 2.15503 -3.62128 0
M  V30 1951 H 184.486 2.23532 -2.3812 0
M  V30 1952 H 183.145 0.507247 -3.63074 0
M  V30 1953 H 182.793 2.94227 -4.0797 0
M  V30 1954 H 182.493 1.96406 -5.53804 0
M  V30 1955 H 184.017 2.88339 -5.38231 0
M  V30 1956 H 185.431 0.633978 -5.69784 0
M  V30 1957 H 183.828 -0.0971485 -6.00021 0
M  V30 1958 H 184.898 -0.811711 -4.78058 0
M  V30 1959 N 186.241 1.57166 -0.116904 0
M  V30 1960 C 187.488 1.95123 0.541603 0
M  V30 1961 C 187.816 1.00006 1.6682 0
M  V30 1962 O 187.071 0.0235658 1.95686 0
M  V30 1963 C 187.37 3.39508 1.11664 0
M  V30 1964 C 187.036 4.50762 0.111606 0
M  V30 1965 C 185.698 4.80918 -0.164758 0
M  V30 1966 C 188.05 5.18036 -0.573438 0
M  V30 1967 C 185.378 5.75666 -1.13249 0
M  V30 1968 C 187.73 6.13824 -1.52978 0
M  V30 1969 C 186.394 6.42374 -1.81415 0
M  V30 1970 H 185.664 0.714005 0.198187 0
M  V30 1971 H 188.311 1.9048 -0.197365 0
M  V30 1972 H 186.616 3.40835 1.93232 0
M  V30 1973 H 188.313 3.66189 1.63422 0
M  V30 1974 H 184.903 4.27272 0.337192 0
M  V30 1975 H 189.087 4.94896 -0.373092 0
M  V30 1976 H 184.343 5.96092 -1.35958 0
M  V30 1977 H 188.517 6.65039 -2.06629 0
M  V30 1978 H 186.144 7.15599 -2.56557 0
M  V30 1979 N 187.719 -0.156864 1.56817 0
M  V30 1980 C 188.996 -0.899244 1.73704 0
M  V30 1981 C 189.376 -1.99771 0.682254 0
M  V30 1982 O 188.724 -2.26515 -0.300522 0
M  V30 1983 C 188.934 -1.45075 3.17418 0
M  V30 1984 C 190.282 -1.91802 3.7881 0
M  V30 1985 O 191.306 -1.54838 3.20786 0
M  V30 1986 O 190.165 -2.5994 4.80722 0
M  V30 1987 H 187.259 -0.424267 0.709878 0
M  V30 1988 H 189.805 -0.143561 1.69092 0
M  V30 1989 H 188.577 -0.660846 3.85679 0
M  V30 1990 H 188.2 -2.27021 3.26416 0
M  V30 1991 N 189.197 -1.51736 -0.425897 0
M  V30 1992 C 190.613 -1.40166 -0.76326 0
M  V30 1993 C 190.813 -0.492962 -1.95377 0
M  V30 1994 O 189.869 0.0475815 -2.52455 0
M  V30 1995 C 191.182 -2.82403 -1.03291 0
M  V30 1996 C 192.73 -2.91632 -1.13665 0
M  V30 1997 C 193.205 -4.34801 -1.43916 0
M  V30 1998 N 194.696 -4.3796 -1.50816 0
M  V30 1999 C 195.431 -5.4578 -1.75817 0
M  V30 2000 N 194.927 -6.63744 -1.98534 0
M  V30 2001 N 196.72 -5.33274 -1.77694 0
M  V30 2002 H 188.871 -2.09361 0.358 0
M  V30 2003 H 191.134 -0.942941 0.0978094 0
M  V30 2004 H 190.84 -3.50943 -0.230696 0
M  V30 2005 H 190.714 -3.22428 -1.95754 0
M  V30 2006 H 193.101 -2.23284 -1.92947 0
M  V30 2007 H 193.182 -2.55088 -0.190756 0
M  V30 2008 H 192.826 -5.03703 -0.65157 0
M  V30 2009 H 192.756 -4.68868 -2.39729 0
M  V30 2010 H 195.247 -3.52919 -1.35118 0
M  V30 2011 H 195.56 -7.41704 -2.17013 0
M  V30 2012 H 193.905 -6.66839 -1.95832 0
M  V30 2013 H 197.096 -4.40098 -1.59473 0
M  V30 2014 H 197.269 -6.1738 -1.9684 0
M  V30 2015 N 190.675 0.682077 -1.42076 0
M  V30 2016 C 191.924 1.43786 -1.41451 0
M  V30 2017 C 192.237 1.95574 -0.0317074 0
M  V30 2018 O 193.443 2.71326 0.0971462 0
M  V30 2019 C 191.899 2.60071 -2.48779 0
M  V30 2020 C 191.507 2.15013 -3.93031 0
M  V30 2021 C 193.251 3.37626 -2.57311 0
M  V30 2022 C 191.158 3.28336 -4.91883 0
M  V30 2023 H 190.088 0.540143 -0.526082 0
M  V30 2024 H 192.739 0.739157 -1.67955 0
M  V30 2025 H 191.121 3.32275 -2.15429 0
M  V30 2026 H 192.295 1.5001 -4.35699 0
M  V30 2027 H 190.61 1.50416 -3.88284 0
M  V30 2028 H 193.207 4.22012 -3.28345 0
M  V30 2029 H 193.55 3.83727 -1.61429 0
M  V30 2030 H 194.083 2.72488 -2.89819 0
M  V30 2031 H 190.822 2.87234 -5.89217 0
M  V30 2032 H 190.342 3.92145 -4.53853 0
M  V30 2033 H 192.021 3.93913 -5.13265 0
M  V30 2034 N 192.153 1.28127 0.917671 0
M  V30 2035 C 193.399 1.15223 1.66888 0
M  V30 2036 C 193.732 -0.299293 1.9188 0
M  V30 2037 O 193.007 -1.21805 1.51637 0
M  V30 2038 C 193.29 1.94706 3.02922 0
M  V30 2039 C 193.143 3.47898 2.85109 0
M  V30 2040 C 194.462 1.75939 4.03402 0
M  V30 2041 H 191.581 0.419946 0.605652 0
M  V30 2042 H 194.223 1.57398 1.06423 0
M  V30 2043 H 192.373 1.58864 3.54534 0
M  V30 2044 H 194.045 3.93624 2.40537 0
M  V30 2045 H 192.288 3.7373 2.20246 0
M  V30 2046 H 192.959 3.98765 3.81694 0
M  V30 2047 H 195.435 2.07209 3.60837 0
M  V30 2048 H 194.311 2.33931 4.96556 0
M  V30 2049 H 194.572 0.709877 4.36364 0
M  V30 2050 N 193.631 -1.12557 1.10312 0
M  V30 2051 C 194.541 -2.21841 0.763142 0
M  V30 2052 C 195.557 -1.72354 -0.238801 0
M  V30 2053 O 196.733 -2.01249 -0.0778746 0
M  V30 2054 C 193.798 -3.46131 0.198632 0
M  V30 2055 C 192.859 -4.10464 1.25769 0
M  V30 2056 C 192.092 -5.28821 0.72002 0
M  V30 2057 O 192.315 -5.6859 -0.453993 0
M  V30 2058 O 191.249 -5.83437 1.47935 0
M  V30 2059 H 195.075 -2.53312 1.67532 0
M  V30 2060 H 192.66 -1.20867 0.878157 0
M  V30 2061 H 194.542 -4.2125 -0.112401 0
M  V30 2062 H 193.217 -3.16338 -0.686419 0
M  V30 2063 H 192.124 -3.3713 1.62156 0
M  V30 2064 H 193.457 -4.44408 2.11571 0
M  V30 2065 N 195.109 -0.891671 -1.2995 0
M  V30 2066 C 196.056 -0.361736 -2.27948 0
M  V30 2067 C 197.026 0.551761 -1.56668 0
M  V30 2068 O 198.211 0.478736 -1.84696 0
M  V30 2069 C 195.351 0.411825 -3.42634 0
M  V30 2070 C 194.464 -0.531651 -4.28716 0
M  V30 2071 C 193.599 0.258167 -5.30572 0
M  V30 2072 C 192.638 -0.680349 -6.08307 0
M  V30 2073 N 191.775 0.0745613 -7.0206 0
M  V30 2074 H 196.615 -1.20254 -2.72659 0
M  V30 2075 H 194.152 -0.604352 -1.34112 0
M  V30 2076 H 196.11 0.876304 -4.07893 0
M  V30 2077 H 194.74 1.21715 -2.98974 0
M  V30 2078 H 193.792 -1.11463 -3.63703 0
M  V30 2079 H 195.104 -1.25038 -4.82874 0
M  V30 2080 H 194.258 0.784204 -6.0161 0
M  V30 2081 H 192.997 1.01008 -4.77126 0
M  V30 2082 H 192.002 -1.21796 -5.3614 0
M  V30 2083 H 193.227 -1.43145 -6.63842 0
M  V30 2084 H 191.173 0.808883 -6.50994 0
M  V30 2085 H 191.09 -0.584409 -7.53738 0
M  V30 2086 H 192.358 0.581123 -7.77331 0
M  V30 2087 N 196.587 1.43421 -0.653314 0
M  V30 2088 C 197.835 2.01414 -0.166415 0
M  V30 2089 C 198.156 1.51803 1.22397 0
M  V30 2090 O 197.426 0.730693 1.81763 0
M  V30 2091 H 196.006 0.744703 -0.0585319 0
M  V30 2092 H 198.668 1.75629 -0.845003 0
M  V30 2093 H 197.764 3.11734 -0.151111 0
M  V30 2094 N 198.065 0.39524 1.52563 0
M  V30 2095 C 199.295 -0.184675 2.05773 0
M  V30 2096 C 199.703 -1.40571 1.26635 0
M  V30 2097 O 199.046 -1.81105 0.30769 0
M  V30 2098 C 199.108 -0.613551 3.54226 0
M  V30 2099 C 198.772 0.49484 4.54313 0
M  V30 2100 C 199.769 1.3541 5.01956 0
M  V30 2101 C 197.454 0.663565 4.97898 0
M  V30 2102 C 199.448 2.36716 5.91814 0
M  V30 2103 C 197.135 1.67996 5.87555 0
M  V30 2104 C 198.133 2.53017 6.34406 0
M  V30 2105 O 197.821 3.52917 7.22291 0
M  V30 2106 H 197.553 -0.030077 0.675331 0
M  V30 2107 H 200.107 0.560708 1.97599 0
M  V30 2108 H 198.337 -1.411 3.60038 0
M  V30 2109 H 200.026 -1.11981 3.90148 0
M  V30 2110 H 200.792 1.23509 4.6901 0
M  V30 2111 H 196.671 0.0114913 4.60999 0
M  V30 2112 H 200.215 3.03113 6.28306 0
M  V30 2113 H 196.112 1.79933 6.19915 0
M  V30 2114 H 196.88 3.48996 7.40367 0
M  V30 2115 N 199.544 -1.57102 0.125237 0
M  V30 2116 C 200.774 -1.99472 -0.538015 0
M  V30 2117 C 201.182 -1.00395 -1.60366 0
M  V30 2118 O 200.525 0.0103875 -1.83697 0
M  V30 2119 C 200.587 -3.38262 -1.21734 0
M  V30 2120 C 200.251 -4.56021 -0.298897 0
M  V30 2121 C 201.248 -5.17817 0.464943 0
M  V30 2122 C 198.933 -5.01869 -0.208149 0
M  V30 2123 C 200.927 -6.23852 1.3072 0
M  V30 2124 C 198.614 -6.07763 0.637736 0
M  V30 2125 C 199.612 -6.68622 1.39403 0
M  V30 2126 O 199.3 -7.7247 2.22586 0
M  V30 2127 H 199.032 -0.659934 -0.146501 0
M  V30 2128 H 201.586 -2.04321 0.210267 0
M  V30 2129 H 199.816 -3.30185 -2.01282 0
M  V30 2130 H 201.505 -3.6488 -1.77813 0
M  V30 2131 H 202.271 -4.83308 0.404741 0
M  V30 2132 H 198.15 -4.54241 -0.786522 0
M  V30 2133 H 201.694 -6.71284 1.898 0
M  V30 2134 H 197.591 -6.41701 0.699309 0
M  V30 2135 H 198.359 -7.89595 2.15596 0
M  V30 2136 N 201.022 0.148545 -1.56898 0
M  V30 2137 C 202.247 0.880385 -1.87787 0
M  V30 2138 C 202.672 1.74018 -0.714093 0
M  V30 2139 O 202.03 1.78153 0.336343 0
M  V30 2140 C 202.078 1.71422 -3.17249 0
M  V30 2141 O 201.182 2.8183 -3.01074 0
M  V30 2142 H 200.523 0.245301 -0.617028 0
M  V30 2143 H 203.053 0.139826 -2.04122 0
M  V30 2144 H 203.063 2.10954 -3.49231 0
M  V30 2145 H 201.738 1.08284 -4.01556 0
M  V30 2146 H 200.315 2.45715 -2.80497 0
M  V30 2147 N 202.5 1.5196 0.417844 0
M  V30 2148 C 203.41 1.77554 1.53336 0
M  V30 2149 C 204.426 0.660655 1.6097 0
M  V30 2150 O 205.602 0.945099 1.77848 0
M  V30 2151 C 202.667 1.91291 2.89152 0
M  V30 2152 C 201.728 3.15183 2.91475 0
M  V30 2153 C 200.961 3.28256 4.20813 0
M  V30 2154 O 201.184 2.46798 5.14244 0
M  V30 2155 O 200.118 4.21356 4.29817 0
M  V30 2156 H 203.944 2.7222 1.34647 0
M  V30 2157 H 201.529 1.36698 0.602828 0
M  V30 2158 H 203.411 2.02199 3.69721 0
M  V30 2159 H 202.086 0.998129 3.07927 0
M  V30 2160 H 200.993 3.09739 2.09791 0
M  V30 2161 H 202.326 4.06414 2.77648 0
M  V30 2162 N 203.978 -0.674533 1.42435 0
M  V30 2163 C 205.394 -0.98769 1.25367 0
M  V30 2164 C 205.594 -2.00879 0.158044 0
M  V30 2165 O 204.65 -2.48075 -0.470633 0
M  V30 2166 C 205.963 -1.49224 2.6106 0
M  V30 2167 C 207.511 -1.61 2.68417 0
M  V30 2168 C 207.986 -2.14852 4.04478 0
M  V30 2169 N 209.477 -2.22185 4.06434 0
M  V30 2170 C 210.212 -2.64928 5.08528 0
M  V30 2171 N 209.708 -3.07121 6.21006 0
M  V30 2172 N 211.501 -2.64679 4.95885 0
M  V30 2173 H 203.652 0.00152503 2.124 0
M  V30 2174 H 205.915 -0.0618434 0.945981 0
M  V30 2175 H 205.621 -0.816453 3.42092 0
M  V30 2176 H 205.495 -2.47094 2.84999 0
M  V30 2177 H 207.882 -2.27686 1.87732 0
M  V30 2178 H 207.963 -0.616195 2.48267 0
M  V30 2179 H 207.607 -1.48775 4.85622 0
M  V30 2180 H 207.537 -3.15024 4.2198 0
M  V30 2181 H 210.028 -1.92435 3.25234 0
M  V30 2182 H 210.341 -3.38423 6.94759 0
M  V30 2183 H 208.686 -3.04978 6.24511 0
M  V30 2184 H 211.877 -2.31078 4.07088 0
M  V30 2185 H 212.05 -2.9767 5.75584 0
M  V30 2186 N 205.456 -1.28612 -0.910864 0
M  V30 2187 C 206.733 -1.06632 -1.63979 0
M  V30 2188 C 207.113 0.393351 -2.07403 0
M  V30 2189 O 206.461 1.37999 -1.82122 0
M  V30 2190 C 206.671 -2.0436 -2.8291 0
M  V30 2191 C 208.019 -2.34666 -3.5386 0
M  V30 2192 O 209.043 -2.02467 -2.93062 0
M  V30 2193 O 207.902 -2.89631 -4.63439 0
M  V30 2194 H 204.996 -0.407737 -0.7195 0
M  V30 2195 H 207.542 -1.39942 -0.959914 0
M  V30 2196 H 206.314 -3.02727 -2.47936 0
M  V30 2197 H 205.937 -1.71714 -3.58609 0
M  V30 2198 N 206.934 1.1197 -1.10907 0
M  V30 2199 C 207.897 2.16031 -0.765707 0
M  V30 2200 C 208.897 1.59393 0.212235 0
M  V30 2201 O 210.087 1.74196 -0.0115441 0
M  V30 2202 C 207.219 3.40632 -0.135053 0
M  V30 2203 H 208.412 2.47919 -1.68748 0
M  V30 2204 H 205.965 1.27061 -0.910226 0
M  V30 2205 H 206.7 3.14348 0.797218 0
M  V30 2206 H 206.485 3.8302 -0.838937 0
M  V30 2207 H 207.975 4.17505 0.0892469 0
M  V30 2208 N 208.412 0.89855 1.29475 0
M  V30 2209 C 209.375 0.380272 2.26023 0
M  V30 2210 C 210.375 -0.484891 1.53315 0
M  V30 2211 O 211.565 -0.290108 1.71767 0
M  V30 2212 C 208.697 -0.45651 3.3783 0
M  V30 2213 H 209.89 1.23295 2.73383 0
M  V30 2214 H 207.443 0.676589 1.40897 0
M  V30 2215 H 208.178 -1.32922 2.95808 0
M  V30 2216 H 207.963 0.163393 3.91759 0
M  V30 2217 H 209.453 -0.810466 4.0966 0
M  V30 2218 N 209.89 -1.43072 0.660911 0
M  V30 2219 C 211.167 -1.95307 0.107017 0
M  V30 2220 C 211.547 -1.60192 -1.37484 0
M  V30 2221 O 210.895 -0.890949 -2.10415 0
M  V30 2222 C 211.105 -3.47124 0.361402 0
M  V30 2223 C 212.453 -4.23738 0.270455 0
M  V30 2224 O 213.477 -3.54981 0.294382 0
M  V30 2225 O 212.336 -5.46131 0.200737 0
M  V30 2226 H 209.43 -0.826984 -0.00517729 0
M  V30 2227 H 211.976 -1.52972 0.734681 0
M  V30 2228 H 210.748 -3.65837 1.38848 0
M  V30 2229 H 210.371 -3.96475 -0.298953 0
M  V30 2230 N 211.368 -0.403325 -1.52352 0
M  V30 2231 C 212.331 0.413051 -2.25447 0
M  V30 2232 C 213.331 0.978513 -1.276 0
M  V30 2233 O 214.521 0.858305 -1.51587 0
M  V30 2234 C 211.653 1.58087 -3.02029 0
M  V30 2235 H 212.846 -0.227094 -2.99039 0
M  V30 2236 H 210.399 -0.155722 -1.55522 0
M  V30 2237 H 211.134 2.25804 -2.32772 0
M  V30 2238 H 210.919 1.18195 -3.73861 0
M  V30 2239 H 212.409 2.1585 -3.57489 0
M  V30 2240 N 212.846 1.57033 -0.133567 0
M  V30 2241 C 214.092 1.95976 0.521649 0
M  V30 2242 C 214.425 1.01779 1.65393 0
M  V30 2243 O 213.7 0.0576581 1.94415 0
M  V30 2244 C 213.983 3.44738 1.04057 0
M  V30 2245 C 213.836 4.49711 -0.0892897 0
M  V30 2246 C 215.155 3.95682 1.92675 0
M  V30 2247 H 212.274 0.712579 0.188149 0
M  V30 2248 H 214.916 1.88813 -0.212076 0
M  V30 2249 H 213.066 3.50973 1.66583 0
M  V30 2250 H 214.738 4.55565 -0.725152 0
M  V30 2251 H 212.981 4.27261 -0.750378 0
M  V30 2252 H 213.652 5.51099 0.315284 0
M  V30 2253 H 216.128 3.91841 1.39998 0
M  V30 2254 H 215.004 5.00262 2.25897 0
M  V30 2255 H 215.265 3.37239 2.85872 0
M  V30 2256 N 214.325 -0.140222 1.56975 0
M  V30 2257 C 215.272 -1.17292 1.98774 0
M  V30 2258 C 216.242 -1.4232 0.856408 0
M  V30 2259 O 217.427 -1.54541 1.119 0
M  V30 2260 C 214.567 -2.49973 2.37923 0
M  V30 2261 C 213.68 -2.32062 3.64378 0
M  V30 2262 C 212.815 -3.57825 3.926 0
M  V30 2263 C 211.854 -3.3498 5.12303 0
M  V30 2264 N 210.991 -4.52891 5.36502 0
M  V30 2265 H 215.831 -0.809472 2.86795 0
M  V30 2266 H 213.368 -0.388237 1.41884 0
M  V30 2267 H 215.326 -3.27346 2.58652 0
M  V30 2268 H 213.956 -2.84252 1.52972 0
M  V30 2269 H 213.008 -1.45711 3.51387 0
M  V30 2270 H 214.32 -2.11145 4.51906 0
M  V30 2271 H 213.474 -4.43624 4.13863 0
M  V30 2272 H 212.213 -3.81753 3.03506 0
M  V30 2273 H 211.218 -2.4757 4.90906 0
M  V30 2274 H 212.443 -3.12444 6.02956 0
M  V30 2275 H 210.389 -4.76979 4.50363 0
M  V30 2276 H 210.306 -4.35001 6.18312 0
M  V30 2277 H 211.574 -5.39884 5.62268 0
M  V30 2278 N 215.803 -1.52179 -0.40978 0
M  V30 2279 C 216.735 -1.71703 -1.51825 0
M  V30 2280 C 217.748 -0.597445 -1.51441 0
M  V30 2281 O 218.937 -0.872582 -1.55719 0
M  V30 2282 C 216.037 -1.74171 -2.90719 0
M  V30 2283 C 215.21 -3.03156 -3.15302 0
M  V30 2284 C 214.269 -2.97445 -4.34065 0
M  V30 2285 O 213.295 -3.71352 -4.31377 0
M  V30 2286 N 214.497 -2.15191 -5.39141 0
M  V30 2287 H 217.262 -2.67334 -1.35472 0
M  V30 2288 H 214.823 -1.50409 -0.599069 0
M  V30 2289 H 216.815 -1.67884 -3.68235 0
M  V30 2290 H 215.385 -0.860166 -3.00533 0
M  V30 2291 H 214.605 -3.23097 -2.25836 0
M  V30 2292 H 215.893 -3.88484 -3.28569 0
M  V30 2293 H 215.291 -1.54573 -5.44173 0
M  V30 2294 H 213.848 -2.1476 -6.15403 0
M  V30 2295 N 217.281 0.66697 -1.42791 0
M  V30 2296 C 218.53 1.42278 -1.42968 0
M  V30 2297 C 218.843 1.9553 -0.0524489 0
M  V30 2298 O 220.049 2.71414 0.068363 0
M  V30 2299 C 218.505 2.57418 -2.51524 0
M  V30 2300 C 218.113 2.10832 -3.9529 0
M  V30 2301 C 219.857 3.34878 -2.60877 0
M  V30 2302 C 217.764 3.23101 -4.95338 0
M  V30 2303 H 216.694 0.534533 -0.531781 0
M  V30 2304 H 219.345 0.721302 -1.68729 0
M  V30 2305 H 217.727 3.29971 -2.18941 0
M  V30 2306 H 218.901 1.4538 -4.37266 0
M  V30 2307 H 217.216 1.46289 -3.89857 0
M  V30 2308 H 219.813 4.18505 -3.32802 0
M  V30 2309 H 220.156 3.81993 -1.6549 0
M  V30 2310 H 220.689 2.69398 -2.92693 0
M  V30 2311 H 217.428 2.80969 -5.9223 0
M  V30 2312 H 216.948 3.87309 -4.57987 0
M  V30 2313 H 218.627 3.88447 -5.17415 0
M  V30 2314 N 218.759 1.29093 0.90403 0
M  V30 2315 C 219.689 1.16401 2.02418 0
M  V30 2316 C 220.67 0.0593085 1.69997 0
M  V30 2317 O 221.855 0.238021 1.92736 0
M  V30 2318 C 218.985 0.835233 3.37107 0
M  V30 2319 C 217.939 1.89578 3.83724 0
M  V30 2320 C 217.265 1.42041 5.15489 0
M  V30 2321 C 218.565 3.30394 4.04521 0
M  V30 2322 H 220.259 2.10109 2.13295 0
M  V30 2323 H 217.805 1.01157 1.02486 0
M  V30 2324 H 219.758 0.733169 4.14973 0
M  V30 2325 H 218.482 -0.137543 3.2631 0
M  V30 2326 H 217.141 1.98715 3.08071 0
M  V30 2327 H 216.789 0.436426 5.01103 0
M  V30 2328 H 216.489 2.12964 5.4765 0
M  V30 2329 H 218.013 1.33176 5.959 0
M  V30 2330 H 219.427 3.24123 4.72882 0
M  V30 2331 H 217.824 3.99237 4.48029 0
M  V30 2332 H 218.894 3.73692 3.09002 0
M  V30 2333 N 220.237 -1.11381 1.11499 0
M  V30 2334 C 221.147 -2.21019 0.786628 0
M  V30 2335 C 222.163 -1.72597 -0.220507 0
M  V30 2336 O 223.339 -2.01321 -0.0565251 0
M  V30 2337 C 220.404 -3.459 0.235333 0
M  V30 2338 C 219.465 -4.09107 1.30115 0
M  V30 2339 C 218.698 -5.28027 0.776068 0
M  V30 2340 O 218.921 -5.6904 -0.393661 0
M  V30 2341 O 217.855 -5.81835 1.54114 0
M  V30 2342 H 221.681 -2.51521 1.70209 0
M  V30 2343 H 219.266 -1.19928 0.890928 0
M  V30 2344 H 221.148 -4.21346 -0.067715 0
M  V30 2345 H 219.823 -3.17049 -0.652828 0
M  V30 2346 H 218.73 -3.35391 1.65722 0
M  V30 2347 H 220.063 -4.42139 2.16273 0
M  V30 2348 N 221.715 -0.905404 -1.28997 0
M  V30 2349 C 222.678 -0.392253 -2.25819 0
M  V30 2350 C 223.678 0.476753 -1.5357 0
M  V30 2351 O 224.868 0.280994 -1.71919 0
M  V30 2352 C 222 0.438588 -3.38067 0
M  V30 2353 H 223.193 -1.24743 -2.72725 0
M  V30 2354 H 220.746 -0.684051 -1.40536 0
M  V30 2355 H 221.481 1.31352 -2.96508 0
M  V30 2356 H 221.266 -0.184167 -3.91667 0
M  V30 2357 H 222.756 0.78873 -4.10084 0
M  V30 2358 N 223.193 1.4272 -0.668489 0
M  V30 2359 C 224.439 2.01923 -0.188419 0
M  V30 2360 C 224.772 1.52704 1.19979 0
M  V30 2361 O 224.047 0.726566 1.8042 0
M  V30 2362 C 224.33 3.59451 -0.216085 0
M  V30 2363 C 224.183 4.18864 -1.6393 0
M  V30 2364 C 225.502 4.37903 0.439179 0
M  V30 2365 H 222.621 0.733674 -0.0699412 0
M  V30 2366 H 225.263 1.69822 -0.852076 0
M  V30 2367 H 223.413 3.86929 0.349012 0
M  V30 2368 H 225.085 4.02362 -2.25616 0
M  V30 2369 H 223.328 3.74933 -2.18193 0
M  V30 2370 H 223.999 5.27987 -1.61039 0
M  V30 2371 H 226.475 4.16079 -0.0417878 0
M  V30 2372 H 225.351 5.47519 0.389157 0
M  V30 2373 H 225.612 4.15303 1.51577 0
M  V30 2374 N 224.671 0.411399 1.52136 0
M  V30 2375 C 225.634 -0.401089 2.25663 0
M  V30 2376 C 226.634 -0.971732 1.28117 0
M  V30 2377 O 227.824 -0.850254 1.52041 0
M  V30 2378 C 224.956 -1.56483 3.02863 0
M  V30 2379 H 226.149 0.24295 2.98914 0
M  V30 2380 H 223.702 0.163968 1.55438 0
M  V30 2381 H 224.437 -2.24567 2.33967 0
M  V30 2382 H 224.222 -1.16211 3.74483 0
M  V30 2383 H 225.712 -2.13951 3.58629 0
M  V30 2384 N 226.149 -1.5696 0.141893 0
M  V30 2385 C 227.379 -2.00031 -0.516828 0
M  V30 2386 C 227.787 -1.02091 -1.59293 0
M  V30 2387 O 227.13 -0.00909657 -1.83698 0
M  V30 2388 C 227.192 -3.39534 -1.1814 0
M  V30 2389 C 226.856 -4.56313 -0.250513 0
M  V30 2390 C 227.853 -5.17295 0.519839 0
M  V30 2391 C 225.538 -5.02061 -0.154907 0
M  V30 2392 C 227.532 -6.2243 1.3733 0
M  V30 2393 C 225.219 -6.07053 0.702161 0
M  V30 2394 C 226.217 -6.67106 1.46487 0
M  V30 2395 O 225.905 -7.70066 2.30767 0
M  V30 2396 H 225.637 -0.661451 -0.139493 0
M  V30 2397 H 228.191 -2.04086 0.231926 0
M  V30 2398 H 226.421 -3.32302 -1.97769 0
M  V30 2399 H 228.11 -3.66745 -1.73933 0
M  V30 2400 H 228.876 -4.82852 0.45598 0
M  V30 2401 H 224.755 -4.5505 -0.7383 0
M  V30 2402 H 228.299 -6.69233 1.96909 0
M  V30 2403 H 224.196 -6.40923 0.76733 0
M  V30 2404 H 224.964 -7.87264 2.23959 0
M  V30 2405 N 227.627 0.131896 -1.57047 0
M  V30 2406 C 228.557 1.16384 -2.02428 0
M  V30 2407 C 229.538 1.43936 -0.90644 0
M  V30 2408 O 230.723 1.54599 -1.17528 0
M  V30 2409 C 227.853 2.49328 -2.4177 0
M  V30 2410 C 226.807 2.36266 -3.56879 0
M  V30 2411 C 226.133 3.74057 -3.8208 0
M  V30 2412 C 227.433 1.834 -4.89042 0
M  V30 2413 H 229.127 0.786433 -2.88887 0
M  V30 2414 H 226.673 0.376855 -1.38981 0
M  V30 2415 H 228.626 3.21759 -2.7212 0
M  V30 2416 H 227.35 2.88934 -1.52266 0
M  V30 2417 H 226.009 1.66286 -3.26718 0
M  V30 2418 H 225.657 4.11125 -2.89803 0
M  V30 2419 H 225.357 3.66174 -4.59554 0
M  V30 2420 H 226.881 4.48012 -4.1487 0
M  V30 2421 H 228.295 2.45636 -5.18011 0
M  V30 2422 H 226.692 1.8637 -5.70426 0
M  V30 2423 H 227.762 0.790662 -4.7841 0
M  V30 2424 N 229.106 1.52395 0.401703 0
M  V30 2425 C 230.056 1.72649 1.48917 0
M  V30 2426 C 231.04 0.580436 1.50066 0
M  V30 2427 O 232.232 0.83779 1.55917 0
M  V30 2428 C 229.361 1.88729 2.86769 0
M  V30 2429 C 228.447 3.09228 2.90239 0
M  V30 2430 N 228.838 4.31805 2.63396 0
M  V30 2431 C 227.136 3.09214 3.21408 0
M  V30 2432 C 227.837 5.13326 2.73625 0
M  V30 2433 N 226.813 4.48735 3.06819 0
M  V30 2434 H 230.615 2.65058 1.26971 0
M  V30 2435 H 228.129 1.50528 0.609504 0
M  V30 2436 H 230.126 2.01358 3.65049 0
M  V30 2437 H 228.786 0.975252 3.09708 0
M  V30 2438 H 229.797 4.60154 2.37653 0
M  V30 2439 H 226.474 2.27774 3.49893 0
M  V30 2440 H 227.864 6.21003 2.56524 0
M  V30 2441 N 230.584 -0.659388 1.43143 0
M  V30 2442 C 231.494 -1.80167 1.50256 0
M  V30 2443 C 232.51 -1.69571 0.390106 0
M  V30 2444 O 233.686 -1.90849 0.643319 0
M  V30 2445 C 230.751 -3.16409 1.41725 0
M  V30 2446 C 229.812 -3.38848 2.63591 0
M  V30 2447 C 229.045 -4.68591 2.55458 0
M  V30 2448 O 229.268 -5.47532 1.59891 0
M  V30 2449 O 228.202 -4.92614 3.45854 0
M  V30 2450 H 232.028 -1.77121 2.46702 0
M  V30 2451 H 229.613 -0.817092 1.25076 0
M  V30 2452 H 231.495 -3.9768 1.39387 0
M  V30 2453 H 230.17 -3.20059 0.484118 0
M  V30 2454 H 229.077 -2.57366 2.71502 0
M  V30 2455 H 230.41 -3.4004 3.55856 0
M  V30 2456 N 232.062 -1.29571 -0.897171 0
M  V30 2457 C 233.01 -1.14802 -2.02295 0
M  V30 2458 C 234.004 -0.0629637 -1.69283 0
M  V30 2459 O 235.21 -0.222945 -1.78614 0
M  V30 2460 H 231.585 -0.354692 -0.663097 0
M  V30 2461 H 233.556 -2.10108 -2.11889 0
M  V30 2462 C 232.305 -0.843966 -3.37302 0
M  V30 2463 H 231.628 -1.67093 -3.63208 0
M  V30 2464 H 233.068 -0.780672 -4.16751 0
M  V30 2465 C 231.527 0.452843 -3.33843 0
M  V30 2466 O 232.057 1.47813 -3.73516 0
M  V30 2467 N 230.263 0.459601 -2.86943 0
M  V30 2468 H 229.81 -0.375213 -2.54853 0
M  V30 2469 H 229.768 1.32726 -2.85011 0
M  V30 2470 N 233.54 1.10788 -1.12088 0
M  V30 2471 C 234.788 1.8231 -0.872205 0
M  V30 2472 C 235.109 1.85419 0.603709 0
M  V30 2473 O 234.379 1.32963 1.43867 0
M  V30 2474 H 232.959 0.675137 -0.319686 0
M  V30 2475 H 235.621 1.34068 -1.41463 0
M  V30 2476 H 234.717 2.85955 -1.25045 0
M  V30 2477 N 235.018 0.912232 1.28515 0
M  V30 2478 C 236.267 0.540504 1.94323 0
M  V30 2479 C 236.58 -0.920044 1.72611 0
M  V30 2480 O 237.786 -1.39986 2.32629 0
M  V30 2481 C 236.242 0.915803 3.48053 0
M  V30 2482 C 235.85 2.39598 3.78546 0
M  V30 2483 C 237.594 0.614588 4.20027 0
M  V30 2484 C 235.501 2.71148 5.25578 0
M  V30 2485 H 234.431 0.198418 0.727424 0
M  V30 2486 H 237.082 1.11094 1.46049 0
M  V30 2487 H 235.464 0.274168 3.9505 0
M  V30 2488 H 236.638 3.08422 3.42364 0
M  V30 2489 H 234.953 2.66749 3.1974 0
M  V30 2490 H 237.55 0.827002 5.28266 0
M  V30 2491 H 237.893 -0.447531 4.13887 0
M  V30 2492 H 238.426 1.21462 3.78803 0
M  V30 2493 H 235.165 3.76207 5.36794 0
M  V30 2494 H 234.685 2.0696 5.62963 0
M  V30 2495 H 236.364 2.58072 5.93302 0
M  V30 2496 N 236.496 -1.42363 0.676048 0
M  V30 2497 C 237.742 -2.0182 0.199125 0
M  V30 2498 C 238.075 -1.53339 -1.19168 0
M  V30 2499 O 237.35 -0.736124 -1.80032 0
M  V30 2500 C 237.633 -3.59331 0.235144 0
M  V30 2501 C 237.486 -4.17989 1.66149 0
M  V30 2502 C 238.805 -4.3813 -0.41595 0
M  V30 2503 H 235.924 -0.733293 0.0738311 0
M  V30 2504 H 238.566 -1.69368 0.86107 0
M  V30 2505 H 236.716 -3.87109 -0.328487 0
M  V30 2506 H 238.388 -4.0116 2.27747 0
M  V30 2507 H 236.631 -3.7377 2.20178 0
M  V30 2508 H 237.302 -5.27126 1.63837 0
M  V30 2509 H 239.778 -4.16051 0.0638529 0
M  V30 2510 H 238.654 -5.47717 -0.360115 0
M  V30 2511 H 238.915 -4.16101 -1.49373 0
M  V30 2512 N 237.974 -0.419461 -1.51915 0
M  V30 2513 C 238.924 0.418496 -2.24126 0
M  V30 2514 C 239.908 1.00495 -1.25656 0
M  V30 2515 O 241.1 0.926058 -1.50842 0
M  V30 2516 C 238.229 1.52899 -3.07371 0
M  V30 2517 C 237.315 0.952797 -4.13258 0
M  V30 2518 N 237.706 0.104175 -5.05693 0
M  V30 2519 C 236.004 1.22224 -4.28926 0
M  V30 2520 C 236.705 -0.21752 -5.81293 0
M  V30 2521 N 235.681 0.394293 -5.42168 0
M  V30 2522 H 239.483 -0.236048 -2.92951 0
M  V30 2523 H 236.997 -0.230481 -1.60756 0
M  V30 2524 H 238.994 2.14199 -3.57665 0
M  V30 2525 H 237.654 2.18605 -2.40088 0
M  V30 2526 H 238.665 -0.260924 -5.17242 0
M  V30 2527 H 235.342 1.87812 -3.72871 0
M  V30 2528 H 236.732 -0.906992 -6.6575 0
M  V30 2529 N 239.452 1.56882 -0.150215 0
M  V30 2530 C 240.868 1.58263 0.20617 0
M  V30 2531 C 241.068 1.16464 1.64434 0
M  V30 2532 O 240.124 0.866422 2.3717 0
M  V30 2533 C 241.437 3.00649 -0.0555025 0
M  V30 2534 C 242.985 3.12999 0.00795388 0
M  V30 2535 C 243.46 4.5744 -0.226429 0
M  V30 2536 N 244.951 4.62875 -0.173469 0
M  V30 2537 C 245.686 5.72454 -0.329288 0
M  V30 2538 N 245.182 6.90669 -0.543005 0
M  V30 2539 N 246.975 5.61467 -0.266666 0
M  V30 2540 H 239.126 1.82345 -1.08922 0
M  V30 2541 H 241.389 0.844149 -0.431413 0
M  V30 2542 H 241.095 3.3563 -1.05096 0
M  V30 2543 H 240.969 3.71337 0.66246 0
M  V30 2544 H 243.356 2.77857 0.993966 0
M  V30 2545 H 243.437 2.4479 -0.742388 0
M  V30 2546 H 243.081 4.93287 -1.20956 0
M  V30 2547 H 243.011 5.2378 0.544274 0
M  V30 2548 H 245.502 3.77898 -0.0130709 0
M  V30 2549 H 245.815 7.70045 -0.651922 0
M  V30 2550 H 244.16 6.92581 -0.579366 0
M  V30 2551 H 247.351 4.67992 -0.100441 0
M  V30 2552 H 247.524 6.46816 -0.391535 0
M  V30 2553 N 240.93 -0.123565 1.57115 0
M  V30 2554 C 242.207 -0.862196 1.75572 0
M  V30 2555 C 242.587 -1.98279 0.724475 0
M  V30 2556 O 241.935 -2.27102 -0.252407 0
M  V30 2557 C 242.145 -1.38309 3.20424 0
M  V30 2558 C 243.493 -1.83724 3.82793 0
M  V30 2559 O 244.517 -1.47999 3.23998 0
M  V30 2560 O 243.376 -2.49685 4.86127 0
M  V30 2561 H 240.47 -0.409113 0.718718 0
M  V30 2562 H 243.016 -0.107661 1.69358 0
M  V30 2563 H 241.788 -0.578889 3.86994 0
M  V30 2564 H 241.411 -2.20046 3.31158 0
M  V30 2565 N 242.408 -1.52605 -0.393616 0
M  V30 2566 C 243.338 -1.80022 -1.48709 0
M  V30 2567 C 244.319 -0.651995 -1.57108 0
M  V30 2568 O 245.504 -0.89913 -1.72132 0
M  V30 2569 C 242.634 -1.96492 -2.86371 0
M  V30 2570 C 241.588 -3.12161 -2.92813 0
M  V30 2571 C 240.914 -3.13877 -4.3288 0
M  V30 2572 C 242.214 -4.51322 -2.6288 0
M  V30 2573 H 243.908 -2.71589 -1.26015 0
M  V30 2574 H 241.454 -1.30684 -0.604778 0
M  V30 2575 H 243.407 -2.14255 -3.62867 0
M  V30 2576 H 242.131 -1.01611 -3.10391 0
M  V30 2577 H 240.79 -2.94173 -2.18764 0
M  V30 2578 H 240.438 -2.16687 -4.53933 0
M  V30 2579 H 240.138 -3.91576 -4.38112 0
M  V30 2580 H 241.662 -3.33789 -5.1129 0
M  V30 2581 H 243.076 -4.69435 -3.29096 0
M  V30 2582 H 241.473 -5.31053 -2.79468 0
M  V30 2583 H 242.543 -4.58353 -1.58242 0
M  V30 2584 N 243.887 0.651787 -1.4349 0
M  V30 2585 C 244.834 1.76462 -1.4876 0
M  V30 2586 C 245.804 1.62641 -0.337189 0
M  V30 2587 O 246.989 1.82864 -0.544544 0
M  V30 2588 C 244.129 3.14623 -1.41796 0
M  V30 2589 C 243.242 3.39568 -2.67053 0
M  V30 2590 C 242.377 4.67585 -2.52068 0
M  V30 2591 C 241.416 4.85639 -3.72587 0
M  V30 2592 N 240.553 6.04915 -3.56402 0
M  V30 2593 H 245.393 1.71293 -2.43849 0
M  V30 2594 H 242.93 0.835889 -1.21043 0
M  V30 2595 H 244.888 3.94496 -1.35753 0
M  V30 2596 H 243.518 3.18859 -0.50288 0
M  V30 2597 H 242.57 2.53783 -2.8337 0
M  V30 2598 H 243.882 3.48795 -3.56572 0
M  V30 2599 H 243.036 5.55586 -2.4374 0
M  V30 2600 H 241.775 4.60681 -1.60075 0
M  V30 2601 H 240.78 3.96073 -3.81321 0
M  V30 2602 H 242.005 4.94372 -4.65589 0
M  V30 2603 H 239.951 5.9914 -2.67146 0
M  V30 2604 H 239.868 6.15106 -4.39524 0
M  V30 2605 H 241.136 6.95533 -3.51929 0
M  V30 2606 N 245.365 1.30045 0.890287 0
M  V30 2607 C 246.776 1.16738 1.45702 0
M  V30 2608 C 247.127 -0.233939 1.948 0
M  V30 2609 O 246.252 -1.13021 1.84541 0
M  V30 2610 C 246.847 2.11313 2.64825 0
M  V30 2611 C 245.406 2.02001 3.17604 0
M  V30 2612 C 244.553 2.01699 1.90296 0
M  V30 2613 H 247.504 1.42392 0.700726 0
M  V30 2614 H 247.525 1.69086 3.40867 0
M  V30 2615 H 247.037 3.13294 2.2906 0
M  V30 2616 H 245.138 1.03142 3.5804 0
M  V30 2617 H 245.251 2.90128 3.81264 0
M  V30 2618 H 243.615 1.46427 2.08402 0
M  V30 2619 H 244.398 3.05402 1.56795 0
M  V30 2620 N 246.843 -1.10192 1.12674 0
M  V30 2621 C 247.753 -2.20172 0.810026 0
M  V30 2622 C 248.769 -1.72821 -0.202188 0
M  V30 2623 O 249.945 -2.01369 -0.0351691 0
M  V30 2624 C 247.01 -3.45631 0.272007 0
M  V30 2625 C 246.071 -4.07704 1.34447 0
M  V30 2626 C 245.304 -5.27175 0.832029 0
M  V30 2627 O 245.527 -5.69425 -0.333284 0
M  V30 2628 O 244.461 -5.80168 1.60277 0
M  V30 2629 H 248.287 -2.49701 1.72867 0
M  V30 2630 H 245.872 -1.18977 0.903597 0
M  V30 2631 H 247.754 -4.21394 -0.0230219 0
M  V30 2632 H 246.429 -3.17723 -0.619164 0
M  V30 2633 H 245.336 -3.33614 1.6927 0
M  V30 2634 H 246.669 -4.3982 2.2095 0
M  V30 2635 N 248.321 -0.919034 -1.28029 0
M  V30 2636 C 249.269 -0.401753 -2.29104 0
M  V30 2637 C 250.263 0.509354 -1.61561 0
M  V30 2638 O 251.469 0.390014 -1.75724 0
M  V30 2639 H 247.844 -0.111331 -0.743713 0
M  V30 2640 H 249.815 -1.2672 -2.70156 0
M  V30 2641 C 248.564 0.338148 -3.46052 0
M  V30 2642 H 247.887 -0.353732 -3.98232 0
M  V30 2643 H 249.327 0.664653 -4.18758 0
M  V30 2644 C 247.786 1.54798 -2.99231 0
M  V30 2645 O 248.316 2.64696 -3.02157 0
M  V30 2646 N 246.522 1.3968 -2.54829 0
M  V30 2647 H 246.069 0.502698 -2.52647 0
M  V30 2648 H 246.027 2.20755 -2.23863 0
M  V30 2649 N 249.799 1.42003 -0.683588 0
M  V30 2650 C 250.729 2.33487 -0.024866 0
M  V30 2651 C 251.71 1.51163 0.779975 0
M  V30 2652 O 252.895 1.79739 0.735362 0
M  V30 2653 C 250.025 3.3487 0.920836 0
M  V30 2654 C 248.979 4.27414 0.223958 0
M  V30 2655 C 248.305 5.19074 1.2832 0
M  V30 2656 C 249.605 5.14445 -0.90242 0
M  V30 2657 H 251.299 2.88819 -0.788921 0
M  V30 2658 H 248.845 1.38873 -0.38083 0
M  V30 2659 H 250.798 3.97787 1.39081 0
M  V30 2660 H 249.522 2.77861 1.71642 0
M  V30 2661 H 248.181 3.65904 -0.225864 0
M  V30 2662 H 247.829 4.58387 2.071 0
M  V30 2663 H 247.529 5.81822 0.821995 0
M  V30 2664 H 249.053 5.84867 1.75392 0
M  V30 2665 H 250.467 5.70998 -0.513272 0
M  V30 2666 H 248.864 5.86072 -1.28997 0
M  V30 2667 H 249.934 4.52322 -1.74737 0
M  V30 2668 N 251.277 0.427512 1.51691 0
M  V30 2669 C 252.207 -0.3796 2.30394 0
M  V30 2670 C 253.188 -1.02982 1.35384 0
M  V30 2671 O 254.373 -1.03534 1.643 0
M  V30 2672 C 251.503 -1.48649 3.1388 0
M  V30 2673 C 250.457 -0.960294 4.17088 0
M  V30 2674 C 249.783 -2.16219 4.89033 0
M  V30 2675 C 251.083 -0.00153679 5.223 0
M  V30 2676 H 252.777 0.277164 2.98114 0
M  V30 2677 H 250.323 0.134739 1.43368 0
M  V30 2678 H 252.276 -2.05826 3.67714 0
M  V30 2679 H 251 -2.1714 2.43962 0
M  V30 2680 H 249.659 -0.410806 3.64291 0
M  V30 2681 H 249.307 -2.83307 4.15628 0
M  V30 2682 H 249.007 -1.81654 5.58816 0
M  V30 2683 H 250.531 -2.73968 5.45687 0
M  V30 2684 H 251.945 -0.482687 5.71264 0
M  V30 2685 H 250.342 0.256199 5.99553 0
M  V30 2686 H 251.412 0.938174 4.75738 0
M  V30 2687 N 252.755 -1.56801 0.158532 0
M  V30 2688 C 253.985 -2.00568 -0.495583 0
M  V30 2689 C 254.393 -1.03774 -1.58201 0
M  V30 2690 O 253.736 -0.0285797 -1.83678 0
M  V30 2691 C 253.798 -3.40768 -1.14532 0
M  V30 2692 C 253.462 -4.56553 -0.202101 0
M  V30 2693 C 254.459 -5.16714 0.574675 0
M  V30 2694 C 252.144 -5.02197 -0.101648 0
M  V30 2695 C 254.138 -6.20939 1.43924 0
M  V30 2696 C 251.825 -6.06274 0.766508 0
M  V30 2697 C 252.823 -6.65515 1.53555 0
M  V30 2698 O 252.511 -7.67575 2.38922 0
M  V30 2699 H 252.243 -0.662893 -0.13247 0
M  V30 2700 H 254.797 -2.03829 0.253559 0
M  V30 2701 H 253.027 -3.34381 -1.94233 0
M  V30 2702 H 254.716 -3.6857 -1.70033 0
M  V30 2703 H 255.482 -4.82341 0.507167 0
M  V30 2704 H 251.361 -4.55807 -0.689994 0
M  V30 2705 H 254.905 -6.67107 2.03996 0
M  V30 2706 H 250.802 -6.40073 0.835266 0
M  V30 2707 H 251.57 -7.84844 2.32296 0
M  V30 2708 N 254.233 0.115231 -1.57178 0
M  V30 2709 C 255.196 1.12526 -1.99676 0
M  V30 2710 C 256.196 1.34095 -0.88742 0
M  V30 2711 O 257.386 1.30548 -1.15337 0
M  V30 2712 C 254.518 2.4789 -2.34015 0
M  V30 2713 H 255.711 0.759912 -2.90113 0
M  V30 2714 H 253.264 0.359648 -1.52106 0
M  V30 2715 H 253.999 2.89339 -1.4647 0
M  V30 2716 H 253.784 2.33588 -3.14927 0
M  V30 2717 H 255.274 3.20575 -2.67622 0
M  V30 2718 N 255.711 1.52812 0.385517 0
M  V30 2719 C 256.939 1.71907 1.15133 0
M  V30 2720 C 257.354 0.439004 1.83625 0
M  V30 2721 O 256.711 -0.586765 1.7281 0
M  V30 2722 C 256.762 2.87099 2.19673 0
M  V30 2723 O 256.483 4.10151 1.53973 0
M  V30 2724 C 257.984 3.17902 3.08955 0
M  V30 2725 H 255.204 0.575479 0.345057 0
M  V30 2726 H 257.748 1.99476 0.45052 0
M  V30 2727 H 255.903 2.61982 2.85384 0
M  V30 2728 H 256.317 4.74514 2.23465 0
M  V30 2729 H 257.791 4.01959 3.7833 0
M  V30 2730 H 258.268 2.3243 3.72657 0
M  V30 2731 H 258.874 3.44871 2.48885 0
M  V30 2732 N 257.189 -0.644168 1.43834 0
M  V30 2733 C 258.6 -1.22554 1.40845 0
M  V30 2734 C 258.951 -1.9585 0.117115 0
M  V30 2735 O 258.076 -2.01734 -0.783086 0
M  V30 2736 C 258.671 -2.22907 2.55143 0
M  V30 2737 C 257.23 -2.76501 2.5539 0
M  V30 2738 C 256.377 -1.51287 2.32396 0
M  V30 2739 H 259.328 -0.43563 1.52604 0
M  V30 2740 H 259.349 -3.05259 2.2715 0
M  V30 2741 H 258.861 -1.69533 3.49114 0
M  V30 2742 H 256.962 -3.33914 1.65324 0
M  V30 2743 H 257.075 -3.23429 3.53455 0
M  V30 2744 H 255.439 -1.78957 1.81236 0
M  V30 2745 H 256.222 -0.998336 3.28463 0
M  V30 2746 N 258.668 -1.30515 -0.883378 0
M  V30 2747 C 259.631 -1.1701 -1.97082 0
M  V30 2748 C 260.631 -0.10089 -1.60483 0
M  V30 2749 O 261.821 -0.349127 -1.70666 0
M  V30 2750 C 258.953 -0.793045 -3.31547 0
M  V30 2751 H 260.146 -2.13622 -2.10489 0
M  V30 2752 H 257.699 -1.13935 -1.06998 0
M  V30 2753 H 258.434 0.172499 -3.23841 0
M  V30 2754 H 258.219 -1.56576 -3.5948 0
M  V30 2755 H 259.709 -0.722073 -4.1131 0
M  V30 2756 N 260.146 1.09593 -1.13257 0
M  V30 2757 C 261.557 1.63229 -0.906274 0
M  V30 2758 C 261.908 1.8811 0.557578 0
M  V30 2759 O 261.033 1.62953 1.42391 0
M  V30 2760 C 261.628 2.96535 -1.63867 0
M  V30 2761 C 260.187 3.47003 -1.45828 0
M  V30 2762 C 259.334 2.2145 -1.66898 0
M  V30 2763 H 262.285 0.92978 -1.28611 0
M  V30 2764 H 262.306 3.64411 -1.09476 0
M  V30 2765 H 261.818 2.78394 -2.70404 0
M  V30 2766 H 259.919 3.70272 -0.415848 0
M  V30 2767 H 260.032 4.24551 -2.2202 0
M  V30 2768 H 258.396 2.30022 -1.09371 0
M  V30 2769 H 259.179 2.0583 -2.74752 0
M  V30 2770 N 261.624 0.925811 1.2754 0
M  V30 2771 C 262.901 0.483726 1.89524 0
M  V30 2772 C 263.281 -1.03809 1.83812 0
M  V30 2773 O 262.629 -1.89143 1.28207 0
M  V30 2774 C 262.839 1.02769 3.33526 0
M  V30 2775 C 264.187 1.08703 4.10449 0
M  V30 2776 O 265.211 0.977175 3.42534 0
M  V30 2777 O 264.07 1.25599 5.31871 0
M  V30 2778 H 261.164 0.15529 0.812289 0
M  V30 2779 H 263.71 1.01738 1.35822 0
M  V30 2780 H 262.482 2.07155 3.31967 0
M  V30 2781 H 262.105 0.475567 3.94746 0
M  V30 2782 N 263.102 -1.41638 0.69111 0
M  V30 2783 C 264.065 -2.29178 0.0319786 0
M  V30 2784 C 265.065 -1.44153 -0.712496 0
M  V30 2785 O 266.255 -1.65354 -0.548053 0
M  V30 2786 C 263.387 -3.26952 -0.965161 0
M  V30 2787 H 264.58 -2.88959 0.802681 0
M  V30 2788 H 262.133 -1.4955 0.454356 0
M  V30 2789 H 262.868 -2.72142 -1.76378 0
M  V30 2790 H 262.653 -3.89685 -0.434522 0
M  V30 2791 H 264.143 -3.92561 -1.42428 0
M  V30 2792 N 264.58 -0.43555 -1.51462 0
M  V30 2793 C 265.991 0.0279871 -1.86679 0
M  V30 2794 C 266.342 1.42104 -1.35281 0
M  V30 2795 O 265.467 2.04667 -0.702878 0
M  V30 2796 C 266.062 0.0575626 -3.38751 0
M  V30 2797 C 264.621 0.465507 -3.7351 0
M  V30 2798 C 263.768 -0.342996 -2.75171 0
M  V30 2799 H 266.719 -0.651473 -1.44712 0
M  V30 2800 H 266.74 0.867421 -3.70481 0
M  V30 2801 H 266.252 -0.956448 -3.7613 0
M  V30 2802 H 264.353 1.48519 -3.41721 0
M  V30 2803 H 264.466 0.191546 -4.78717 0
M  V30 2804 H 262.83 0.198442 -2.53926 0
M  V30 2805 H 263.613 -1.35585 -3.15391 0
M  V30 2806 N 266.058 1.56714 -0.166846 0
M  V30 2807 C 266.988 2.20754 0.760913 0
M  V30 2808 C 267.969 1.16178 1.24244 0
M  V30 2809 O 269.154 1.44592 1.29641 0
M  V30 2810 C 266.284 2.84478 1.99223 0
M  V30 2811 C 265.238 3.95053 1.64672 0
M  V30 2812 C 264.564 4.45805 2.95232 0
M  V30 2813 C 265.864 5.14865 0.878155 0
M  V30 2814 H 267.558 2.98537 0.22713 0
M  V30 2815 H 265.104 1.43596 0.107805 0
M  V30 2816 H 267.057 3.27951 2.64624 0
M  V30 2817 H 265.781 2.04056 2.55007 0
M  V30 2818 H 264.44 3.52228 1.01641 0
M  V30 2819 H 264.088 3.62181 3.49047 0
M  V30 2820 H 263.788 5.204 2.7287 0
M  V30 2821 H 265.312 4.91962 3.6167 0
M  V30 2822 H 266.726 5.55059 1.43466 0
M  V30 2823 H 265.123 5.95348 0.753738 0
M  V30 2824 H 266.193 4.84735 -0.126377 0
M  V30 2825 N 267.536 -0.106894 1.57237 0
M  V30 2826 C 268.483 -1.13049 2.01217 0
M  V30 2827 C 269.453 -1.40471 0.886403 0
M  V30 2828 O 270.638 -1.52133 1.15153 0
M  V30 2829 C 267.778 -2.4487 2.43172 0
M  V30 2830 C 266.891 -2.24281 3.69218 0
M  V30 2831 C 266.026 -3.49417 4.00101 0
M  V30 2832 C 265.065 -3.24038 5.19294 0
M  V30 2833 N 264.202 -4.41409 5.45988 0
M  V30 2834 H 269.042 -0.748456 2.88448 0
M  V30 2835 H 266.579 -0.358054 1.42676 0
M  V30 2836 H 268.537 -3.21786 2.65537 0
M  V30 2837 H 267.167 -2.80944 1.58967 0
M  V30 2838 H 266.219 -1.38224 3.54398 0
M  V30 2839 H 267.531 -2.01512 4.56283 0
M  V30 2840 H 266.685 -4.34746 4.2318 0
M  V30 2841 H 265.424 -3.75229 3.11535 0
M  V30 2842 H 264.429 -2.37102 4.96047 0
M  V30 2843 H 265.654 -2.99584 6.09447 0
M  V30 2844 H 263.6 -4.67319 4.60379 0
M  V30 2845 H 263.517 -4.21788 6.274 0
M  V30 2846 H 264.785 -5.27836 5.73593 0
M  V30 2847 N 269.014 -1.53014 -0.377408 0
M  V30 2848 C 270.263 -1.67845 -1.11853 0
M  V30 2849 C 270.576 -0.430625 -1.90801 0
M  V30 2850 O 271.782 -0.459261 -2.67587 0
M  V30 2851 C 270.238 -2.96668 -2.03756 0
M  V30 2852 C 269.846 -4.28671 -1.30175 0
M  V30 2853 C 271.59 -3.20865 -2.77932 0
M  V30 2854 C 269.497 -5.48591 -2.20911 0
M  V30 2855 H 268.427 -0.625343 -0.421263 0
M  V30 2856 H 271.078 -1.79514 -0.380409 0
M  V30 2857 H 269.46 -2.78773 -2.8125 0
M  V30 2858 H 270.634 -4.57157 -0.578259 0
M  V30 2859 H 268.949 -4.10825 -0.679108 0
M  V30 2860 H 271.546 -4.07642 -3.46024 0
M  V30 2861 H 271.889 -2.36424 -3.4265 0
M  V30 2862 H 272.422 -3.39379 -2.07525 0
M  V30 2863 H 269.161 -6.35474 -1.6079 0
M  V30 2864 H 268.681 -5.244 -2.91144 0
M  V30 2865 H 270.36 -5.8292 -2.80736 0
M  V30 2866 N 270.492 0.636531 -1.44174 0
M  V30 2867 C 271.455 1.73063 -1.50273 0
M  V30 2868 C 272.455 1.56113 -0.385397 0
M  V30 2869 O 273.645 1.61707 -0.64781 0
M  V30 2870 C 270.777 3.12096 -1.37145 0
M  V30 2871 H 271.97 1.69031 -2.47727 0
M  V30 2872 H 269.523 0.849706 -1.31186 0
M  V30 2873 H 270.258 3.21728 -0.407636 0
M  V30 2874 H 270.043 3.25805 -2.18159 0
M  V30 2875 H 271.533 3.91846 -1.44382 0
M  V30 2876 N 271.97 1.30982 0.876444 0
M  V30 2877 C 273.247 1.10942 1.61094 0
M  V30 2878 C 273.627 -0.338223 2.08373 0
M  V30 2879 O 272.975 -1.33122 1.85717 0
M  V30 2880 C 273.185 2.11789 2.77392 0
M  V30 2881 C 274.533 2.43965 3.47514 0
M  V30 2882 O 275.557 2.10166 2.87591 0
M  V30 2883 O 274.416 3.01817 4.55597 0
M  V30 2884 H 271.51 0.42667 0.708436 0
M  V30 2885 H 274.056 1.42438 0.922474 0
M  V30 2886 H 272.828 3.09194 2.39823 0
M  V30 2887 H 272.451 1.81161 3.5393 0
M  V30 2888 N 273.449 -1.08991 1.13837 0
M  V30 2889 C 274.696 -1.81258 0.902882 0
M  V30 2890 C 275.024 -1.85936 -0.570803 0
M  V30 2891 O 274.279 -1.3267 -1.43865 0
M  V30 2892 C 274.578 -3.27042 1.44147 0
M  V30 2893 C 274.244 -3.4249 2.93276 0
M  V30 2894 C 272.906 -3.46414 3.33992 0
M  V30 2895 C 275.258 -3.4666 3.892 0
M  V30 2896 C 272.586 -3.52091 4.69307 0
M  V30 2897 C 274.938 -3.53872 5.24364 0
M  V30 2898 C 273.602 -3.56066 5.646 0
M  V30 2899 H 272.872 -0.663268 0.330388 0
M  V30 2900 H 275.519 -1.28368 1.42105 0
M  V30 2901 H 273.824 -3.82599 0.844097 0
M  V30 2902 H 275.521 -3.81499 1.23528 0
M  V30 2903 H 272.111 -3.40124 2.60794 0
M  V30 2904 H 276.295 -3.42865 3.58828 0
M  V30 2905 H 271.551 -3.52079 4.9985 0
M  V30 2906 H 275.725 -3.56043 5.98503 0
M  V30 2907 H 273.352 -3.60218 6.69438 0
M  V30 2908 N 274.927 -0.932562 -1.27047 0
M  V30 2909 C 276.175 -0.574422 -1.93765 0
M  V30 2910 C 276.496 0.887993 -1.73608 0
M  V30 2911 O 275.766 1.62999 -1.08665 0
M  V30 2912 H 274.346 -0.209451 -0.717035 0
M  V30 2913 H 277.008 -1.18601 -1.5466 0
M  V30 2914 H 276.104 -0.784841 -3.02071 0
M  V30 2915 N 276.405 1.4127 -0.698611 0
M  V30 2916 C 277.335 2.33447 -0.049629 0
M  V30 2917 C 278.316 1.51982 0.763898 0
M  V30 2918 O 279.501 1.80509 0.716257 0
M  V30 2919 C 276.631 3.35828 0.885267 0
M  V30 2920 C 275.585 4.27627 0.178613 0
M  V30 2921 C 274.911 5.20406 1.22807 0
M  V30 2922 C 276.211 5.13459 -0.956933 0
M  V30 2923 H 277.905 2.87966 -0.81951 0
M  V30 2924 H 275.451 1.38461 -0.395538 0
M  V30 2925 H 277.404 3.9924 1.34854 0
M  V30 2926 H 276.128 2.79666 1.68685 0
M  V30 2927 H 274.787 3.65643 -0.26466 0
M  V30 2928 H 274.435 4.60558 2.02226 0
M  V30 2929 H 274.135 5.82661 0.760239 0
M  V30 2930 H 275.659 5.86695 1.69179 0
M  V30 2931 H 277.073 5.70421 -0.573805 0
M  V30 2932 H 275.47 5.8467 -1.35205 0
M  V30 2933 H 276.54 4.50443 -1.79524 0
M  V30 2934 N 277.883 0.443576 1.51229 0
M  V30 2935 C 279.108 -0.121648 2.07043 0
M  V30 2936 C 279.533 -1.35156 1.30823 0
M  V30 2937 O 278.891 -1.7793 0.347934 0
M  V30 2938 C 278.939 -0.41624 3.5819 0
M  V30 2939 O 278.043 -1.50163 3.8409 0
M  V30 2940 H 277.384 0.000871367 0.663999 0
M  V30 2941 H 279.914 0.626706 1.94765 0
M  V30 2942 H 279.924 -0.664867 4.02546 0
M  V30 2943 H 278.599 0.482653 4.1309 0
M  V30 2944 H 277.176 -1.24248 3.51592 0
M  V30 2945 N 279.361 -1.56624 0.175154 0
M  V30 2946 C 280.308 -2.18149 -0.753634 0
M  V30 2947 C 281.278 -1.12265 -1.22417 0
M  V30 2948 O 282.463 -1.40432 -1.29165 0
M  V30 2949 C 279.603 -2.82933 -1.97592 0
M  V30 2950 C 278.716 -4.03289 -1.5486 0
M  V30 2951 C 277.851 -4.55988 -2.72485 0
M  V30 2952 C 276.89 -5.68746 -2.26262 0
M  V30 2953 N 276.027 -6.15938 -3.36994 0
M  V30 2954 H 280.867 -2.9717 -0.222195 0
M  V30 2955 H 278.404 -1.46774 -0.0979422 0
M  V30 2956 H 280.362 -3.18653 -2.69288 0
M  V30 2957 H 278.992 -2.06509 -2.481 0
M  V30 2958 H 278.044 -3.73364 -0.728246 0
M  V30 2959 H 279.356 -4.849 -1.16933 0
M  V30 2960 H 278.51 -4.9391 -3.52332 0
M  V30 2961 H 277.249 -3.73443 -3.13674 0
M  V30 2962 H 276.254 -5.30372 -1.44863 0
M  V30 2963 H 277.479 -6.53095 -1.86127 0
M  V30 2964 H 275.425 -5.36321 -3.77751 0
M  V30 2965 H 275.342 -6.92548 -3.03172 0
M  V30 2966 H 276.61 -6.58511 -4.17114 0
M  V30 2967 N 280.839 0.0985539 -1.57292 0
M  V30 2968 C 282.088 0.801358 -1.85098 0
M  V30 2969 C 282.401 1.80066 -0.763902 0
M  V30 2970 O 283.607 2.55112 -0.928981 0
M  V30 2971 C 282.063 1.47599 -3.28242 0
M  V30 2972 C 281.671 0.516624 -4.45011 0
M  V30 2973 C 283.415 2.16272 -3.65276 0
M  V30 2974 C 281.322 1.19564 -5.79188 0
M  V30 2975 H 280.252 0.303022 -0.69043 0
M  V30 2976 H 282.903 0.0542623 -1.8342 0
M  V30 2977 H 281.285 2.27042 -3.2445 0
M  V30 2978 H 282.459 -0.246065 -4.60143 0
M  V30 2979 H 280.774 -0.064227 -4.1635 0
M  V30 2980 H 283.371 2.67802 -4.62803 0
M  V30 2981 H 283.714 2.95009 -2.93727 0
M  V30 2982 H 284.247 1.43693 -3.70941 0
M  V30 2983 H 280.986 0.449157 -6.53959 0
M  V30 2984 H 280.506 1.92984 -5.67906 0
M  V30 2985 H 282.185 1.7231 -6.23633 0
M  V30 2986 N 282.317 1.53212 0.369288 0
M  V30 2987 C 283.563 1.69466 1.11397 0
M  V30 2988 C 283.896 0.443257 1.89074 0
M  V30 2989 O 283.171 -0.559386 1.86282 0
M  V30 2990 C 283.454 2.9422 2.07621 0
M  V30 2991 C 283.307 4.29508 1.33577 0
M  V30 2992 C 284.626 3.14565 3.07794 0
M  V30 2993 H 281.745 0.616667 0.403597 0
M  V30 2994 H 284.387 1.85845 0.395179 0
M  V30 2995 H 282.537 2.80387 2.68916 0
M  V30 2996 H 284.209 4.55147 0.750955 0
M  V30 2997 H 282.452 4.29088 0.637618 0
M  V30 2998 H 283.123 5.12926 2.03989 0
M  V30 2999 H 285.599 3.2756 2.56601 0
M  V30 3000 H 284.475 4.03297 3.72348 0
M  V30 3001 H 284.736 2.29675 3.77759 0
M  V30 3002 N 283.795 -0.628877 1.44509 0
M  V30 3003 C 284.705 -1.7694 1.54044 0
M  V30 3004 C 285.721 -1.68705 0.425987 0
M  V30 3005 O 286.897 -1.89442 0.683656 0
M  V30 3006 C 283.962 -3.13332 1.48405 0
M  V30 3007 C 283.023 -3.33181 2.70719 0
M  V30 3008 C 282.256 -4.63067 2.6534 0
M  V30 3009 O 282.479 -5.44017 1.71469 0
M  V30 3010 O 281.413 -4.85167 3.56226 0
M  V30 3011 H 285.239 -1.71848 2.50403 0
M  V30 3012 H 282.824 -0.790378 1.26781 0
M  V30 3013 H 284.706 -3.94634 1.47791 0
M  V30 3014 H 283.381 -3.1896 0.551898 0
M  V30 3015 H 282.288 -2.51549 2.769 0
M  V30 3016 H 283.621 -3.32416 3.62988 0
M  V30 3017 N 285.273 -1.31445 -0.869486 0
M  V30 3018 C 286.223 -1.15731 -1.96444 0
M  V30 3019 C 287.207 -0.0681855 -1.60755 0
M  V30 3020 O 288.399 -0.293154 -1.74555 0
M  V30 3021 C 285.528 -0.867255 -3.32165 0
M  V30 3022 C 284.614 -1.99738 -3.74119 0
M  V30 3023 N 285.005 -3.24447 -3.88031 0
M  V30 3024 C 283.303 -1.89723 -4.03635 0
M  V30 3025 C 284.004 -3.98374 -4.23879 0
M  V30 3026 N 282.98 -3.26547 -4.3459 0
M  V30 3027 H 286.782 -2.10296 -2.05312 0
M  V30 3028 H 284.296 -1.23009 -1.06031 0
M  V30 3029 H 286.293 -0.735668 -4.10358 0
M  V30 3030 H 284.953 0.0701614 -3.24624 0
M  V30 3031 H 285.964 -3.59557 -3.72746 0
M  V30 3032 H 282.641 -1.03449 -4.04481 0
M  V30 3033 H 284.031 -5.05844 -4.42235 0
M  V30 3034 N 286.751 1.08385 -1.14413 0
M  V30 3035 C 287.683 2.1519 -0.789036 0
M  V30 3036 C 288.696 1.61638 0.19417 0
M  V30 3037 O 289.885 1.78479 -0.0275711 0
M  V30 3038 C 286.985 3.38565 -0.15058 0
M  V30 3039 C 286.158 4.21501 -1.16857 0
M  V30 3040 C 285.217 5.23277 -0.553832 0
M  V30 3041 O 284.243 5.56041 -1.21686 0
M  V30 3042 N 285.445 5.76629 0.669296 0
M  V30 3043 H 288.21 2.46257 -1.70814 0
M  V30 3044 H 285.771 1.24198 -1.03858 0
M  V30 3045 H 287.763 4.03777 0.273181 0
M  V30 3046 H 286.333 3.05299 0.671667 0
M  V30 3047 H 285.553 3.52265 -1.76926 0
M  V30 3048 H 286.841 4.73731 -1.85624 0
M  V30 3049 H 286.239 5.52243 1.22654 0
M  V30 3050 H 284.796 6.43521 1.03556 0
M  V30 3051 N 288.23 0.939286 1.26551 0
M  V30 3052 C 289.476 0.586715 1.94128 0
M  V30 3053 C 289.809 -0.8717 1.73537 0
M  V30 3054 O 289.084 -1.62339 1.07127 0
M  V30 3055 C 289.367 0.927497 3.4795 0
M  V30 3056 C 289.22 2.44052 3.77834 0
M  V30 3057 C 290.539 0.441569 4.37879 0
M  V30 3058 H 287.658 0.21463 0.705055 0
M  V30 3059 H 290.3 1.17316 1.49455 0
M  V30 3060 H 288.45 0.428431 3.8613 0
M  V30 3061 H 290.122 3.01216 3.4938 0
M  V30 3062 H 288.365 2.8848 3.23978 0
M  V30 3063 H 289.036 2.62947 4.85348 0
M  V30 3064 H 291.512 0.869448 4.06915 0
M  V30 3065 H 290.388 0.708856 5.44304 0
M  V30 3066 H 290.649 -0.658467 4.37169 0
M  V30 3067 N 289.708 -1.40897 0.706093 0
M  V30 3068 C 290.638 -2.33418 0.0620085 0
M  V30 3069 C 291.619 -1.52385 -0.755827 0
M  V30 3070 O 292.804 -1.80886 -0.706674 0
M  V30 3071 C 289.934 -3.36293 -0.867445 0
M  V30 3072 C 288.888 -4.27716 -0.155932 0
M  V30 3073 C 288.214 -5.2105 -1.20046 0
M  V30 3074 C 289.514 -5.12944 0.984149 0
M  V30 3075 H 291.208 -2.87527 0.83477 0
M  V30 3076 H 288.754 -1.38249 0.402875 0
M  V30 3077 H 290.707 -3.99949 -1.32735 0
M  V30 3078 H 289.431 -2.80556 -1.67199 0
M  V30 3079 H 288.09 -3.65498 0.284047 0
M  V30 3080 H 287.738 -4.61624 -1.99781 0
M  V30 3081 H 287.438 -5.83056 -0.729328 0
M  V30 3082 H 288.962 -5.87584 -1.66066 0
M  V30 3083 H 290.376 -5.70109 0.604048 0
M  V30 3084 H 288.773 -5.83945 1.38304 0
M  V30 3085 H 289.843 -4.49485 1.81911 0
M  V30 3086 N 291.186 -0.45159 -1.50991 0
M  V30 3087 C 292.119 0.398179 -2.24699 0
M  V30 3088 C 293.097 1.01276 -1.27208 0
M  V30 3089 O 294.281 1.05247 -1.56382 0
M  V30 3090 C 291.408 1.55618 -3.00833 0
M  V30 3091 C 290.454 1.0609 -4.13095 0
M  V30 3092 S 291.287 -0.00865136 -5.35499 0
M  V30 3093 C 292.443 1.15369 -6.15175 0
M  V30 3094 H 292.676 -0.227555 -2.96428 0
M  V30 3095 H 290.209 -0.236251 -1.52582 0
M  V30 3096 H 292.167 2.21997 -3.45293 0
M  V30 3097 H 290.828 2.15337 -2.28667 0
M  V30 3098 H 290.021 1.92726 -4.65696 0
M  V30 3099 H 289.623 0.47513 -3.7097 0
M  V30 3100 H 291.915 2.06925 -6.45126 0
M  V30 3101 H 292.858 0.667344 -7.04948 0
M  V30 3102 H 293.266 1.3987 -5.46897 0
M  V30 3103 N 292.664 1.56529 -0.183458 0
M  V30 3104 C 293.611 2.18546 0.742055 0
M  V30 3105 C 294.581 1.12912 1.2182 0
M  V30 3106 O 295.766 1.41115 1.28418 0
M  V30 3107 C 292.906 2.83977 1.96089 0
M  V30 3108 C 292.019 4.04105 1.52719 0
M  V30 3109 C 291.154 4.57427 2.70063 0
M  V30 3110 C 290.193 5.69938 2.23243 0
M  V30 3111 N 289.33 6.17717 3.33722 0
M  V30 3112 H 294.17 2.97284 0.206432 0
M  V30 3113 H 291.707 1.46823 0.0901571 0
M  V30 3114 H 293.665 3.20077 2.67594 0
M  V30 3115 H 292.295 2.07822 2.47002 0
M  V30 3116 H 291.347 3.73745 0.708436 0
M  V30 3117 H 292.659 4.85513 1.1436 0
M  V30 3118 H 291.813 4.95772 3.49708 0
M  V30 3119 H 290.552 3.75101 3.11689 0
M  V30 3120 H 289.557 5.31133 1.42048 0
M  V30 3121 H 290.782 6.54073 1.82661 0
M  V30 3122 H 288.728 5.38317 3.74902 0
M  V30 3123 H 288.645 6.94146 2.99495 0
M  V30 3124 H 289.913 6.60713 4.13616 0
M  V30 3125 N 294.142 -0.090211 1.57342 0
M  V30 3126 C 295.37 -0.806224 1.90546 0
M  V30 3127 C 295.785 -1.72041 0.777644 0
M  V30 3128 O 295.142 -1.80778 -0.250103 0
M  V30 3129 C 295.193 -1.61546 3.23396 0
M  V30 3130 O 294.914 -0.738043 4.31839 0
M  V30 3131 C 296.415 -2.4341 3.70495 0
M  V30 3132 H 293.635 -0.230256 0.630257 0
M  V30 3133 H 296.179 -0.0659843 2.04394 0
M  V30 3134 H 294.334 -2.30816 3.11131 0
M  V30 3135 H 294.748 -1.29901 5.08159 0
M  V30 3136 H 296.222 -2.95676 4.66133 0
M  V30 3137 H 296.699 -3.22098 2.98579 0
M  V30 3138 H 297.305 -1.79331 3.85643 0
M  V30 3139 N 295.62 -1.53406 -0.361157 0
M  V30 3140 C 296.866 -1.70054 -1.10496 0
M  V30 3141 C 297.199 -0.453278 -1.88836 0
M  V30 3142 O 296.474 0.5495 -1.86576 0
M  V30 3143 C 296.757 -2.95317 -2.06058 0
M  V30 3144 C 296.61 -4.3021 -1.31298 0
M  V30 3145 C 297.929 -3.16193 -3.06121 0
M  V30 3146 H 295.048 -0.618799 -0.400321 0
M  V30 3147 H 297.69 -1.86052 -0.385318 0
M  V30 3148 H 295.84 -2.81809 -2.67425 0
M  V30 3149 H 297.512 -4.55538 -0.726807 0
M  V30 3150 H 295.755 -4.29421 -0.614853 0
M  V30 3151 H 296.426 -5.14 -2.01265 0
M  V30 3152 H 298.902 -3.28916 -2.5486 0
M  V30 3153 H 297.778 -4.05266 -3.70204 0
M  V30 3154 H 298.039 -2.31676 -3.76535 0
M  V30 3155 N 297.098 0.621204 -1.44841 0
M  V30 3156 C 298.338 1.39201 -1.49674 0
M  V30 3157 C 298.702 1.91561 -0.129764 0
M  V30 3158 O 299.903 2.68748 -0.0527814 0
M  V30 3159 C 298.174 2.519 -2.53537 0
M  V30 3160 S 299.733 3.39916 -2.77494 0
M  V30 3161 H 296.551 0.474758 -0.529269 0
M  V30 3162 H 299.153 0.718171 -1.81831 0
M  V30 3163 H 297.857 2.11761 -3.51547 0
M  V30 3164 H 297.388 3.241 -2.22986 0
M  V30 3165 H 299.403 4.49646 -2.0984 0
M  V30 3166 N 298.576 1.31904 0.862503 0
M  V30 3167 C 299.824 1.21776 1.61292 0
M  V30 3168 C 300.145 -0.222413 1.93727 0
M  V30 3169 O 299.415 -1.1451 1.58947 0
M  V30 3170 H 297.995 0.447717 0.597962 0
M  V30 3171 H 300.657 1.65326 1.03215 0
M  V30 3172 H 299.753 1.7948 2.5533 0
M  V30 3173 N 300.054 -1.07777 1.14986 0
M  V30 3174 C 301.282 -1.84018 0.945773 0
M  V30 3175 C 301.697 -1.81897 -0.505863 0
M  V30 3176 O 301.054 -1.22726 -1.35072 0
M  V30 3177 C 301.105 -3.31287 1.44677 0
M  V30 3178 O 300.826 -3.33449 2.84154 0
M  V30 3179 C 302.327 -4.24311 1.28355 0
M  V30 3180 H 299.547 -0.580716 0.336169 0
M  V30 3181 H 302.091 -1.36077 1.52654 0
M  V30 3182 H 300.246 -3.76594 0.908625 0
M  V30 3183 H 300.66 -4.25427 3.06777 0
M  V30 3184 H 302.134 -5.2573 1.68261 0
M  V30 3185 H 302.611 -4.38612 0.227184 0
M  V30 3186 H 303.217 -3.84836 1.81056 0
M  V30 3187 N 301.532 -0.945985 -1.26051 0
M  V30 3188 C 302.943 -0.638096 -1.75457 0
M  V30 3189 C 303.294 0.846672 -1.76991 0
M  V30 3190 O 302.419 1.66262 -1.38513 0
M  V30 3191 C 303.014 -1.15157 -3.18629 0
M  V30 3192 C 301.573 -0.894004 -3.65629 0
M  V30 3193 C 300.72 -1.29967 -2.44957 0
M  V30 3194 H 303.671 -1.12376 -1.1206 0
M  V30 3195 H 303.692 -0.507615 -3.77099 0
M  V30 3196 H 303.204 -2.23222 -3.1748 0
M  V30 3197 H 301.305 0.172057 -3.72203 0
M  V30 3198 H 301.418 -1.52439 -4.54202 0
M  V30 3199 H 299.782 -0.718078 -2.44368 0
M  V30 3200 H 300.565 -2.38935 -2.46505 0
M  V30 3201 N 303.011 1.40521 -0.713556 0
M  V30 3202 C 304.259 2.00527 -0.251692 0
M  V30 3203 C 304.58 1.56857 1.15848 0
M  V30 3204 O 303.85 0.807127 1.785 0
M  V30 3205 H 302.43 0.741551 -0.0900646 0
M  V30 3206 H 305.092 1.71887 -0.918733 0
M  V30 3207 H 304.188 3.10813 -0.283192 0
M  V30 3208 N 304.489 0.459591 1.5075 0
M  V30 3209 C 305.719 -0.0972338 2.06371 0
M  V30 3210 C 306.127 -1.35074 1.32483 0
M  V30 3211 O 305.47 -1.79637 0.384226 0
M  V30 3212 C 305.532 -0.462759 3.56509 0
M  V30 3213 C 305.196 0.687084 4.51805 0
M  V30 3214 C 306.193 1.56578 4.95761 0
M  V30 3215 C 303.878 0.874144 4.94635 0
M  V30 3216 C 305.872 2.61604 5.81242 0
M  V30 3217 C 303.559 1.92765 5.79901 0
M  V30 3218 C 304.557 2.79697 6.23104 0
M  V30 3219 O 304.245 3.83235 7.06673 0
M  V30 3220 H 303.977 -0.00140687 0.675999 0
M  V30 3221 H 306.531 0.644011 1.95043 0
M  V30 3222 H 304.761 -1.25703 3.65699 0
M  V30 3223 H 306.45 -0.953323 3.94546 0
M  V30 3224 H 307.216 1.4329 4.6335 0
M  V30 3225 H 303.095 0.207006 4.60535 0
M  V30 3226 H 306.639 3.29489 6.14884 0
M  V30 3227 H 302.536 2.06064 6.11725 0
M  V30 3228 H 303.304 3.80084 7.24899 0
M  V30 3229 N 305.967 -1.56429 0.191757 0
M  V30 3230 C 307.207 -1.99383 -0.450099 0
M  V30 3231 C 307.571 -1.07581 -1.59029 0
M  V30 3232 O 308.772 -1.39758 -2.29611 0
M  V30 3233 C 307.043 -3.45841 -0.901611 0
M  V30 3234 S 308.602 -4.10822 -1.54177 0
M  V30 3235 H 305.42 -0.696253 -0.144057 0
M  V30 3236 H 308.022 -1.93276 0.294036 0
M  V30 3237 H 306.726 -4.10354 -0.0616596 0
M  V30 3238 H 306.257 -3.55757 -1.67929 0
M  V30 3239 H 308.272 -4.07553 -2.83046 0
M  V30 3240 N 307.445 0.0818655 -1.57387 0
M  V30 3241 C 308.408 1.08265 -2.02018 0
M  V30 3242 C 309.408 1.32183 -0.915664 0
M  V30 3243 O 310.598 1.28073 -1.18081 0
M  V30 3244 C 307.73 2.42871 -2.39221 0
M  V30 3245 H 308.923 0.698204 -2.91659 0
M  V30 3246 H 306.476 0.327303 -1.52835 0
M  V30 3247 H 307.211 2.86167 -1.52575 0
M  V30 3248 H 306.996 2.26855 -3.19811 0
M  V30 3249 H 308.486 3.14826 -2.74362 0
M  V30 3250 N 308.923 1.53595 0.353017 0
M  V30 3251 C 310.334 1.61937 0.929153 0
M  V30 3252 C 310.685 0.494686 1.89861 0
M  V30 3253 O 309.81 -0.377017 2.1309 0
M  V30 3254 C 310.405 2.93526 1.69199 0
M  V30 3255 C 308.964 3.04161 2.21727 0
M  V30 3256 C 308.111 2.57322 1.03348 0
M  V30 3257 H 311.062 1.58155 0.131431 0
M  V30 3258 H 311.083 2.82034 2.55416 0
M  V30 3259 H 310.595 3.75362 0.986144 0
M  V30 3260 H 308.696 2.26938 2.95516 0
M  V30 3261 H 308.809 4.09465 2.48748 0
M  V30 3262 H 307.173 2.12499 1.40414 0
M  V30 3263 H 307.956 3.41588 0.342428 0
M  V30 3264 N 310.401 -0.613514 1.45168 0
M  V30 3265 C 311.311 -1.75296 1.55912 0
M  V30 3266 C 312.327 -1.68244 0.443856 0
M  V30 3267 O 313.503 -1.88706 0.70371 0
M  V30 3268 C 310.568 -3.1174 1.5172 0
M  V30 3269 C 309.629 -3.30291 2.74238 0
M  V30 3270 C 308.862 -4.60226 2.70236 0
M  V30 3271 O 309.085 -5.42168 1.77229 0
M  V30 3272 O 308.019 -4.81361 3.61352 0
M  V30 3273 H 311.845 -1.69183 2.52212 0
M  V30 3274 H 309.43 -0.776886 1.27612 0
M  V30 3275 H 311.312 -3.93044 1.51968 0
M  V30 3276 H 309.987 -3.18357 0.585697 0
M  V30 3277 H 308.894 -2.48598 2.79553 0
M  V30 3278 H 310.227 -3.28547 3.66494 0
M  V30 3279 N 311.879 -1.3236 -0.855495 0
M  V30 3280 C 313.128 -1.22226 -1.60448 0
M  V30 3281 C 313.441 0.214733 -1.94418 0
M  V30 3282 O 314.647 0.437917 -2.67945 0
M  V30 3283 C 313.103 -2.14063 -2.89318 0
M  V30 3284 C 312.711 -3.62839 -2.62777 0
M  V30 3285 C 314.455 -2.12764 -3.67331 0
M  V30 3286 C 312.362 -4.4664 -3.87643 0
M  V30 3287 H 311.292 -0.453904 -0.602069 0
M  V30 3288 H 313.943 -1.57314 -0.944698 0
M  V30 3289 H 312.325 -1.71889 -3.5675 0
M  V30 3290 H 313.499 -4.1335 -2.03662 0
M  V30 3291 H 311.814 -3.66261 -1.98096 0
M  V30 3292 H 314.411 -2.72611 -4.59987 0
M  V30 3293 H 314.754 -1.11841 -4.00995 0
M  V30 3294 H 315.287 -2.53214 -3.06802 0
M  V30 3295 H 312.026 -5.48373 -3.5912 0
M  V30 3296 H 311.546 -4.0088 -4.46156 0
M  V30 3297 H 313.225 -4.59597 -4.55389 0
M  V30 3298 N 313.357 1.07166 -1.15556 0
M  V30 3299 C 314.287 2.16403 -0.877046 0
M  V30 3300 C 315.268 1.69217 0.173111 0
M  V30 3301 O 316.453 1.94181 0.027084 0
M  V30 3302 C 313.583 3.45349 -0.367632 0
M  V30 3303 C 312.537 4.05995 -1.35468 0
M  V30 3304 C 311.863 5.30045 -0.704038 0
M  V30 3305 C 313.163 4.45804 -2.72132 0
M  V30 3306 H 314.857 2.39959 -1.79053 0
M  V30 3307 H 312.403 1.15325 -0.862331 0
M  V30 3308 H 314.356 4.21095 -0.160317 0
M  V30 3309 H 313.08 3.21385 0.581326 0
M  V30 3310 H 311.739 3.32296 -1.54839 0
M  V30 3311 H 311.387 5.02373 0.251128 0
M  V30 3312 H 311.087 5.71579 -1.36277 0
M  V30 3313 H 312.611 6.08495 -0.50654 0
M  V30 3314 H 314.025 5.12671 -2.56595 0
M  V30 3315 H 312.422 4.98296 -3.34397 0
M  V30 3316 H 313.492 3.57083 -3.28054 0
M  V30 3317 N 314.835 0.952656 1.25548 0
M  V30 3318 C 316.251 0.656769 1.4546 0
M  V30 3319 C 316.451 -0.78633 1.85524 0
M  V30 3320 O 315.507 -1.56183 1.98402 0
M  V30 3321 C 316.82 1.62801 2.52817 0
M  V30 3322 C 318.368 1.63897 2.66659 0
M  V30 3323 C 318.843 2.5978 3.77198 0
M  V30 3324 N 320.334 2.58133 3.84606 0
M  V30 3325 C 321.069 3.29003 4.69621 0
M  V30 3326 N 320.565 4.09339 5.58939 0
M  V30 3327 N 322.358 3.179 4.63569 0
M  V30 3328 H 314.509 1.88526 0.978344 0
M  V30 3329 H 316.772 0.810815 0.491206 0
M  V30 3330 H 316.478 2.65869 2.30232 0
M  V30 3331 H 316.352 1.38898 3.50695 0
M  V30 3332 H 318.739 0.615481 2.8861 0
M  V30 3333 H 318.82 1.91858 1.69187 0
M  V30 3334 H 318.464 3.62254 3.55997 0
M  V30 3335 H 318.394 2.29105 4.7415 0
M  V30 3336 H 320.885 1.99809 3.20757 0
M  V30 3337 H 321.198 4.6034 6.20731 0
M  V30 3338 H 319.543 4.13438 5.58654 0
M  V30 3339 H 322.734 2.54612 3.92798 0
M  V30 3340 H 322.907 3.73398 5.29602 0
M  V30 3341 N 316.313 -1.40141 0.720998 0
M  V30 3342 C 317.561 -2.0039 0.262323 0
M  V30 3343 C 317.882 -1.57469 -1.15015 0
M  V30 3344 O 317.152 -0.816582 -1.78069 0
M  V30 3345 H 315.732 -0.741063 0.093996 0
M  V30 3346 H 318.394 -1.71398 0.927835 0
M  V30 3347 H 317.49 -3.10658 0.299671 0
M  V30 3348 N 317.792 -0.46758 -1.50504 0
M  V30 3349 C 319.032 0.0874114 -2.04213 0
M  V30 3350 C 319.396 1.37301 -1.34211 0
M  V30 3351 O 320.597 2.01015 -1.78456 0
M  V30 3352 C 318.868 0.270571 -3.56374 0
M  V30 3353 S 320.427 0.784623 -4.31728 0
M  V30 3354 H 317.245 0.0176153 -0.710782 0
M  V30 3355 H 319.847 -0.633915 -1.84937 0
M  V30 3356 H 318.551 -0.670942 -4.04878 0
M  V30 3357 H 318.082 1.01811 -3.79997 0
M  V30 3358 H 320.097 2.05849 -4.51487 0
M  V30 3359 N 319.27 1.56325 -0.20005 0
M  V30 3360 C 320.233 2.18084 0.705132 0
M  V30 3361 C 321.233 1.13666 1.1374 0
M  V30 3362 O 322.423 1.39023 1.04968 0
M  V30 3363 C 319.555 2.78689 1.96329 0
M  V30 3364 H 320.748 2.99435 0.167023 0
M  V30 3365 H 318.301 1.56221 0.0495725 0
M  V30 3366 H 319.036 2.0115 2.5438 0
M  V30 3367 H 318.821 3.55133 1.66202 0
M  V30 3368 H 320.311 3.26096 2.60866 0
M  V30 3369 N 320.748 -0.0735177 1.57428 0
M  V30 3370 C 321.978 -0.78483 1.91112 0
M  V30 3371 C 322.386 -1.71729 0.7941 0
M  V30 3372 O 321.729 -1.82105 -0.241542 0
M  V30 3373 C 321.791 -1.63346 3.20247 0
M  V30 3374 C 321.455 -0.870557 4.48632 0
M  V30 3375 C 322.452 -0.19058 5.19551 0
M  V30 3376 C 320.137 -0.838242 4.95256 0
M  V30 3377 C 322.131 0.511503 6.35344 0
M  V30 3378 C 319.818 -0.132386 6.10957 0
M  V30 3379 C 320.816 0.541288 6.80852 0
M  V30 3380 O 320.504 1.23578 7.94345 0
M  V30 3381 H 320.236 -0.228408 0.636244 0
M  V30 3382 H 322.79 -0.0486039 2.05342 0
M  V30 3383 H 321.02 -2.41245 3.02222 0
M  V30 3384 H 322.709 -2.22329 3.39595 0
M  V30 3385 H 323.475 -0.206864 4.84559 0
M  V30 3386 H 319.354 -1.35206 4.40727 0
M  V30 3387 H 322.898 1.03789 6.89836 0
M  V30 3388 H 318.795 -0.114023 6.45399 0
M  V30 3389 H 319.563 1.14487 8.10454 0
M  V30 3390 N 322.226 -1.5378 -0.344866 0
M  V30 3391 C 323.474 -1.70625 -1.08311 0
M  V30 3392 C 323.795 -0.471447 -1.89215 0
M  V30 3393 O 323.065 0.514616 -1.8902 0
M  V30 3394 H 321.645 -0.629058 -0.402859 0
M  V30 3395 H 324.307 -1.9103 -0.386459 0
M  V30 3396 H 323.403 -2.57656 -1.76124 0
M  V30 3397 N 323.704 0.605807 -1.45491 0
M  V30 3398 C 325.115 1.18777 -1.44045 0
M  V30 3399 C 325.466 1.95471 -0.169001 0
M  V30 3400 O 324.591 2.0374 0.729324 0
M  V30 3401 C 325.186 2.16064 -2.60963 0
M  V30 3402 C 323.745 2.69633 -2.62631 0
M  V30 3403 C 322.892 1.45072 -2.36325 0
M  V30 3404 H 325.843 0.395017 -1.53705 0
M  V30 3405 H 325.864 2.9913 -2.35163 0
M  V30 3406 H 325.376 1.60217 -3.53486 0
M  V30 3407 H 323.477 3.29414 -1.74119 0
M  V30 3408 H 323.59 3.13944 -3.61906 0
M  V30 3409 H 321.954 1.74089 -1.85917 0
M  V30 3410 H 322.737 0.910899 -3.30995 0
M  V30 3411 N 325.182 1.32811 0.848464 0
M  V30 3412 C 326.092 1.24278 1.98978 0
M  V30 3413 C 327.108 0.155176 1.73307 0
M  V30 3414 O 328.284 0.376999 1.9784 0
M  V30 3415 C 325.349 0.972444 3.32783 0
M  V30 3416 C 324.41 2.14911 3.71634 0
M  V30 3417 C 323.643 1.89157 4.99054 0
M  V30 3418 O 323.866 0.837165 5.64223 0
M  V30 3419 O 322.8 2.75433 5.35183 0
M  V30 3420 H 326.626 2.20238 2.09115 0
M  V30 3421 H 324.211 1.12762 0.980052 0
M  V30 3422 H 326.093 0.838432 4.12975 0
M  V30 3423 H 324.768 0.043051 3.23671 0
M  V30 3424 H 323.675 2.33862 2.91992 0
M  V30 3425 H 325.008 3.06151 3.85399 0
M  V30 3426 N 326.66 -1.06551 1.16123 0
M  V30 3427 C 327.906 -1.79567 0.94252 0
M  V30 3428 C 328.239 -1.86869 -0.528547 0
M  V30 3429 O 327.514 -1.35838 -1.39206 0
M  V30 3430 C 327.797 -3.24195 1.56747 0
M  V30 3431 C 327.65 -3.24989 3.10969 0
M  V30 3432 C 328.969 -4.21678 1.25998 0
M  V30 3433 H 326.088 -0.651883 0.343828 0
M  V30 3434 H 328.73 -1.2463 1.43413 0
M  V30 3435 H 326.88 -3.71107 1.14942 0
M  V30 3436 H 328.552 -2.86258 3.61737 0
M  V30 3437 H 326.795 -2.63716 3.44436 0
M  V30 3438 H 327.466 -4.27005 3.49815 0
M  V30 3439 H 329.942 -3.83196 1.62174 0
M  V30 3440 H 328.818 -5.21146 1.7233 0
M  V30 3441 H 329.079 -4.4174 0.178367 0
M  V30 3442 N 328.138 -0.959301 -1.25041 0
M  V30 3443 C 329.415 -0.533805 -1.88175 0
M  V30 3444 C 329.795 0.988994 -1.865 0
M  V30 3445 O 329.143 1.85677 -1.33177 0
M  V30 3446 C 329.353 -1.11575 -3.30684 0
M  V30 3447 C 330.701 -1.19548 -4.07423 0
M  V30 3448 O 331.725 -1.06765 -3.39823 0
M  V30 3449 O 330.584 -1.39656 -5.28354 0
M  V30 3450 H 327.678 -0.176772 -0.807887 0
M  V30 3451 H 330.224 -1.05303 -1.33076 0
M  V30 3452 H 328.996 -2.15884 -3.26358 0
M  V30 3453 H 328.619 -0.580059 -3.93346 0
M  V30 3454 N 329.616 1.39756 -0.72842 0
M  V30 3455 C 330.549 2.28176 -0.0330172 0
M  V30 3456 C 331.527 1.44035 0.754501 0
M  V30 3457 O 332.711 1.73434 0.738445 0
M  V30 3458 C 329.838 3.24795 0.960504 0
M  V30 3459 C 328.884 4.25693 0.262264 0
M  V30 3460 S 329.717 5.25714 -1.01906 0
M  V30 3461 C 330.873 6.25894 -0.0279717 0
M  V30 3462 H 331.106 2.86807 -0.78287 0
M  V30 3463 H 328.639 1.45382 -0.519951 0
M  V30 3464 H 330.597 3.80983 1.52846 0
M  V30 3465 H 329.258 2.65196 1.68315 0
M  V30 3466 H 328.451 4.93699 1.01379 0
M  V30 3467 H 328.053 3.7327 -0.233482 0
M  V30 3468 H 330.345 6.72585 0.814621 0
M  V30 3469 H 331.288 7.04876 -0.67499 0
M  V30 3470 H 331.696 5.63466 0.341489 0
M  V30 3471 N 331.094 0.475555 1.50254 0
M  V30 3472 C 332.34 -0.0701075 2.03279 0
M  V30 3473 C 332.695 -1.37007 1.35081 0
M  V30 3474 O 331.988 -1.8577 0.469052 0
M  V30 3475 C 332.182 -0.305114 3.56095 0
M  V30 3476 C 332.011 0.970515 4.39103 0
M  V30 3477 C 330.781 1.51509 4.82051 0
M  V30 3478 C 332.979 1.8671 4.79212 0
M  V30 3479 N 330.961 2.73928 5.49397 0
M  V30 3480 C 332.332 2.93715 5.46014 0
M  V30 3481 C 334.387 1.87695 4.61167 0
M  V30 3482 C 333.09 4.01699 5.96683 0
M  V30 3483 C 335.116 2.94637 5.12779 0
M  V30 3484 C 334.478 4.00361 5.79561 0
M  V30 3485 H 330.577 0.014486 0.781866 0
M  V30 3486 H 333.161 0.644755 1.83714 0
M  V30 3487 H 331.332 -0.989019 3.75597 0
M  V30 3488 H 333.064 -0.845516 3.95769 0
M  V30 3489 H 329.819 1.06367 4.61501 0
M  V30 3490 H 330.243 3.36109 5.87673 0
M  V30 3491 H 334.885 1.07273 4.08965 0
M  V30 3492 H 332.603 4.82934 6.4792 0
M  V30 3493 H 336.189 2.96388 5.00645 0
M  V30 3494 H 335.069 4.81751 6.18778 0
M  V30 3495 N 332.573 -1.56217 0.208337 0
M  V30 3496 C 333.798 -2.02782 -0.435222 0
M  V30 3497 C 334.223 -1.08738 -1.53485 0
M  V30 3498 O 333.581 -0.0731855 -1.81152 0
M  V30 3499 C 333.629 -3.47687 -0.956335 0
M  V30 3500 O 332.733 -3.56773 -2.06849 0
M  V30 3501 H 332.074 -0.656403 -0.100158 0
M  V30 3502 H 334.604 -2.02033 0.3231 0
M  V30 3503 H 334.614 -3.87745 -1.26955 0
M  V30 3504 H 333.289 -4.15624 -0.15143 0
M  V30 3505 H 331.866 -3.28597 -1.76292 0
M  V30 3506 N 334.051 0.0651679 -1.57465 0
M  V30 3507 C 335.297 0.764193 -1.87851 0
M  V30 3508 C 335.63 1.76889 -0.801495 0
M  V30 3509 O 334.905 1.93594 0.187528 0
M  V30 3510 C 335.188 1.46625 -3.28897 0
M  V30 3511 C 335.041 0.477515 -4.47258 0
M  V30 3512 C 336.36 2.4095 -3.68281 0
M  V30 3513 H 333.479 0.276351 -0.683227 0
M  V30 3514 H 336.121 0.0272868 -1.8998 0
M  V30 3515 H 334.271 2.09438 -3.27212 0
M  V30 3516 H 335.943 -0.145922 -4.61069 0
M  V30 3517 H 334.186 -0.206576 -4.33308 0
M  V30 3518 H 334.857 1.0065 -5.42746 0
M  V30 3519 H 337.333 1.88209 -3.71102 0
M  V30 3520 H 336.209 2.87072 -4.67847 0
M  V30 3521 H 336.47 3.26049 -2.98571 0
M  V30 3522 N 335.529 1.53961 0.336706 0
M  V30 3523 C 336.777 1.71197 1.07405 0
M  V30 3524 C 337.098 0.481475 1.88962 0
M  V30 3525 O 336.368 -0.504585 1.8929 0
M  V30 3526 H 334.948 0.631185 0.399517 0
M  V30 3527 H 337.61 1.91232 0.376323 0
M  V30 3528 H 336.706 2.58587 1.74755 0
M  V30 3529 N 337.007 -0.598083 1.45811 0
M  V30 3530 C 338.256 -1.35295 1.49594 0
M  V30 3531 C 338.569 -1.95057 0.145679 0
M  V30 3532 O 339.775 -2.71431 0.0612099 0
M  V30 3533 C 338.231 -2.45124 2.63519 0
M  V30 3534 C 337.839 -1.91732 4.04899 0
M  V30 3535 C 339.583 -3.2205 2.76558 0
M  V30 3536 C 337.49 -2.991 5.1019 0
M  V30 3537 H 336.42 -0.508552 0.556679 0
M  V30 3538 H 339.071 -0.639977 1.71978 0
M  V30 3539 H 337.453 -3.19149 2.34435 0
M  V30 3540 H 338.627 -1.24352 4.43704 0
M  V30 3541 H 336.942 -1.27522 3.96393 0
M  V30 3542 H 339.539 -4.0215 3.52391 0
M  V30 3543 H 339.882 -3.73663 1.83526 0
M  V30 3544 H 340.415 -2.55127 3.05213 0
M  V30 3545 H 337.154 -2.52393 6.04961 0
M  V30 3546 H 336.674 -3.65017 4.75944 0
M  V30 3547 H 338.353 -3.63318 5.35359 0
M  V30 3548 N 338.485 -1.33259 -0.841409 0
M  V30 3549 C 339.734 -1.23921 -1.59143 0
M  V30 3550 C 340.047 0.1941 -1.94635 0
M  V30 3551 O 341.253 0.409474 -2.68394 0
M  V30 3552 C 339.709 -2.17119 -2.87032 0
M  V30 3553 C 339.317 -3.65606 -2.58914 0
M  V30 3554 C 341.061 -2.16648 -3.65053 0
M  V30 3555 C 338.968 -4.50726 -3.82884 0
M  V30 3556 H 337.898 -0.460264 -0.597221 0
M  V30 3557 H 340.549 -1.58307 -0.927959 0
M  V30 3558 H 338.931 -1.75663 -3.54906 0
M  V30 3559 H 340.105 -4.15487 -1.99267 0
M  V30 3560 H 338.42 -3.68341 -1.942 0
M  V30 3561 H 341.017 -2.77474 -4.57069 0
M  V30 3562 H 341.36 -1.16088 -3.99787 0
M  V30 3563 H 341.893 -2.56453 -3.041 0
M  V30 3564 H 338.632 -5.52151 -3.53283 0
M  V30 3565 H 338.152 -4.0559 -4.41879 0
M  V30 3566 H 339.831 -4.64401 -4.50489 0
M  V30 3567 N 339.963 1.05934 -1.16686 0
M  V30 3568 C 341.191 1.8249 -0.974929 0
M  V30 3569 C 341.606 1.82679 0.476861 0
M  V30 3570 O 340.963 1.2486 1.33103 0
M  V30 3571 C 341.014 3.28943 -1.49929 0
M  V30 3572 O 340.735 3.28886 -2.89423 0
M  V30 3573 C 342.236 4.22215 -1.35089 0
M  V30 3574 H 339.456 0.575295 -0.345365 0
M  V30 3575 H 342 1.33631 -1.548 0
M  V30 3576 H 340.155 3.751 -0.968423 0
M  V30 3577 H 340.569 4.20493 -3.13506 0
M  V30 3578 H 342.043 5.22987 -1.76603 0
M  V30 3579 H 342.52 4.38195 -0.296935 0
M  V30 3580 H 343.126 3.81907 -1.87155 0
M  V30 3581 N 341.441 0.965919 1.2453 0
M  V30 3582 C 342.671 0.643451 1.96324 0
M  V30 3583 C 343.079 -0.790927 1.71875 0
M  V30 3584 O 342.422 -1.54208 0.998273 0
M  V30 3585 C 342.484 0.836078 3.49643 0
M  V30 3586 C 342.148 2.24975 3.97788 0
M  V30 3587 C 343.145 3.22735 4.07601 0
M  V30 3588 C 340.83 2.57697 4.31158 0
M  V30 3589 C 342.824 4.51303 4.50116 0
M  V30 3590 C 340.511 3.86492 4.73357 0
M  V30 3591 C 341.509 4.83107 4.828 0
M  V30 3592 O 341.197 6.09605 5.24058 0
M  V30 3593 H 340.929 0.239223 0.632257 0
M  V30 3594 H 343.483 1.29587 1.59362 0
M  V30 3595 H 341.713 0.12649 3.86493 0
M  V30 3596 H 343.402 0.512965 4.02646 0
M  V30 3597 H 344.168 2.98783 3.82039 0
M  V30 3598 H 340.047 1.83216 4.23028 0
M  V30 3599 H 343.591 5.26716 4.57401 0
M  V30 3600 H 339.488 4.10245 4.98366 0
M  V30 3601 H 340.256 6.13146 5.42213 0
M  V30 3602 N 342.919 -1.39368 0.735821 0
M  V30 3603 C 344.168 -1.99733 0.281004 0
M  V30 3604 C 344.481 -1.59055 -1.13846 0
M  V30 3605 O 345.687 -2.12262 -1.69284 0
M  V30 3606 C 344.143 -3.57057 0.451462 0
M  V30 3607 C 343.751 -4.06697 1.87886 0
M  V30 3608 C 345.495 -4.2446 0.0584616 0
M  V30 3609 C 343.402 -5.56598 1.99883 0
M  V30 3610 H 342.332 -0.747163 0.101311 0
M  V30 3611 H 344.983 -1.59357 0.909819 0
M  V30 3612 H 343.365 -3.95234 -0.246263 0
M  V30 3613 H 344.539 -3.79853 2.60861 0
M  V30 3614 H 342.854 -3.5196 2.22515 0
M  V30 3615 H 345.451 -5.34549 0.127099 0
M  V30 3616 H 345.794 -4.04444 -0.986433 0
M  V30 3617 H 346.327 -3.9146 0.707374 0
M  V30 3618 H 343.066 -5.81494 3.02564 0
M  V30 3619 H 342.586 -5.85242 1.31346 0
M  V30 3620 H 344.265 -6.22022 1.78039 0
M  V30 3621 N 344.397 -0.483516 -1.5 0
M  V30 3622 C 345.327 0.293829 -2.31644 0
M  V30 3623 C 346.308 0.978864 -1.39112 0
M  V30 3624 O 347.493 0.973644 -1.68029 0
M  V30 3625 C 344.623 1.36897 -3.19181 0
M  V30 3626 C 343.577 0.804833 -4.20365 0
M  V30 3627 C 342.903 1.9792 -4.96721 0
M  V30 3628 C 344.203 -0.192313 -5.21946 0
M  V30 3629 H 345.897 -0.387616 -2.9688 0
M  V30 3630 H 343.443 -0.187856 -1.42769 0
M  V30 3631 H 345.396 1.92037 -3.751 0
M  V30 3632 H 344.12 2.07936 -2.51853 0
M  V30 3633 H 342.779 0.275319 -3.65565 0
M  V30 3634 H 342.427 2.67686 -4.25856 0
M  V30 3635 H 342.127 1.60789 -5.65173 0
M  V30 3636 H 343.651 2.53526 -5.55479 0
M  V30 3637 H 345.065 0.270333 -5.72662 0
M  V30 3638 H 343.462 -0.478543 -5.98189 0
M  V30 3639 H 344.532 -1.11409 -4.71928 0
M  V30 3640 N 345.875 1.56104 -0.216619 0
M  V30 3641 C 346.805 2.23063 0.690296 0
M  V30 3642 C 347.786 1.20072 1.20485 0
M  V30 3643 O 348.971 1.48643 1.24976 0
M  V30 3644 C 346.101 2.90672 1.90072 0
M  V30 3645 C 345.055 4.00092 1.5202 0
M  V30 3646 C 344.381 4.54972 2.80899 0
M  V30 3647 C 345.681 5.17398 0.71391 0
M  V30 3648 H 347.375 2.99109 0.132038 0
M  V30 3649 H 344.921 1.43866 0.0620664 0
M  V30 3650 H 346.874 3.36204 2.54057 0
M  V30 3651 H 345.598 2.12066 2.48386 0
M  V30 3652 H 344.257 3.55283 0.903839 0
M  V30 3653 H 343.905 3.73102 3.37348 0
M  V30 3654 H 343.605 5.28817 2.56176 0
M  V30 3655 H 345.129 5.0322 3.45836 0
M  V30 3656 H 346.543 5.59342 1.25735 0
M  V30 3657 H 344.94 5.97444 0.563951 0
M  V30 3658 H 346.01 4.84088 -0.280527 0
M  V30 3659 N 347.353 -0.0568162 1.57498 0
M  V30 3660 C 348.593 -0.758273 1.89815 0
M  V30 3661 C 348.957 -1.73978 0.812132 0
M  V30 3662 O 350.158 -2.48744 1.01881 0
M  V30 3663 C 348.429 -1.43465 3.27342 0
M  V30 3664 S 349.988 -2.1691 3.81439 0
M  V30 3665 H 346.806 -0.251836 0.664906 0
M  V30 3666 H 349.408 -0.0137997 1.95495 0
M  V30 3667 H 348.112 -0.706693 4.0427 0
M  V30 3668 H 347.643 -2.21825 3.24896 0
M  V30 3669 H 349.658 -3.43658 3.5793 0
M  V30 3670 N 348.832 -1.54138 -0.328536 0
M  V30 3671 C 350.08 -1.71765 -1.06496 0
M  V30 3672 C 350.401 -0.49149 -1.88704 0
M  V30 3673 O 349.671 0.494539 -1.89555 0
M  V30 3674 H 348.251 -0.633295 -0.396164 0
M  V30 3675 H 350.913 -1.91429 -0.366176 0
M  V30 3676 H 350.009 -2.5951 -1.73381 0
M  V30 3677 N 350.31 0.590341 -1.46126 0
M  V30 3678 C 351.557 1.34882 -1.5104 0
M  V30 3679 C 351.885 1.93849 -0.159021 0
M  V30 3680 O 351.14 1.76544 0.844436 0
M  V30 3681 C 351.439 2.5032 -2.55097 0
M  V30 3682 C 351.105 2.09394 -3.99331 0
M  V30 3683 C 349.767 1.97947 -4.38601 0
M  V30 3684 C 352.119 1.77712 -4.89967 0
M  V30 3685 C 349.447 1.53065 -5.66381 0
M  V30 3686 C 351.799 1.34312 -6.18177 0
M  V30 3687 C 350.463 1.21436 -6.56361 0
M  V30 3688 H 349.733 0.493568 -0.552695 0
M  V30 3689 H 352.38 0.665539 -1.79563 0
M  V30 3690 H 350.685 3.24062 -2.20207 0
M  V30 3691 H 352.382 3.08541 -2.56132 0
M  V30 3692 H 348.972 2.19235 -3.68285 0
M  V30 3693 H 353.156 1.85445 -4.60352 0
M  V30 3694 H 348.412 1.41733 -5.94745 0
M  V30 3695 H 352.586 1.08849 -6.87841 0
M  V30 3696 H 350.213 0.864345 -7.5527 0
M  V30 3697 N 351.788 1.33704 0.83433 0
M  V30 3698 C 352.698 1.26382 1.97648 0
M  V30 3699 C 353.714 0.173548 1.73132 0
M  V30 3700 O 354.89 0.397962 1.97429 0
M  V30 3701 C 351.955 1.00769 3.31733 0
M  V30 3702 C 351.016 2.1884 3.69334 0
M  V30 3703 C 350.249 1.9444 4.9702 0
M  V30 3704 O 350.472 0.896961 5.63303 0
M  V30 3705 O 349.406 2.81093 5.32231 0
M  V30 3706 H 353.232 2.22444 2.06767 0
M  V30 3707 H 350.817 1.13795 0.968037 0
M  V30 3708 H 352.699 0.882186 4.12062 0
M  V30 3709 H 351.374 0.0773783 3.23608 0
M  V30 3710 H 350.281 2.36946 2.89495 0
M  V30 3711 H 351.614 3.10221 3.82131 0
M  V30 3712 N 353.266 -1.05314 1.17247 0
M  V30 3713 C 354.677 -1.59753 0.96623 0
M  V30 3714 C 355.028 -1.9005 -0.487378 0
M  V30 3715 O 354.153 -1.68126 -1.36245 0
M  V30 3716 C 354.748 -2.90249 1.74759 0
M  V30 3717 C 353.307 -3.41352 1.58606 0
M  V30 3718 C 352.454 -2.15103 1.75002 0
M  V30 3719 H 355.405 -0.881406 1.31973 0
M  V30 3720 H 355.426 -3.60097 1.22925 0
M  V30 3721 H 354.938 -2.68166 2.8055 0
M  V30 3722 H 353.039 -3.68474 0.552985 0
M  V30 3723 H 353.152 -4.16019 2.37624 0
M  V30 3724 H 351.516 -2.25804 1.17833 0
M  V30 3725 H 352.299 -1.95491 2.82202 0
M  V30 3726 N 354.744 -0.972509 -1.24016 0
M  V30 3727 C 355.991 -0.637034 -1.92219 0
M  V30 3728 C 356.319 0.828418 -1.75976 0
M  V30 3729 O 355.574 1.61206 -1.10955 0
M  V30 3730 C 355.873 -0.963694 -3.44162 0
M  V30 3731 C 355.539 -2.41807 -3.80579 0
M  V30 3732 C 354.201 -2.81556 -3.9023 0
M  V30 3733 C 356.553 -3.36172 -3.98293 0
M  V30 3734 C 353.881 -4.14702 -4.15017 0
M  V30 3735 C 356.233 -4.68952 -4.24578 0
M  V30 3736 C 354.897 -5.08472 -4.32449 0
M  V30 3737 H 354.167 -0.233107 -0.703379 0
M  V30 3738 H 356.814 -1.2249 -1.47202 0
M  V30 3739 H 355.119 -0.29365 -3.90698 0
M  V30 3740 H 356.816 -0.682449 -3.9515 0
M  V30 3741 H 353.406 -2.09988 -3.73635 0
M  V30 3742 H 357.59 -3.06644 -3.90234 0
M  V30 3743 H 352.846 -4.4494 -4.19331 0
M  V30 3744 H 357.02 -5.42037 -4.37229 0
M  V30 3745 H 354.647 -6.11665 -4.51409 0
M  V30 3746 N 356.222 1.38976 -0.743202 0
M  V30 3747 C 357.452 2.04339 -0.304807 0
M  V30 3748 C 357.86 1.56162 1.06819 0
M  V30 3749 O 357.203 0.725284 1.68776 0
M  V30 3750 C 357.265 3.58716 -0.237369 0
M  V30 3751 C 356.929 4.29905 -1.55018 0
M  V30 3752 C 357.926 4.55987 -2.49744 0
M  V30 3753 C 355.611 4.68294 -1.81675 0
M  V30 3754 C 357.605 5.19478 -3.69353 0
M  V30 3755 C 355.292 5.31512 -3.0156 0
M  V30 3756 C 356.29 5.57037 -3.9522 0
M  V30 3757 O 355.978 6.18941 -5.12998 0
M  V30 3758 H 355.71 0.663439 -0.12971 0
M  V30 3759 H 358.264 1.78852 -1.01001 0
M  V30 3760 H 356.494 3.83133 0.524003 0
M  V30 3761 H 358.183 4.05543 0.170121 0
M  V30 3762 H 358.949 4.26767 -2.30423 0
M  V30 3763 H 354.828 4.47779 -1.09615 0
M  V30 3764 H 358.372 5.39318 -4.42473 0
M  V30 3765 H 354.269 5.60153 -3.20778 0
M  V30 3766 H 355.037 6.37433 -5.13441 0
M  V30 3767 N 357.7 0.491464 1.49741 0
M  V30 3768 C 358.977 -0.118984 1.95238 0
M  V30 3769 C 359.357 -1.55044 1.43264 0
M  V30 3770 O 358.705 -2.19287 0.642287 0
M  V30 3771 C 358.915 -0.0414187 3.48975 0
M  V30 3772 C 360.263 -0.220133 4.24029 0
M  V30 3773 O 361.287 -0.117055 3.56008 0
M  V30 3774 O 360.146 -0.430567 5.44801 0
M  V30 3775 H 357.24 -0.100536 0.820866 0
M  V30 3776 H 359.786 0.553322 1.60426 0
M  V30 3777 H 358.558 0.957214 3.79412 0
M  V30 3778 H 358.181 -0.754292 3.9038 0
M  V30 3779 N 359.178 -1.55987 0.224894 0
M  V30 3780 C 360.088 -2.24066 -0.69511 0
M  V30 3781 C 361.104 -1.24939 -1.21104 0
M  V30 3782 O 362.28 -1.5776 -1.25195 0
M  V30 3783 C 359.345 -2.90983 -1.88493 0
M  V30 3784 C 358.406 -4.05462 -1.41064 0
M  V30 3785 C 357.639 -4.69179 -2.54375 0
M  V30 3786 O 357.862 -4.31895 -3.72589 0
M  V30 3787 O 356.796 -5.58108 -2.25386 0
M  V30 3788 H 360.622 -3.03353 -0.145149 0
M  V30 3789 H 358.207 -1.49399 -0.00569476 0
M  V30 3790 H 360.089 -3.33209 -2.57972 0
M  V30 3791 H 358.764 -2.14653 -2.42293 0
M  V30 3792 H 357.671 -3.67798 -0.683774 0
M  V30 3793 H 359.004 -4.83545 -0.918985 0
M  V30 3794 N 360.656 0.0484629 -1.57525 0
M  V30 3795 C 362.072 0.40375 -1.54409 0
M  V30 3796 C 362.272 1.77786 -0.948384 0
M  V30 3797 O 361.328 2.46189 -0.560983 0
M  V30 3798 C 362.641 0.323394 -2.98956 0
M  V30 3799 C 364.189 0.401892 -3.10409 0
M  V30 3800 C 364.664 0.351195 -4.56652 0
M  V30 3801 N 366.155 0.410576 -4.61377 0
M  V30 3802 C 366.89 0.393933 -5.72045 0
M  V30 3803 N 366.386 0.330724 -6.9201 0
M  V30 3804 N 368.179 0.442227 -5.60358 0
M  V30 3805 H 360.33 -0.851016 -1.94606 0
M  V30 3806 H 362.593 -0.321721 -0.89174 0
M  V30 3807 H 362.299 -0.62011 -3.4619 0
M  V30 3808 H 362.173 1.12463 -3.60044 0
M  V30 3809 H 364.56 1.33582 -2.63134 0
M  V30 3810 H 364.641 -0.428342 -2.52188 0
M  V30 3811 H 364.285 -0.578987 -5.04589 0
M  V30 3812 H 364.215 1.19928 -5.12762 0
M  V30 3813 H 366.706 0.462729 -3.75056 0
M  V30 3814 H 367.019 0.322592 -7.72126 0
M  V30 3815 H 365.364 0.29706 -6.94365 0
M  V30 3816 H 368.555 0.489464 -4.65534 0
M  V30 3817 H 368.728 0.425788 -6.466 0
M  V30 3818 N 362.134 1.5431 0.320358 0
M  V30 3819 C 363.382 1.72327 1.05583 0
M  V30 3820 C 363.703 0.50149 1.88441 0
M  V30 3821 O 362.973 -0.48448 1.89815 0
M  V30 3822 H 361.553 0.635387 0.3928 0
M  V30 3823 H 364.215 1.91621 0.356019 0
M  V30 3824 H 363.311 2.60426 1.72003 0
M  V30 3825 N 363.613 -0.582584 1.46437 0
M  V30 3826 C 364.89 -1.34276 1.4223 0
M  V30 3827 C 365.27 -2.10835 0.10583 0
M  V30 3828 O 364.618 -2.09485 -0.912596 0
M  V30 3829 C 364.828 -2.26865 2.65204 0
M  V30 3830 C 366.176 -2.88691 3.11356 0
M  V30 3831 O 367.2 -2.37178 2.65753 0
M  V30 3832 O 366.059 -3.82255 3.90568 0
M  V30 3833 H 363.153 -0.603326 0.565621 0
M  V30 3834 H 365.699 -0.603591 1.58603 0
M  V30 3835 H 364.471 -1.69724 3.52576 0
M  V30 3836 H 364.094 -3.08122 2.5129 0
M  V30 3837 N 365.091 -1.34144 -0.827227 0
M  V30 3838 C 366.023 -1.21206 -1.9453 0
M  V30 3839 C 367.036 -0.140176 -1.62195 0
M  V30 3840 O 368.225 -0.391647 -1.7415 0
M  V30 3841 C 365.325 -0.839141 -3.28347 0
M  V30 3842 C 364.498 -2.0051 -3.88734 0
M  V30 3843 C 363.557 -1.61128 -5.00923 0
M  V30 3844 O 362.583 -2.32726 -5.19449 0
M  V30 3845 N 363.785 -0.522958 -5.7814 0
M  V30 3846 H 366.55 -2.17525 -2.06162 0
M  V30 3847 H 364.111 -1.27043 -1.00358 0
M  V30 3848 H 366.103 -0.557556 -4.00841 0
M  V30 3849 H 364.673 0.0337293 -3.12582 0
M  V30 3850 H 363.893 -2.45166 -3.08686 0
M  V30 3851 H 365.181 -2.78498 -4.25812 0
M  V30 3852 H 364.579 0.0723518 -5.65654 0
M  V30 3853 H 363.136 -0.301089 -6.51104 0
M  V30 3854 N 366.569 1.04691 -1.17803 0
M  V30 3855 C 367.816 1.77782 -0.969532 0
M  V30 3856 C 368.144 1.87926 0.501401 0
M  V30 3857 O 367.399 1.37918 1.38842 0
M  V30 3858 C 367.698 3.21467 -1.56186 0
M  V30 3859 C 367.364 3.3137 -3.05786 0
M  V30 3860 C 366.026 3.3378 -3.46619 0
M  V30 3861 C 368.378 3.31976 -4.01797 0
M  V30 3862 C 365.706 3.34431 -4.82051 0
M  V30 3863 C 368.058 3.34167 -5.37136 0
M  V30 3864 C 366.722 3.34866 -5.77426 0
M  V30 3865 H 365.992 0.650549 -0.354777 0
M  V30 3866 H 368.639 1.23006 -1.46772 0
M  V30 3867 H 366.944 3.79203 -0.985515 0
M  V30 3868 H 368.641 3.76652 -1.37602 0
M  V30 3869 H 365.231 3.3021 -2.73238 0
M  V30 3870 H 369.415 3.29311 -3.71306 0
M  V30 3871 H 364.671 3.33285 -5.12573 0
M  V30 3872 H 368.845 3.33585 -6.11305 0
M  V30 3873 H 366.472 3.35124 -6.82346 0
M  V30 3874 N 368.047 0.979072 1.23499 0
M  V30 3875 C 368.98 0.463027 2.23453 0
M  V30 3876 C 369.958 -0.469128 1.55685 0
M  V30 3877 O 371.142 -0.397882 1.84253 0
M  V30 3878 C 368.269 -0.330308 3.37086 0
M  V30 3879 C 367.315 0.545795 4.22993 0
M  V30 3880 S 368.148 1.99285 4.97037 0
M  V30 3881 C 369.304 1.20862 6.1412 0
M  V30 3882 H 369.537 1.31005 2.6688 0
M  V30 3883 H 367.07 0.784965 1.32957 0
M  V30 3884 H 369.028 -0.782027 4.02982 0
M  V30 3885 H 367.689 -1.15244 2.92194 0
M  V30 3886 H 366.882 -0.0638928 5.03959 0
M  V30 3887 H 366.484 0.933705 3.62157 0
M  V30 3888 H 368.776 0.469284 6.75873 0
M  V30 3889 H 369.719 1.99307 6.79472 0
M  V30 3890 H 370.127 0.727992 5.59786 0
M  V30 3891 N 369.525 -1.3858 0.750561 0
M  V30 3892 C 370.772 -2.00184 0.305373 0
M  V30 3893 C 371.1 -1.59575 -1.11203 0
M  V30 3894 O 370.355 -0.823236 -1.77542 0
M  V30 3895 C 370.654 -3.55455 0.372373 0
M  V30 3896 C 370.32 -4.15765 1.745 0
M  V30 3897 C 368.982 -4.31951 2.12065 0
M  V30 3898 C 371.334 -4.49067 2.64553 0
M  V30 3899 C 368.662 -4.78734 3.39162 0
M  V30 3900 C 371.014 -4.97265 3.91038 0
M  V30 3901 C 369.678 -5.11658 4.28676 0
M  V30 3902 H 368.948 -0.732526 0.111744 0
M  V30 3903 H 371.595 -1.65673 0.960451 0
M  V30 3904 H 369.9 -3.90084 -0.366272 0
M  V30 3905 H 371.597 -4.00999 0.00953918 0
M  V30 3906 H 368.187 -4.03579 1.44297 0
M  V30 3907 H 372.371 -4.36166 2.36796 0
M  V30 3908 H 367.627 -4.88062 3.68246 0
M  V30 3909 H 371.801 -5.22003 4.60962 0
M  V30 3910 H 369.428 -5.47668 5.27222 0
M  V30 3911 N 371.003 -0.499398 -1.49478 0
M  V30 3912 C 372.419 -0.155261 -1.58843 0
M  V30 3913 C 372.619 1.34008 -1.50479 0
M  V30 3914 O 371.675 2.11589 -1.37791 0
M  V30 3915 C 372.988 -0.730636 -2.91689 0
M  V30 3916 C 374.536 -0.696599 -3.0515 0
M  V30 3917 C 375.011 -1.25001 -4.40612 0
M  V30 3918 N 376.502 -1.21064 -4.47099 0
M  V30 3919 C 377.237 -1.60905 -5.50361 0
M  V30 3920 N 376.733 -2.08331 -6.60735 0
M  V30 3921 N 378.526 -1.52331 -5.41065 0
M  V30 3922 H 370.677 -1.47162 -1.53158 0
M  V30 3923 H 372.94 -0.610309 -0.725415 0
M  V30 3924 H 372.646 -1.77928 -3.03372 0
M  V30 3925 H 372.52 -0.190161 -3.7672 0
M  V30 3926 H 374.907 0.343204 -2.93097 0
M  V30 3927 H 374.988 -1.2742 -2.21806 0
M  V30 3928 H 374.632 -2.28859 -4.53416 0
M  V30 3929 H 374.562 -0.64836 -5.22593 0
M  V30 3930 H 377.053 -0.863128 -3.67911 0
M  V30 3931 H 377.366 -2.36805 -7.35624 0
M  V30 3932 H 375.711 -2.12304 -6.6178 0
M  V30 3933 H 378.902 -1.151 -4.53729 0
M  V30 3934 H 379.075 -1.83704 -6.21415 0
M  V30 3935 N 372.481 1.55866 -0.233164 0
M  V30 3936 C 373.897 1.59133 0.121988 0
M  V30 3937 C 374.097 1.25016 1.58029 0
M  V30 3938 O 373.153 0.990922 2.32243 0
M  V30 3939 C 374.466 2.99932 -0.214792 0
M  V30 3940 C 376.014 3.12601 -0.157971 0
M  V30 3941 C 376.489 4.55597 -0.46859 0
M  V30 3942 N 377.98 4.61305 -0.418585 0
M  V30 3943 C 378.715 5.69903 -0.63227 0
M  V30 3944 N 378.211 6.86819 -0.90835 0
M  V30 3945 N 380.004 5.59264 -0.563913 0
M  V30 3946 H 372.155 1.76315 -1.18434 0
M  V30 3947 H 374.418 0.820093 -0.475553 0
M  V30 3948 H 374.124 3.29588 -1.22739 0
M  V30 3949 H 373.998 3.74327 0.464691 0
M  V30 3950 H 376.385 2.82735 0.845283 0
M  V30 3951 H 376.466 2.40511 -0.871102 0
M  V30 3952 H 376.11 4.86182 -1.46934 0
M  V30 3953 H 376.04 5.25928 0.265865 0
M  V30 3954 H 378.531 3.77297 -0.213368 0
M  V30 3955 H 378.844 7.65507 -1.05919 0
M  V30 3956 H 377.189 6.88536 -0.945673 0
M  V30 3957 H 380.38 4.66802 -0.348372 0
M  V30 3958 H 380.553 6.43831 -0.733847 0
M  V30 3959 N 373.959 -0.0401083 1.57549 0
M  V30 3960 C 375.208 -0.732108 1.87944 0
M  V30 3961 C 375.521 -1.77107 0.830206 0
M  V30 3962 O 376.727 -2.51488 1.02302 0
M  V30 3963 C 375.183 -1.35315 3.33494 0
M  V30 3964 C 374.791 -0.351105 4.46622 0
M  V30 3965 C 376.535 -2.02566 3.73051 0
M  V30 3966 C 374.442 -0.979859 5.83226 0
M  V30 3967 H 373.372 -0.277188 0.701201 0
M  V30 3968 H 376.023 0.0138501 1.83495 0
M  V30 3969 H 374.405 -2.14844 3.32653 0
M  V30 3970 H 375.579 0.416674 4.58912 0
M  V30 3971 H 373.894 0.218708 4.15825 0
M  V30 3972 H 376.491 -2.50441 4.72423 0
M  V30 3973 H 376.834 -2.83904 3.04474 0
M  V30 3974 H 377.367 -1.29827 3.76018 0
M  V30 3975 H 374.106 -0.206135 6.55176 0
M  V30 3976 H 373.626 -1.71774 5.74677 0
M  V30 3977 H 375.305 -1.49046 6.29599 0
M  V30 3978 N 375.437 -1.54477 -0.31217 0
M  V30 3979 C 376.367 -1.87652 -1.38957 0
M  V30 3980 C 377.348 -0.734358 -1.53431 0
M  V30 3981 O 378.533 -0.98911 -1.67123 0
M  V30 3982 C 375.663 -2.11396 -2.75552 0
M  V30 3983 C 374.617 -3.27243 -2.75855 0
M  V30 3984 C 373.943 -3.36382 -4.15633 0
M  V30 3985 C 375.243 -4.64622 -2.38587 0
M  V30 3986 H 376.937 -2.77887 -1.11442 0
M  V30 3987 H 374.483 -1.33707 -0.534655 0
M  V30 3988 H 376.436 -2.33189 -3.51 0
M  V30 3989 H 375.16 -1.17921 -3.04569 0
M  V30 3990 H 373.819 -3.05356 -2.02863 0
M  V30 3991 H 373.467 -2.40445 -4.41809 0
M  V30 3992 H 373.167 -4.14249 -4.1674 0
M  V30 3993 H 374.691 -3.60422 -4.92877 0
M  V30 3994 H 376.105 -4.86219 -3.03749 0
M  V30 3995 H 374.502 -5.45121 -2.50925 0
M  V30 3996 H 375.572 -4.66097 -1.33723 0
M  V30 3997 N 376.915 0.57481 -1.46744 0
M  V30 3998 C 377.863 1.70435 -1.58286 0
M  V30 3999 C 378.857 1.63287 -0.450956 0
M  V30 4000 O 380.063 1.68685 -0.628121 0
M  V30 4001 H 376.438 0.56364 -0.497809 0
M  V30 4002 H 378.409 1.57833 -2.53242 0
M  V30 4003 C 377.158 3.08815 -1.59776 0
M  V30 4004 H 376.481 3.1499 -2.46214 0
M  V30 4005 H 377.921 3.87588 -1.71905 0
M  V30 4006 C 376.38 3.35301 -0.327812 0
M  V30 4007 O 376.91 3.97511 0.57861 0
M  V30 4008 N 375.116 2.89816 -0.213274 0
M  V30 4009 H 374.663 2.39371 -0.951798 0
M  V30 4010 H 374.621 3.0791 0.63553 0
M  V30 4011 N 378.394 1.34581 0.820102 0
M  V30 4012 C 379.634 1.28448 1.58998 0
M  V30 4013 C 379.998 -0.142883 1.91468 0
M  V30 4014 O 381.199 -0.328422 2.66786 0
M  V30 4015 C 379.47 2.153 2.85273 0
M  V30 4016 S 381.029 2.26548 3.75794 0
M  V30 4017 H 377.847 0.456685 0.54494 0
M  V30 4018 H 380.449 1.69825 0.968487 0
M  V30 4019 H 379.153 3.18008 2.59421 0
M  V30 4020 H 378.684 1.7483 3.52417 0
M  V30 4021 H 380.699 1.44034 4.74835 0
M  V30 4022 N 379.872 -1.04064 1.18357 0
M  V30 4023 C 380.782 -2.15569 0.925596 0
M  V30 4024 C 381.798 -1.7365 -0.110295 0
M  V30 4025 O 382.974 -2.01273 0.0716218 0
M  V30 4026 C 380.039 -3.43704 0.454836 0
M  V30 4027 C 379.1 -4.00004 1.55869 0
M  V30 4028 C 378.333 -5.22023 1.1103 0
M  V30 4029 O 378.556 -5.70392 -0.0309756 0
M  V30 4030 O 377.49 -5.70856 1.90805 0
M  V30 4031 H 381.316 -2.40187 1.8586 0
M  V30 4032 H 378.901 -1.1402 0.965394 0
M  V30 4033 H 380.783 -4.20923 0.200382 0
M  V30 4034 H 379.458 -3.20559 -0.449876 0
M  V30 4035 H 378.365 -3.24172 1.86716 0
M  V30 4036 H 379.698 -4.2749 2.43953 0
M  V30 4037 N 381.35 -0.985608 -1.22978 0
M  V30 4038 C 382.58 -0.674603 -1.95276 0
M  V30 4039 C 382.988 0.763483 -1.73111 0
M  V30 4040 O 382.331 1.52601 -1.02268 0
M  V30 4041 C 382.393 -0.891597 -3.48268 0
M  V30 4042 C 382.057 -2.31275 -3.94158 0
M  V30 4043 C 383.054 -3.29179 -4.02415 0
M  V30 4044 C 380.739 -2.64524 -4.27004 0
M  V30 4045 C 382.733 -4.58407 -4.42879 0
M  V30 4046 C 380.42 -3.93974 -4.67149 0
M  V30 4047 C 381.418 -4.90727 -4.75053 0
M  V30 4048 O 381.106 -6.17865 -5.14294 0
M  V30 4049 H 380.838 -0.249251 -0.628371 0
M  V30 4050 H 383.392 -1.32106 -1.5728 0
M  V30 4051 H 381.622 -0.187962 -3.86243 0
M  V30 4052 H 383.311 -0.576957 -4.01779 0
M  V30 4053 H 384.077 -3.04823 -3.77237 0
M  V30 4054 H 379.956 -1.89923 -4.2006 0
M  V30 4055 H 383.5 -5.33926 -4.48964 0
M  V30 4056 H 379.397 -4.18122 -4.91777 0
M  V30 4057 H 380.165 -6.21694 -5.32389 0
M  V30 4058 N 382.828 1.3818 -0.7579 0
M  V30 4059 C 384.058 2.04004 -0.326463 0
M  V30 4060 C 384.466 1.57286 1.05156 0
M  V30 4061 O 383.809 0.743144 1.67997 0
M  V30 4062 C 383.871 3.58444 -0.275402 0
M  V30 4063 C 383.535 4.28237 -1.59569 0
M  V30 4064 C 384.532 4.53312 -2.54566 0
M  V30 4065 C 382.217 4.66341 -1.86631 0
M  V30 4066 C 384.211 5.15531 -3.74842 0
M  V30 4067 C 381.898 5.28283 -3.0718 0
M  V30 4068 C 382.896 5.52814 -4.01106 0
M  V30 4069 O 382.584 6.13465 -5.19534 0
M  V30 4070 H 382.316 0.662026 -0.136739 0
M  V30 4071 H 384.87 1.7777 -1.02893 0
M  V30 4072 H 383.1 3.83667 0.483337 0
M  V30 4073 H 384.789 4.05701 0.127099 0
M  V30 4074 H 385.555 4.24299 -2.34936 0
M  V30 4075 H 381.434 4.46591 -1.14358 0
M  V30 4076 H 384.978 5.34594 -4.48168 0
M  V30 4077 H 380.875 5.56719 -3.26702 0
M  V30 4078 H 381.643 6.31951 -5.20173 0
M  V30 4079 N 384.306 0.507319 1.49211 0
M  V30 4080 C 385.553 -0.0349529 2.0247 0
M  V30 4081 C 385.881 -1.36409 1.38647 0
M  V30 4082 O 385.136 -1.88841 0.513566 0
M  V30 4083 C 385.435 -0.229513 3.56662 0
M  V30 4084 C 385.101 1.02241 4.39156 0
M  V30 4085 C 383.763 1.36557 4.61417 0
M  V30 4086 C 386.115 1.85428 4.871 0
M  V30 4087 C 383.443 2.53999 5.28868 0
M  V30 4088 C 385.795 3.02028 5.55843 0
M  V30 4089 C 384.459 3.36717 5.76349 0
M  V30 4090 H 383.729 -0.0127902 0.74089 0
M  V30 4091 H 386.376 0.668756 1.79443 0
M  V30 4092 H 384.681 -1.0158 3.78403 0
M  V30 4093 H 386.378 -0.663641 3.9547 0
M  V30 4094 H 382.968 0.745124 4.22073 0
M  V30 4095 H 387.152 1.6023 4.69723 0
M  V30 4096 H 382.408 2.81105 5.42946 0
M  V30 4097 H 386.582 3.66808 5.91967 0
M  V30 4098 H 384.209 4.27821 6.28389 0
M  V30 4099 N 385.784 -1.5574 0.241426 0
M  V30 4100 C 387.033 -1.97986 -0.385295 0
M  V30 4101 C 387.346 -1.13267 -1.59468 0
M  V30 4102 O 388.552 -1.45501 -2.2922 0
M  V30 4103 C 387.008 -3.52275 -0.736884 0
M  V30 4104 C 386.616 -4.45726 0.450796 0
M  V30 4105 C 388.36 -4.03189 -1.3281 0
M  V30 4106 C 386.267 -5.91352 0.0756662 0
M  V30 4107 H 385.197 -0.739386 -0.147731 0
M  V30 4108 H 387.848 -1.80308 0.340779 0
M  V30 4109 H 386.23 -3.65628 -1.52094 0
M  V30 4110 H 387.404 -4.44131 1.22819 0
M  V30 4111 H 385.719 -4.05264 0.956573 0
M  V30 4112 H 388.316 -5.09505 -1.62201 0
M  V30 4113 H 388.659 -3.50212 -2.25071 0
M  V30 4114 H 389.192 -3.93141 -0.607069 0
M  V30 4115 H 385.931 -6.48354 0.965272 0
M  V30 4116 H 385.451 -5.96095 -0.665635 0
M  V30 4117 H 387.13 -6.46084 -0.344075 0
M  V30 4118 N 387.262 0.0317525 -1.57568 0
M  V30 4119 C 388.487 0.738664 -1.938 0
M  V30 4120 C 388.912 1.68242 -0.841208 0
M  V30 4121 O 388.27 1.80157 0.203267 0
M  V30 4122 C 388.318 1.47417 -3.29091 0
M  V30 4123 O 387.422 2.5872 -3.2115 0
M  V30 4124 H 386.763 0.198856 -0.633524 0
M  V30 4125 H 389.293 -0.0119713 -2.04596 0
M  V30 4126 H 389.303 1.84468 -3.63917 0
M  V30 4127 H 387.978 0.781988 -4.08482 0
M  V30 4128 H 386.555 2.24231 -2.97951 0
M  V30 4129 N 388.74 1.54641 0.303973 0
M  V30 4130 C 390.151 1.64811 0.877163 0
M  V30 4131 C 390.502 0.554838 1.88191 0
M  V30 4132 O 389.627 -0.309033 2.14182 0
M  V30 4133 C 390.222 2.9876 1.59775 0
M  V30 4134 C 388.781 3.11061 2.11938 0
M  V30 4135 C 387.928 2.60479 0.951097 0
M  V30 4136 H 390.879 1.58493 0.0810486 0
M  V30 4137 H 390.9 2.90017 2.46314 0
M  V30 4138 H 390.412 3.7831 0.866226 0
M  V30 4139 H 388.513 2.36225 2.88146 0
M  V30 4140 H 388.626 4.17171 2.35595 0
M  V30 4141 H 386.99 2.16859 1.33583 0
M  V30 4142 H 387.773 3.42504 0.233581 0
M  V30 4143 N 390.218 -0.567019 1.47046 0
M  V30 4144 C 391.464 -1.32434 1.54379 0
M  V30 4145 C 391.819 -1.91365 0.199276 0
M  V30 4146 O 391.112 -1.74378 -0.793915 0
M  V30 4147 C 391.306 -2.4623 2.59047 0
M  V30 4148 C 391.135 -1.98448 4.03545 0
M  V30 4149 C 389.905 -1.82741 4.71098 0
M  V30 4150 C 392.103 -1.53477 4.90866 0
M  V30 4151 N 390.085 -1.29196 6.00151 0
M  V30 4152 C 391.456 -1.1163 6.09868 0
M  V30 4153 C 393.511 -1.41438 4.77388 0
M  V30 4154 C 392.214 -0.589425 7.16881 0
M  V30 4155 C 394.24 -0.901528 5.84488 0
M  V30 4156 C 393.602 -0.492932 7.02673 0
M  V30 4157 H 389.701 -0.477005 0.61967 0
M  V30 4158 H 392.285 -0.643856 1.83746 0
M  V30 4159 H 390.456 -3.11821 2.31564 0
M  V30 4160 H 392.188 -3.13213 2.56281 0
M  V30 4161 H 388.943 -2.05162 4.26855 0
M  V30 4162 H 389.367 -1.0454 6.6888 0
M  V30 4163 H 394.009 -1.71643 3.86392 0
M  V30 4164 H 391.727 -0.274994 8.07632 0
M  V30 4165 H 395.313 -0.812071 5.76105 0
M  V30 4166 H 394.193 -0.102227 7.84133 0
M  V30 4167 N 391.696 -1.35014 -0.812953 0
M  V30 4168 C 392.942 -1.29129 -1.57154 0
M  V30 4169 C 393.297 0.134922 -1.91926 0
M  V30 4170 O 392.59 1.08373 -1.58006 0
M  V30 4171 C 392.784 -2.12524 -2.87347 0
M  V30 4172 C 392.613 -3.6311 -2.65294 0
M  V30 4173 C 391.383 -4.32363 -2.61516 0
M  V30 4174 C 393.581 -4.56897 -2.36114 0
M  V30 4175 N 391.563 -5.68735 -2.31113 0
M  V30 4176 C 392.934 -5.81345 -2.15494 0
M  V30 4177 C 394.989 -4.45706 -2.21925 0
M  V30 4178 C 393.692 -6.95862 -1.82122 0
M  V30 4179 C 395.718 -5.60066 -1.89948 0
M  V30 4180 C 395.08 -6.83539 -1.7016 0
M  V30 4181 H 391.179 -0.527764 -0.577052 0
M  V30 4182 H 393.763 -1.6983 -0.952146 0
M  V30 4183 H 391.934 -1.74104 -3.47192 0
M  V30 4184 H 393.666 -1.98207 -3.5284 0
M  V30 4185 H 390.421 -3.84907 -2.75941 0
M  V30 4186 H 390.845 -6.40694 -2.18724 0
M  V30 4187 H 395.487 -3.50855 -2.35925 0
M  V30 4188 H 393.205 -7.90685 -1.6686 0
M  V30 4189 H 396.791 -5.53357 -1.79687 0
M  V30 4190 H 395.671 -7.70531 -1.45777 0
M  V30 4191 N 393.175 1.03435 -1.18907 0
M  V30 4192 C 394.452 1.73778 -0.89781 0
M  V30 4193 C 394.832 2.02458 0.597832 0
M  V30 4194 O 394.18 1.67482 1.55441 0
M  V30 4195 C 394.39 3.01845 -1.75187 0
M  V30 4196 C 395.738 3.7546 -1.9828 0
M  V30 4197 O 396.762 3.11759 -1.72293 0
M  V30 4198 O 395.621 4.89966 -2.42065 0
M  V30 4199 H 392.715 0.75651 -0.334098 0
M  V30 4200 H 395.261 1.09444 -1.29693 0
M  V30 4201 H 394.033 2.76836 -2.76545 0
M  V30 4202 H 393.656 3.73919 -1.35167 0
M  V30 4203 N 394.653 0.992116 1.22453 0
M  V30 4204 C 395.563 0.55065 2.28046 0
M  V30 4205 C 396.579 -0.400189 1.69335 0
M  V30 4206 O 397.755 -0.267215 1.99619 0
M  V30 4207 C 394.82 -0.128496 3.46462 0
M  V30 4208 C 393.881 0.865208 4.20491 0
M  V30 4209 C 393.114 0.218377 5.33253 0
M  V30 4210 O 393.337 -0.987894 5.6178 0
M  V30 4211 O 392.271 0.922845 5.94783 0
M  V30 4212 H 396.097 1.4291 2.67975 0
M  V30 4213 H 393.682 0.760326 1.28606 0
M  V30 4214 H 395.564 -0.508947 4.18315 0
M  V30 4215 H 394.239 -0.981526 3.0846 0
M  V30 4216 H 393.146 1.29658 3.50913 0
M  V30 4217 H 394.479 1.68741 4.62371 0
M  V30 4218 N 396.131 -1.37776 0.765217 0
M  V30 4219 C 397.377 -2.00145 0.327072 0
M  V30 4220 C 397.71 -1.60607 -1.09175 0
M  V30 4221 O 396.985 -0.849127 -1.74986 0
M  V30 4222 C 397.268 -3.57109 0.46319 0
M  V30 4223 C 397.121 -4.06576 1.92395 0
M  V30 4224 C 398.44 -4.39888 -0.136473 0
M  V30 4225 H 395.559 -0.727113 0.120316 0
M  V30 4226 H 398.201 -1.63549 0.967039 0
M  V30 4227 H 396.351 -3.88414 -0.0816358 0
M  V30 4228 H 398.023 -3.85864 2.52798 0
M  V30 4229 H 396.266 -3.59011 2.43503 0
M  V30 4230 H 396.937 -5.15639 1.97028 0
M  V30 4231 H 399.413 -4.14803 0.328317 0
M  V30 4232 H 398.289 -5.48899 -0.0110582 0
M  V30 4233 H 398.55 -4.24758 -1.22608 0
M  V30 4234 N 397.609 -0.515225 -1.4894 0
M  V30 4235 C 398.834 0.022727 -2.07388 0
M  V30 4236 C 399.259 1.2876 -1.37122 0
M  V30 4237 O 398.617 1.76067 -0.432431 0
M  V30 4238 C 398.665 0.244869 -3.59768 0
M  V30 4239 O 397.769 1.31667 -3.90817 0
M  V30 4240 H 397.11 -0.0325506 -0.663202 0
M  V30 4241 H 399.64 -0.718918 -1.91553 0
M  V30 4242 H 399.65 0.47205 -4.0526 0
M  V30 4243 H 398.325 -0.679194 -4.10317 0
M  V30 4244 H 396.902 1.07331 -3.5712 0
M  V30 4245 N 399.087 1.5561 -0.249682 0
M  V30 4246 C 400.017 2.24477 0.642826 0
M  V30 4247 C 400.998 1.22601 1.17911 0
M  V30 4248 O 402.183 1.5126 1.21795 0
M  V30 4249 C 399.313 2.94638 1.83863 0
M  V30 4250 C 398.267 4.03227 1.435 0
M  V30 4251 C 397.593 4.60828 2.71186 0
M  V30 4252 C 398.893 5.18796 0.604002 0
M  V30 4253 H 400.587 2.99321 0.0685625 0
M  V30 4254 H 398.133 1.43965 0.0315363 0
M  V30 4255 H 400.086 3.41517 2.46868 0
M  V30 4256 H 398.81 2.17287 2.43832 0
M  V30 4257 H 397.469 3.57121 0.828275 0
M  V30 4258 H 397.117 3.80174 3.29358 0
M  V30 4259 H 396.817 5.34132 2.44901 0
M  V30 4260 H 398.341 5.10442 3.35084 0
M  V30 4261 H 399.755 5.61883 1.13842 0
M  V30 4262 H 398.152 5.98506 0.437097 0
M  V30 4263 H 399.222 4.83384 -0.383147 0
M  V30 4264 N 400.565 -0.0233959 1.57583 0
M  V30 4265 C 401.513 -1.04063 2.08023 0
M  V30 4266 C 402.507 -1.37084 0.995204 0
M  V30 4267 O 403.713 -1.35923 1.18004 0
M  V30 4268 H 400.088 -0.353144 0.663922 0
M  V30 4269 H 402.059 -0.589453 2.9252 0
M  V30 4270 C 400.808 -2.33123 2.57971 0
M  V30 4271 H 400.131 -2.08577 3.4108 0
M  V30 4272 H 401.571 -3.02632 2.96967 0
M  V30 4273 C 400.03 -3.02483 1.48342 0
M  V30 4274 O 400.56 -3.92541 0.852898 0
M  V30 4275 N 398.766 -2.63909 1.21658 0
M  V30 4276 H 398.313 -1.90758 1.73116 0
M  V30 4277 H 398.271 -3.10633 0.485218 0
M  V30 4278 N 402.043 -1.548 -0.295768 0
M  V30 4279 C 403.006 -1.85363 -1.34808 0
M  V30 4280 C 404.006 -0.726817 -1.43436 0
M  V30 4281 O 405.196 -0.995088 -1.42981 0
M  V30 4282 C 402.328 -2.03859 -2.73229 0
M  V30 4283 H 403.521 -2.7941 -1.08949 0
M  V30 4284 H 401.074 -1.46942 -0.532702 0
M  V30 4285 H 401.809 -1.12117 -3.04303 0
M  V30 4286 H 401.594 -2.8588 -2.68356 0
M  V30 4287 H 403.084 -2.28857 -3.49305 0
M  V30 4288 N 403.521 0.559213 -1.47345 0
M  V30 4289 C 404.468 1.66645 -1.59682 0
M  V30 4290 C 405.438 1.60168 -0.43994 0
M  V30 4291 O 406.623 1.79031 -0.659736 0
M  V30 4292 C 403.763 3.04969 -1.61518 0
M  V30 4293 C 402.876 3.21897 -2.88108 0
M  V30 4294 C 402.011 4.50608 -2.81294 0
M  V30 4295 C 401.05 4.60961 -4.02717 0
M  V30 4296 N 400.187 5.81024 -3.94151 0
M  V30 4297 H 405.027 1.55439 -2.54249 0
M  V30 4298 H 402.564 0.757219 -1.26113 0
M  V30 4299 H 404.522 3.85064 -1.60566 0
M  V30 4300 H 403.152 3.15015 -0.704645 0
M  V30 4301 H 402.204 2.35248 -2.98936 0
M  V30 4302 H 403.516 3.25412 -3.78032 0
M  V30 4303 H 402.67 5.3896 -2.7858 0
M  V30 4304 H 401.409 4.49568 -1.89049 0
M  V30 4305 H 400.414 3.71021 -4.05738 0
M  V30 4306 H 401.639 4.63761 -4.96087 0
M  V30 4307 H 399.585 5.80938 -3.04708 0
M  V30 4308 H 399.502 5.85909 -4.77752 0
M  V30 4309 H 400.77 6.71744 -3.9545 0
M  V30 4310 N 404.999 1.35443 0.805782 0
M  V30 4311 C 406.276 1.19325 1.54987 0
M  V30 4312 C 406.656 -0.227294 2.09873 0
M  V30 4313 O 406.004 -1.2309 1.92512 0
M  V30 4314 C 406.214 2.26196 2.65775 0
M  V30 4315 C 407.562 2.62043 3.34094 0
M  V30 4316 O 408.586 2.25115 2.76046 0
M  V30 4317 O 407.445 3.25542 4.38958 0
M  V30 4318 H 404.539 0.463623 0.684823 0
M  V30 4319 H 407.085 1.47127 0.845674 0
M  V30 4320 H 405.857 3.21471 2.23096 0
M  V30 4321 H 405.48 1.99667 3.43829 0
M  V30 4322 N 406.477 -1.02803 1.19454 0
M  V30 4323 C 407.407 -2.12999 0.956758 0
M  V30 4324 C 408.388 -1.69743 -0.110188 0
M  V30 4325 O 409.573 -1.94148 0.0450038 0
M  V30 4326 C 406.703 -3.43746 0.495553 0
M  V30 4327 C 405.657 -4.00688 1.50443 0
M  V30 4328 C 404.983 -5.27067 0.900275 0
M  V30 4329 C 406.283 -4.35397 2.8849 0
M  V30 4330 H 407.977 -2.33148 1.87836 0
M  V30 4331 H 405.523 -1.12045 0.904539 0
M  V30 4332 H 407.476 -4.2021 0.316493 0
M  V30 4333 H 406.2 -3.23321 -0.461646 0
M  V30 4334 H 404.859 -3.2632 1.67065 0
M  V30 4335 H 404.507 -5.02959 -0.064503 0
M  V30 4336 H 404.207 -5.66127 1.57397 0
M  V30 4337 H 405.731 -6.06196 0.73203 0
M  V30 4338 H 407.145 -5.02795 2.75446 0
M  V30 4339 H 405.542 -4.85541 3.52661 0
M  V30 4340 H 406.612 -3.44662 3.41081 0
M  V30 4341 N 407.956 -0.998596 -1.21925 0
M  V30 4342 C 409.202 -0.678667 -1.91107 0
M  V30 4343 C 409.535 0.78791 -1.77498 0
M  V30 4344 O 408.81 1.57043 -1.1475 0
M  V30 4345 C 409.093 -1.09245 -3.43129 0
M  V30 4346 C 408.946 -2.61801 -3.6576 0
M  V30 4347 C 410.265 -0.649984 -4.35274 0
M  V30 4348 H 407.384 -0.248025 -0.694012 0
M  V30 4349 H 410.026 -1.24314 -1.43688 0
M  V30 4350 H 408.176 -0.612171 -3.83647 0
M  V30 4351 H 409.848 -3.17543 -3.34611 0
M  V30 4352 H 408.091 -3.03609 -3.09845 0
M  V30 4353 H 408.762 -2.85804 -4.7225 0
M  V30 4354 H 411.238 -1.0626 -4.02303 0
M  V30 4355 H 410.114 -0.967743 -5.40302 0
M  V30 4356 H 410.375 0.449139 -4.39813 0
M  V30 4357 N 409.434 1.37368 -0.772513 0
M  V30 4358 C 410.85 1.53059 -0.452231 0
M  V30 4359 C 411.05 1.73065 1.03203 0
M  V30 4360 O 410.106 1.75245 1.81784 0
M  V30 4361 C 411.419 2.72659 -1.26797 0
M  V30 4362 C 412.967 2.86521 -1.25995 0
M  V30 4363 C 413.442 4.09105 -2.05905 0
M  V30 4364 N 414.933 4.16219 -2.03263 0
M  V30 4365 C 415.668 5.10107 -2.61875 0
M  V30 4366 N 415.164 6.09547 -3.29278 0
M  V30 4367 N 416.957 5.02596 -2.51701 0
M  V30 4368 H 409.108 1.22634 -1.7342 0
M  V30 4369 H 411.371 0.597206 -0.736239 0
M  V30 4370 H 411.077 2.64343 -2.31982 0
M  V30 4371 H 410.951 3.66363 -0.897672 0
M  V30 4372 H 413.338 2.94308 -0.216081 0
M  V30 4373 H 413.419 1.93774 -1.66989 0
M  V30 4374 H 413.063 4.0208 -3.10313 0
M  V30 4375 H 412.993 5.00968 -1.62292 0
M  V30 4376 H 415.484 3.45012 -1.54192 0
M  V30 4377 H 415.797 6.77718 -3.71374 0
M  V30 4378 H 414.142 6.09824 -3.33377 0
M  V30 4379 H 417.333 4.23855 -1.98657 0
M  V30 4380 H 417.506 5.75582 -2.97673 0
M  V30 4381 N 410.912 0.523116 1.48665 0
M  V30 4382 C 411.859 -0.243398 2.29513 0
M  V30 4383 C 412.829 -0.940139 1.36933 0
M  V30 4384 O 414.014 -0.942503 1.65896 0
M  V30 4385 C 411.154 -1.28855 3.20141 0
M  V30 4386 C 410.267 -0.60135 4.27794 0
M  V30 4387 C 409.402 -1.62884 5.05611 0
M  V30 4388 C 408.441 -0.924726 6.05075 0
M  V30 4389 N 407.578 -1.89744 6.75975 0
M  V30 4390 H 412.418 0.452234 2.94549 0
M  V30 4391 H 409.955 0.234858 1.45213 0
M  V30 4392 H 411.913 -1.90674 3.71079 0
M  V30 4393 H 410.543 -1.95266 2.57043 0
M  V30 4394 H 409.595 0.130623 3.80176 0
M  V30 4395 H 410.907 -0.0481585 4.98777 0
M  V30 4396 H 410.061 -2.32149 5.60528 0
M  V30 4397 H 408.8 -2.21592 4.34452 0
M  V30 4398 H 407.805 -0.217966 5.49368 0
M  V30 4399 H 409.03 -0.343851 6.78229 0
M  V30 4400 H 406.976 -2.47373 6.07571 0
M  V30 4401 H 406.893 -1.3955 7.43009 0
M  V30 4402 H 408.161 -2.58229 7.35485 0
M  V30 4403 N 412.39 -1.55475 0.257931 0
M  V30 4404 C 413.32 -2.24815 -0.630912 0
M  V30 4405 C 414.301 -1.23224 -1.17259 0
M  V30 4406 O 415.486 -1.51904 -1.20991 0
M  V30 4407 C 412.616 -2.95609 -1.82298 0
M  V30 4408 C 411.57 -4.03982 -1.41359 0
M  V30 4409 C 410.896 -4.6226 -2.68738 0
M  V30 4410 C 412.196 -5.19109 -0.57648 0
M  V30 4411 H 413.89 -2.99354 -0.0526878 0
M  V30 4412 H 411.436 -1.4398 -0.023901 0
M  V30 4413 H 413.389 -3.42822 -2.45054 0
M  V30 4414 H 412.113 -2.18577 -2.42676 0
M  V30 4415 H 410.772 -3.57555 -0.809324 0
M  V30 4416 H 410.42 -3.81915 -3.27338 0
M  V30 4417 H 410.12 -5.35424 -2.42065 0
M  V30 4418 H 411.644 -5.12212 -3.32372 0
M  V30 4419 H 413.058 -5.62479 -1.10861 0
M  V30 4420 H 411.455 -5.98729 -0.405351 0
M  V30 4421 H 412.525 -4.83174 0.408776 0
M  V30 4422 N 413.868 0.0150385 -1.57593 0
M  V30 4423 C 415.117 0.702115 -1.89085 0
M  V30 4424 C 415.43 1.75764 -0.858277 0
M  V30 4425 O 416.636 2.49829 -1.0629 0
M  V30 4426 C 415.092 1.29992 -3.35604 0
M  V30 4427 C 414.7 0.280007 -4.47124 0
M  V30 4428 C 416.444 1.96606 -3.76227 0
M  V30 4429 C 414.351 0.886949 -5.84711 0
M  V30 4430 H 413.281 0.265997 -0.705522 0
M  V30 4431 H 415.932 -0.0430408 -1.8345 0
M  V30 4432 H 414.314 2.09525 -3.36029 0
M  V30 4433 H 415.488 -0.489631 -4.58191 0
M  V30 4434 H 413.803 -0.284835 -4.15425 0
M  V30 4435 H 416.4 2.42893 -4.76347 0
M  V30 4436 H 416.743 2.79024 -3.08952 0
M  V30 4437 H 417.276 1.23828 -3.78036 0
M  V30 4438 H 414.015 0.101876 -6.55421 0
M  V30 4439 H 413.535 1.6261 -5.77337 0
M  V30 4440 H 415.214 1.39011 -6.3189 0
M  V30 4441 N 415.346 1.54954 0.287554 0
M  V30 4442 C 416.592 1.75132 1.02257 0
M  V30 4443 C 416.925 0.542858 1.86458 0
M  V30 4444 O 416.2 -0.459856 1.88986 0
M  V30 4445 C 416.483 3.04812 1.91733 0
M  V30 4446 C 416.336 4.35985 1.10622 0
M  V30 4447 C 417.655 3.30438 2.90687 0
M  V30 4448 H 414.774 0.637194 0.370341 0
M  V30 4449 H 417.416 1.87678 0.296111 0
M  V30 4450 H 415.566 2.94247 2.53675 0
M  V30 4451 H 417.238 4.58487 0.508636 0
M  V30 4452 H 415.481 4.31865 0.409271 0
M  V30 4453 H 416.152 5.23017 1.76513 0
M  V30 4454 H 418.628 3.40701 2.38877 0
M  V30 4455 H 417.504 4.22467 3.50447 0
M  V30 4456 H 417.765 2.49377 3.65053 0
M  V30 4457 N 416.824 -0.551391 1.4764 0
M  V30 4458 C 417.754 -1.66757 1.63445 0
M  V30 4459 C 418.735 -1.63077 0.483742 0
M  V30 4460 O 419.92 -1.80607 0.71377 0
M  V30 4461 C 417.05 -3.05387 1.65396 0
M  V30 4462 C 416.004 -3.23918 2.79752 0
M  V30 4463 C 415.33 -4.63393 2.66779 0
M  V30 4464 C 416.63 -3.08735 4.21284 0
M  V30 4465 H 418.324 -1.53786 2.56886 0
M  V30 4466 H 415.87 -0.738415 1.23626 0
M  V30 4467 H 417.823 -3.83325 1.75043 0
M  V30 4468 H 416.547 -3.19332 0.685195 0
M  V30 4469 H 415.206 -2.48391 2.69625 0
M  V30 4470 H 414.854 -4.74144 1.67918 0
M  V30 4471 H 414.554 -4.7674 3.43501 0
M  V30 4472 H 416.078 -5.43458 2.78364 0
M  V30 4473 H 417.492 -3.76484 4.32357 0
M  V30 4474 H 415.889 -3.33588 4.98838 0
M  V30 4475 H 416.959 -2.0541 4.39243 0
M  V30 4476 N 418.302 -1.35869 -0.798587 0
M  V30 4477 C 419.579 -1.20145 -1.54352 0
M  V30 4478 C 419.959 0.216161 -2.0999 0
M  V30 4479 O 419.307 1.22068 -1.93162 0
M  V30 4480 C 419.517 -2.27602 -2.64572 0
M  V30 4481 C 420.865 -2.63811 -3.32699 0
M  V30 4482 O 421.889 -2.26576 -2.74849 0
M  V30 4483 O 420.748 -3.27866 -4.37226 0
M  V30 4484 H 417.842 -0.467248 -0.682355 0
M  V30 4485 H 420.388 -1.47574 -0.837859 0
M  V30 4486 H 419.16 -3.2265 -2.21388 0
M  V30 4487 H 418.783 -2.01488 -3.42766 0
M  V30 4488 N 419.78 1.02168 -1.19998 0
M  V30 4489 C 421.191 1.57135 -1.00825 0
M  V30 4490 C 421.542 1.91276 0.436818 0
M  V30 4491 O 420.667 1.71679 1.3174 0
M  V30 4492 C 421.262 2.85514 -1.82393 0
M  V30 4493 C 419.821 3.37027 -1.67601 0
M  V30 4494 C 418.968 2.10388 -1.80644 0
M  V30 4495 H 421.919 0.846106 -1.34264 0
M  V30 4496 H 421.94 3.56711 -1.32429 0
M  V30 4497 H 421.452 2.60634 -2.87561 0
M  V30 4498 H 419.553 3.66878 -0.650485 0
M  V30 4499 H 419.666 4.09572 -2.4857 0
M  V30 4500 H 418.03 2.22601 -1.23778 0
M  V30 4501 H 418.813 1.8794 -2.87286 0
M  V30 4502 N 421.258 1.00505 1.21394 0
M  V30 4503 C 422.205 0.565496 2.23765 0
M  V30 4504 C 423.175 -0.408466 1.60999 0
M  V30 4505 O 424.36 -0.310503 1.88257 0
M  V30 4506 C 421.5 -0.101667 3.4495 0
M  V30 4507 C 420.613 0.915479 4.22188 0
M  V30 4508 C 419.748 0.220574 5.30742 0
M  V30 4509 C 418.787 1.22527 5.99711 0
M  V30 4510 N 417.924 0.557831 6.9988 0
M  V30 4511 H 422.764 1.44314 2.60725 0
M  V30 4512 H 420.301 0.722643 1.28126 0
M  V30 4513 H 422.259 -0.505504 4.14126 0
M  V30 4514 H 420.889 -0.94303 3.08718 0
M  V30 4515 H 419.941 1.43756 3.52191 0
M  V30 4516 H 421.253 1.68005 4.69655 0
M  V30 4517 H 420.407 -0.239368 6.06228 0
M  V30 4518 H 419.146 -0.576401 4.84282 0
M  V30 4519 H 418.151 1.69571 5.22997 0
M  V30 4520 H 419.376 2.02332 6.48258 0
M  V30 4521 H 417.322 -0.219486 6.55633 0
M  V30 4522 H 417.239 1.26065 7.45415 0
M  V30 4523 H 418.507 0.121095 7.79406 0
M  V30 4524 N 422.737 -1.36956 0.779787 0
M  V30 4525 C 423.684 -2.30175 0.169697 0
M  V30 4526 C 424.654 -1.51501 -0.68094 0
M  V30 4527 O 425.839 -1.80042 -0.631629 0
M  V30 4528 C 422.979 -3.37985 -0.697131 0
M  V30 4529 C 422.092 -4.31661 0.170992 0
M  V30 4530 C 421.227 -5.2655 -0.701298 0
M  V30 4531 C 420.266 -6.11867 0.168869 0
M  V30 4532 N 419.403 -6.98973 -0.661855 0
M  V30 4533 H 424.243 -2.81767 0.970135 0
M  V30 4534 H 421.78 -1.38699 0.489994 0
M  V30 4535 H 423.738 -3.99128 -1.2146 0
M  V30 4536 H 422.368 -2.87739 -1.46309 0
M  V30 4537 H 421.42 -3.71756 0.80634 0
M  V30 4538 H 422.732 -4.91644 0.841875 0
M  V30 4539 H 421.886 -5.92937 -1.28494 0
M  V30 4540 H 420.625 -4.66998 -1.40584 0
M  V30 4541 H 419.63 -5.44452 0.764986 0
M  V30 4542 H 420.855 -6.73493 0.870863 0
M  V30 4543 H 418.801 -6.41941 -1.35086 0
M  V30 4544 H 418.718 -7.55984 -0.0484447 0
M  V30 4545 H 419.986 -7.6974 -1.22963 0
M  V30 4546 N 424.215 -0.530993 -1.48385 0
M  V30 4547 C 425.631 -0.188919 -1.58478 0
M  V30 4548 C 425.831 1.30786 -1.53288 0
M  V30 4549 O 424.887 2.08619 -1.42248 0
M  V30 4550 C 426.2 -0.792343 -2.90073 0
M  V30 4551 C 427.748 -0.76117 -3.03604 0
M  V30 4552 C 428.223 -1.34319 -4.37861 0
M  V30 4553 N 429.714 -1.3052 -4.44431 0
M  V30 4554 C 430.449 -1.72543 -5.46824 0
M  V30 4555 N 429.945 -2.22299 -6.56167 0
M  V30 4556 N 431.738 -1.63773 -5.37712 0
M  V30 4557 H 423.889 -1.50377 -1.50002 0
M  V30 4558 H 426.152 -0.625559 -0.712306 0
M  V30 4559 H 425.858 -1.84323 -2.99529 0
M  V30 4560 H 425.732 -0.270026 -3.76232 0
M  V30 4561 H 428.119 0.280957 -2.93759 0
M  V30 4562 H 428.2 -1.32097 -2.19053 0
M  V30 4563 H 427.844 -2.38425 -4.4846 0
M  V30 4564 H 427.774 -0.759064 -5.21101 0
M  V30 4565 H 430.265 -0.940973 -3.65997 0
M  V30 4566 H 430.578 -2.52356 -7.30436 0
M  V30 4567 H 428.923 -2.26293 -6.57127 0
M  V30 4568 H 432.114 -1.24698 -4.51185 0
M  V30 4569 H 432.287 -1.96844 -6.17379 0
M  V30 4570 N 425.693 1.55336 -0.266172 0
M  V30 4571 C 426.623 2.25146 0.618981 0
M  V30 4572 C 427.604 1.23845 1.16604 0
M  V30 4573 O 428.789 1.52544 1.20183 0
M  V30 4574 C 425.919 2.96572 1.80728 0
M  V30 4575 C 424.873 4.04726 1.39215 0
M  V30 4576 C 424.199 4.63678 2.66283 0
M  V30 4577 C 425.499 5.19407 0.548942 0
M  V30 4578 H 427.193 2.99377 0.0368116 0
M  V30 4579 H 424.739 1.43991 0.0162651 0
M  V30 4580 H 426.692 3.44116 2.43232 0
M  V30 4581 H 425.416 2.19861 2.41514 0
M  V30 4582 H 424.075 3.57979 0.790351 0
M  V30 4583 H 423.723 3.83646 3.25308 0
M  V30 4584 H 423.423 5.367 2.39222 0
M  V30 4585 H 424.947 5.13967 3.29651 0
M  V30 4586 H 426.361 5.63059 1.07876 0
M  V30 4587 H 424.758 5.98936 0.373593 0
M  V30 4588 H 425.828 4.8295 -0.434394 0
M  V30 4589 N 427.171 -0.0066808 1.57599 0
M  V30 4590 C 428.399 -0.704087 1.94551 0
M  V30 4591 C 428.814 -1.67677 0.867746 0
M  V30 4592 O 428.171 -1.8185 -0.153925 0
M  V30 4593 C 428.222 -1.44177 3.31505 0
M  V30 4594 O 427.943 -0.508097 4.35144 0
M  V30 4595 C 429.444 -2.23429 3.82876 0
M  V30 4596 H 426.664 -0.196523 0.641576 0
M  V30 4597 H 429.208 0.042453 2.04456 0
M  V30 4598 H 427.363 -2.13999 3.22929 0
M  V30 4599 H 427.777 -1.02782 5.14331 0
M  V30 4600 H 429.251 -2.70552 4.8115 0
M  V30 4601 H 429.728 -3.05818 3.15233 0
M  V30 4602 H 430.334 -1.58636 3.94607 0
M  V30 4603 N 428.649 -1.55105 -0.279332 0
M  V30 4604 C 429.877 -1.7943 -1.03017 0
M  V30 4605 C 430.292 -0.564456 -1.80165 0
M  V30 4606 O 429.649 0.466326 -1.76442 0
M  V30 4607 C 429.7 -3.0155 -1.99374 0
M  V30 4608 O 429.421 -4.19784 -1.25352 0
M  V30 4609 C 430.922 -3.3843 -2.86321 0
M  V30 4610 H 428.142 -0.597882 -0.304594 0
M  V30 4611 H 430.686 -2.02105 -0.312035 0
M  V30 4612 H 428.841 -2.81019 -2.66659 0
M  V30 4613 H 429.255 -4.88781 -1.90246 0
M  V30 4614 H 430.729 -4.27066 -3.49741 0
M  V30 4615 H 431.206 -2.57549 -3.5576 0
M  V30 4616 H 431.812 -3.61197 -2.24536 0
M  V30 4617 N 430.127 0.543554 -1.4793 0
M  V30 4618 C 431.374 1.30008 -1.55255 0
M  V30 4619 C 431.702 1.93245 -0.220612 0
M  V30 4620 O 430.957 1.79141 0.787843 0
M  V30 4621 C 431.256 2.42078 -2.62932 0
M  V30 4622 C 430.922 1.96583 -4.0579 0
M  V30 4623 C 429.584 1.83893 -4.44676 0
M  V30 4624 C 431.936 1.62034 -4.95373 0
M  V30 4625 C 429.264 1.34969 -5.70964 0
M  V30 4626 C 431.616 1.14577 -6.22137 0
M  V30 4627 C 430.28 1.00493 -6.59892 0
M  V30 4628 H 429.55 0.475735 -0.568117 0
M  V30 4629 H 432.197 0.608075 -1.81589 0
M  V30 4630 H 430.502 3.16892 -2.30406 0
M  V30 4631 H 432.199 3.00236 -2.65818 0
M  V30 4632 H 428.789 2.07407 -3.75074 0
M  V30 4633 H 432.973 1.70705 -4.66019 0
M  V30 4634 H 428.229 1.2274 -5.98953 0
M  V30 4635 H 432.403 0.869109 -6.90955 0
M  V30 4636 H 430.03 0.623624 -7.57638 0
M  V30 4637 N 431.605 1.3629 0.791371 0
M  V30 4638 C 432.537 1.26321 1.91248 0
M  V30 4639 C 433.55 0.18313 1.61767 0
M  V30 4640 O 434.739 0.437682 1.73051 0
M  V30 4641 C 431.839 0.925901 3.26007 0
M  V30 4642 C 431.012 2.10746 3.83281 0
M  V30 4643 C 430.071 1.74352 4.96475 0
M  V30 4644 O 429.097 2.46416 5.13096 0
M  V30 4645 N 430.299 0.676058 5.7655 0
M  V30 4646 H 433.064 2.22915 2.00323 0
M  V30 4647 H 430.625 1.29659 0.969546 0
M  V30 4648 H 432.617 0.663636 3.99222 0
M  V30 4649 H 431.187 0.0491581 3.12561 0
M  V30 4650 H 430.407 2.53264 3.02077 0
M  V30 4651 H 431.695 2.8969 4.18279 0
M  V30 4652 H 431.093 0.0776467 5.65647 0
M  V30 4653 H 429.65 0.473612 6.50077 0
M  V30 4654 N 433.083 -1.0153 1.20538 0
M  V30 4655 C 434.046 -2.0826 0.957098 0
M  V30 4656 C 435.046 -1.60657 -0.0678655 0
M  V30 4657 O 436.236 -1.73385 0.168332 0
M  V30 4658 C 433.368 -3.38033 0.441188 0
M  V30 4659 H 434.561 -2.31719 1.90384 0
M  V30 4660 H 432.114 -1.1835 1.02093 0
M  V30 4661 H 432.849 -3.20249 -0.510961 0
M  V30 4662 H 432.634 -3.73911 1.18038 0
M  V30 4663 H 434.124 -4.16613 0.287009 0
M  V30 4664 N 434.561 -1.01147 -1.20859 0
M  V30 4665 C 435.491 -0.597663 -2.25722 0
M  V30 4666 C 436.472 0.384744 -1.65692 0
M  V30 4667 O 437.657 0.271303 -1.92296 0
M  V30 4668 C 434.787 0.0700149 -3.47229 0
M  V30 4669 C 433.741 -0.832843 -4.19819 0
M  V30 4670 C 433.067 -0.0312202 -5.34691 0
M  V30 4671 C 434.367 -2.1385 -4.76514 0
M  V30 4672 H 436.061 -1.47423 -2.60589 0
M  V30 4673 H 433.607 -0.710301 -1.25263 0
M  V30 4674 H 435.56 0.37103 -4.19763 0
M  V30 4675 H 434.284 0.981259 -3.11511 0
M  V30 4676 H 432.943 -1.11778 -3.49144 0
M  V30 4677 H 432.591 0.881515 -4.95215 0
M  V30 4678 H 432.291 -0.632434 -5.84187 0
M  V30 4679 H 433.815 0.26346 -6.10031 0
M  V30 4680 H 435.229 -1.9002 -5.40893 0
M  V30 4681 H 433.626 -2.69012 -5.36426 0
M  V30 4682 H 434.696 -2.80495 -3.95538 0
M  V30 4683 N 436.039 1.36541 -0.78704 0
M  V30 4684 C 436.971 2.28761 -0.141773 0
M  V30 4685 C 437.984 1.49365 0.647599 0
M  V30 4686 O 439.173 1.71836 0.483173 0
M  V30 4687 C 436.273 3.28771 0.822368 0
M  V30 4688 C 435.446 4.3732 0.0835594 0
M  V30 4689 C 434.505 5.17307 0.963296 0
M  V30 4690 O 433.531 5.67638 0.421419 0
M  V30 4691 N 434.733 5.33515 2.28784 0
M  V30 4692 H 437.498 2.84777 -0.933919 0
M  V30 4693 H 435.059 1.48682 -0.640735 0
M  V30 4694 H 437.051 3.79169 1.41468 0
M  V30 4695 H 435.621 2.73412 1.5154 0
M  V30 4696 H 434.841 3.88118 -0.689809 0
M  V30 4697 H 436.129 5.0701 -0.426358 0
M  V30 4698 H 435.527 4.94234 2.75226 0
M  V30 4699 H 434.084 5.87165 2.82985 0
M  V30 4700 N 437.518 0.538854 1.48102 0
M  V30 4701 C 438.468 -0.23907 2.26743 0
M  V30 4702 C 439.452 -0.901923 1.33245 0
M  V30 4703 O 440.644 -0.803263 1.57723 0
M  V30 4704 C 437.773 -1.2799 3.18549 0
M  V30 4705 C 436.859 -0.621388 4.19523 0
M  V30 4706 N 437.25 0.298004 5.04921 0
M  V30 4707 C 435.548 -0.877533 4.37282 0
M  V30 4708 C 436.249 0.678757 5.77726 0
M  V30 4709 N 435.225 0.0377881 5.43587 0
M  V30 4710 H 439.027 0.468096 2.90148 0
M  V30 4711 H 436.541 0.357497 1.58416 0
M  V30 4712 H 438.538 -1.851 3.73555 0
M  V30 4713 H 437.198 -1.98835 2.567 0
M  V30 4714 H 438.209 0.671126 5.13533 0
M  V30 4715 H 434.886 -1.57588 3.86616 0
M  V30 4716 H 436.276 1.43316 6.56437 0
M  V30 4717 N 438.996 -1.55193 0.274407 0
M  V30 4718 C 440.407 -1.85358 -0.223488 0
M  V30 4719 C 440.758 -1.19642 -1.555 0
M  V30 4720 O 439.883 -0.484498 -2.10907 0
M  V30 4721 C 440.478 -3.36282 -0.412285 0
M  V30 4722 C 439.037 -3.66574 -0.854413 0
M  V30 4723 C 438.184 -2.7725 0.0527056 0
M  V30 4724 H 441.135 -1.50743 0.496215 0
M  V30 4725 H 441.156 -3.59349 -1.25094 0
M  V30 4726 H 440.668 -3.84083 0.556965 0
M  V30 4727 H 438.769 -3.24273 -1.83516 0
M  V30 4728 H 438.882 -4.74073 -0.692226 0
M  V30 4729 H 437.246 -2.50447 -0.463484 0
M  V30 4730 H 438.029 -3.27865 1.01783 0
M  V30 4731 N 440.474 -0.00167713 -1.576 0
M  V30 4732 C 441.72 0.67819 -1.91761 0
M  V30 4733 C 442.075 1.71288 -0.876256 0
M  V30 4734 O 441.368 1.91276 0.111333 0
M  V30 4735 C 441.562 1.36189 -3.30435 0
M  V30 4736 C 441.391 0.394938 -4.47962 0
M  V30 4737 C 440.161 0.00472875 -5.053 0
M  V30 4738 C 442.359 -0.339521 -5.13178 0
M  V30 4739 N 440.341 -0.960257 -6.06343 0
M  V30 4740 C 441.712 -1.15914 -6.09068 0
M  V30 4741 C 443.767 -0.403177 -4.96265 0
M  V30 4742 C 442.47 -2.03661 -6.89866 0
M  V30 4743 C 444.496 -1.26788 -5.77649 0
M  V30 4744 C 443.858 -2.07535 -6.73134 0
M  V30 4745 H 439.957 0.221317 -0.750028 0
M  V30 4746 H 442.541 -0.0624182 -1.946 0
M  V30 4747 H 440.712 2.07278 -3.28467 0
M  V30 4748 H 442.444 1.99658 -3.52021 0
M  V30 4749 H 439.199 0.373452 -4.72125 0
M  V30 4750 H 439.623 -1.43817 -6.61548 0
M  V30 4751 H 444.265 0.206818 -4.22294 0
M  V30 4752 H 441.983 -2.65727 -7.63161 0
M  V30 4753 H 445.569 -1.32107 -5.66603 0
M  V30 4754 H 444.449 -2.73363 -7.35012 0
M  V30 4755 N 441.952 1.55251 0.271103 0
M  V30 4756 C 443.198 1.76207 1.00394 0
M  V30 4757 C 443.531 0.562604 1.85872 0
M  V30 4758 O 442.806 -0.439785 1.89463 0
M  V30 4759 C 443.089 3.06828 1.8849 0
M  V30 4760 C 442.942 4.37134 1.05992 0
M  V30 4761 C 444.261 3.33503 2.87165 0
M  V30 4762 H 441.38 0.641086 0.363562 0
M  V30 4763 H 444.022 1.87982 0.276189 0
M  V30 4764 H 442.172 2.96921 2.5054 0
M  V30 4765 H 443.844 4.59001 0.459978 0
M  V30 4766 H 442.087 4.32275 0.363443 0
M  V30 4767 H 442.758 5.2486 1.70955 0
M  V30 4768 H 445.234 3.43215 2.3525 0
M  V30 4769 H 444.11 4.2616 3.45946 0
M  V30 4770 H 444.371 2.53235 3.62387 0
M  V30 4771 N 443.43 -0.535701 1.48216 0
M  V30 4772 C 444.658 -1.31671 1.59594 0
M  V30 4773 C 445.073 -1.87083 0.254056 0
M  V30 4774 O 444.43 -1.66112 -0.755854 0
M  V30 4775 C 444.481 -2.47158 2.63809 0
M  V30 4776 O 444.202 -1.94032 3.92789 0
M  V30 4777 C 445.703 -3.39062 2.85573 0
M  V30 4778 H 442.923 -0.400623 0.538277 0
M  V30 4779 H 445.467 -0.646827 1.94001 0
M  V30 4780 H 443.622 -3.10043 2.32276 0
M  V30 4781 H 444.036 -2.69585 4.49916 0
M  V30 4782 H 445.51 -4.16459 3.62306 0
M  V30 4783 H 445.987 -3.93941 1.94184 0
M  V30 4784 H 446.593 -2.81975 3.18387 0
M  V30 4785 N 444.908 -1.36708 -0.784132 0
M  V30 4786 C 446.156 -1.30972 -1.53918 0
M  V30 4787 C 446.477 0.109086 -1.94695 0
M  V30 4788 O 445.747 1.05048 -1.65353 0
M  V30 4789 H 444.327 -0.481819 -0.570841 0
M  V30 4790 H 446.989 -1.71063 -0.934002 0
M  V30 4791 H 446.085 -1.94061 -2.44431 0
M  V30 4792 N 446.386 1.0089 -1.21074 0
M  V30 4793 C 447.333 2.09588 -0.966512 0
M  V30 4794 C 448.303 1.65761 0.106089 0
M  V30 4795 O 449.488 1.90758 -0.0402287 0
M  V30 4796 C 446.628 3.40958 -0.533058 0
M  V30 4797 C 445.741 3.9822 -1.67467 0
M  V30 4798 C 444.876 5.17682 -1.19076 0
M  V30 4799 C 443.915 5.67043 -2.30496 0
M  V30 4800 N 443.052 6.77759 -1.83267 0
M  V30 4801 H 447.892 2.29815 -1.89708 0
M  V30 4802 H 445.429 1.12689 -0.945489 0
M  V30 4803 H 447.387 4.1637 -0.263019 0
M  V30 4804 H 446.017 3.20781 0.360505 0
M  V30 4805 H 445.069 3.1983 -2.05944 0
M  V30 4806 H 446.381 4.3085 -2.51336 0
M  V30 4807 H 445.535 6.00326 -0.877151 0
M  V30 4808 H 444.274 4.86635 -0.322066 0
M  V30 4809 H 443.279 4.82999 -2.62664 0
M  V30 4810 H 444.504 6.00121 -3.17855 0
M  V30 4811 H 442.45 6.48527 -0.987356 0
M  V30 4812 H 442.367 7.09624 -2.60711 0
M  V30 4813 H 443.635 7.63949 -1.54928 0
M  V30 4814 N 447.864 1.01787 1.20321 0
M  V30 4815 C 448.827 0.593972 2.2137 0
M  V30 4816 C 449.827 -0.336553 1.57239 0
M  V30 4817 O 451.017 -0.125069 1.7375 0
M  V30 4818 C 448.149 -0.132433 3.40643 0
M  V30 4819 H 449.342 1.48791 2.60387 0
M  V30 4820 H 446.895 0.807803 1.33807 0
M  V30 4821 H 447.63 -1.04123 3.0713 0
M  V30 4822 H 447.415 0.53605 3.88418 0
M  V30 4823 H 448.905 -0.416314 4.1552 0
M  V30 4824 N 449.342 -1.36122 0.79427 0
M  V30 4825 C 450.305 -2.28309 0.201889 0
M  V30 4826 C 451.305 -1.49041 -0.603603 0
M  V30 4827 O 452.495 -1.68964 -0.423888 0
M  V30 4828 C 449.627 -3.3321 -0.719978 0
M  V30 4829 H 450.82 -2.82208 1.01481 0
M  V30 4830 H 448.373 -1.45768 0.564037 0
M  V30 4831 H 449.108 -2.84475 -1.55706 0
M  V30 4832 H 448.893 -3.91835 -0.144266 0
M  V30 4833 H 450.383 -4.02044 -1.12916 0
M  V30 4834 N 450.82 -0.546701 -1.47814 0
M  V30 4835 C 451.768 0.220048 -2.31557 0
M  V30 4836 C 452.762 0.919472 -1.42275 0
M  V30 4837 O 453.968 0.841953 -1.59095 0
M  V30 4838 H 450.343 0.0898334 -0.746615 0
M  V30 4839 H 452.314 -0.505589 -2.94086 0
M  V30 4840 C 451.063 1.24353 -3.24702 0
M  V30 4841 H 450.386 0.714758 -3.93359 0
M  V30 4842 H 451.826 1.75112 -3.8615 0
M  V30 4843 C 450.285 2.28593 -2.47481 0
M  V30 4844 O 450.815 3.35334 -2.21165 0
M  V30 4845 N 449.021 2.02244 -2.08676 0
M  V30 4846 H 448.568 1.15455 -2.30278 0
M  V30 4847 H 448.526 2.72207 -1.57323 0
M  V30 4848 N 452.299 1.55045 -0.282633 0
M  V30 4849 C 453.546 1.9976 0.33199 0
M  V30 4850 C 453.874 1.17105 1.55295 0
M  V30 4851 O 453.129 0.230599 1.94337 0
M  V30 4852 C 453.428 3.49422 0.750938 0
M  V30 4853 C 453.094 4.4941 -0.366228 0
M  V30 4854 C 451.756 4.76471 -0.672964 0
M  V30 4855 C 454.108 5.09054 -1.11864 0
M  V30 4856 C 451.436 5.60442 -1.73556 0
M  V30 4857 C 453.788 5.9418 -2.17102 0
M  V30 4858 C 452.452 6.19558 -2.48402 0
M  V30 4859 H 451.722 0.730974 0.121484 0
M  V30 4860 H 454.369 1.8732 -0.39791 0
M  V30 4861 H 452.674 3.59377 1.56063 0
M  V30 4862 H 454.371 3.81432 1.23736 0
M  V30 4863 H 450.961 4.2844 -0.117041 0
M  V30 4864 H 455.145 4.88165 -0.894925 0
M  V30 4865 H 450.401 5.78349 -1.983 0
M  V30 4866 H 454.575 6.39427 -2.75873 0
M  V30 4867 H 452.202 6.84417 -3.30874 0
M  V30 4868 N 453.777 0.010035 1.57597 0
M  V30 4869 C 455.023 -0.673697 1.91283 0
M  V30 4870 C 455.356 -1.72863 0.884979 0
M  V30 4871 O 454.631 -1.94268 -0.0949487 0
M  V30 4872 C 454.914 -1.30766 3.35518 0
M  V30 4873 C 454.767 -0.263578 4.49027 0
M  V30 4874 C 456.086 -2.23105 3.79358 0
M  V30 4875 H 453.205 -0.243439 0.695634 0
M  V30 4876 H 455.847 0.0633864 1.89894 0
M  V30 4877 H 453.997 -1.93588 3.36832 0
M  V30 4878 H 455.669 0.365738 4.59848 0
M  V30 4879 H 453.912 0.413077 4.31829 0
M  V30 4880 H 454.583 -0.746398 5.4693 0
M  V30 4881 H 457.059 -1.70289 3.79659 0
M  V30 4882 H 455.935 -2.64424 4.81011 0
M  V30 4883 H 456.196 -3.11433 3.13787 0
M  V30 4884 N 455.255 -1.55392 -0.262866 0
M  V30 4885 C 456.205 -1.85355 -1.32768 0
M  V30 4886 C 457.189 -0.713188 -1.44231 0
M  V30 4887 O 458.381 -0.974765 -1.47741 0
M  V30 4888 C 455.51 -2.13781 -2.68612 0
M  V30 4889 C 454.596 -3.34104 -2.61219 0
M  V30 4890 N 454.987 -4.53766 -2.2345 0
M  V30 4891 C 453.285 -3.36895 -2.92263 0
M  V30 4892 C 453.986 -5.35877 -2.26298 0
M  V30 4893 N 452.962 -4.74536 -2.65172 0
M  V30 4894 H 456.764 -2.75413 -1.02591 0
M  V30 4895 H 454.278 -1.55405 -0.471503 0
M  V30 4896 H 456.275 -2.33407 -3.45437 0
M  V30 4897 H 454.935 -1.25013 -2.99669 0
M  V30 4898 H 455.946 -4.79682 -1.95258 0
M  V30 4899 H 452.623 -2.58351 -3.27965 0
M  V30 4900 H 454.013 -6.41577 -1.99572 0
M  V30 4901 N 456.733 0.527833 -1.48498 0
M  V30 4902 C 457.666 1.64892 -1.57753 0
M  V30 4903 C 458.644 1.5687 -0.427867 0
M  V30 4904 O 459.828 1.77311 -0.639764 0
M  V30 4905 C 456.955 3.03301 -1.50752 0
M  V30 4906 C 456.001 3.29675 -2.70586 0
M  V30 4907 S 456.834 3.15712 -4.32535 0
M  V30 4908 C 457.99 4.56564 -4.28136 0
M  V30 4909 H 458.223 1.56792 -2.52594 0
M  V30 4910 H 455.756 0.710959 -1.37057 0
M  V30 4911 H 457.714 3.83123 -1.474 0
M  V30 4912 H 456.375 3.08839 -0.572454 0
M  V30 4913 H 455.568 4.3065 -2.61833 0
M  V30 4914 H 455.17 2.57526 -2.71212 0
M  V30 4915 H 457.462 5.48126 -3.98201 0
M  V30 4916 H 458.405 4.70371 -5.29298 0
M  V30 4917 H 458.813 4.35987 -3.58574 0
M  V30 4918 N 458.211 1.37122 0.776871 0
M  V30 4919 C 459.488 1.22586 1.52421 0
M  V30 4920 C 459.868 -0.182726 2.10308 0
M  V30 4921 O 459.216 -1.18979 1.9508 0
M  V30 4922 C 459.426 2.31782 2.60918 0
M  V30 4923 C 460.774 2.69071 3.2846 0
M  V30 4924 O 461.798 2.3092 2.71209 0
M  V30 4925 O 460.657 3.3478 4.31954 0
M  V30 4926 H 457.751 0.478045 0.674835 0
M  V30 4927 H 460.297 1.48888 0.814275 0
M  V30 4928 H 459.069 3.26131 2.16227 0
M  V30 4929 H 458.692 2.06916 3.39517 0
M  V30 4930 N 459.689 -1.00246 1.21608 0
M  V30 4931 C 460.917 -1.77631 1.06089 0
M  V30 4932 C 461.332 -1.84746 -0.38916 0
M  V30 4933 O 460.689 -1.31068 -1.26994 0
M  V30 4934 C 460.74 -3.21415 1.65453 0
M  V30 4935 O 460.461 -3.14703 3.04785 0
M  V30 4936 C 461.962 -4.15289 1.55079 0
M  V30 4937 H 459.182 -0.558162 0.37242 0
M  V30 4938 H 461.726 -1.26093 1.60999 0
M  V30 4939 H 459.881 -3.70053 1.14629 0
M  V30 4940 H 460.295 -4.05056 3.33212 0
M  V30 4941 H 461.769 -5.13965 2.01355 0
M  V30 4942 H 462.246 -4.36279 0.505665 0
M  V30 4943 H 462.852 -3.72543 2.05163 0
M  V30 4944 N 461.167 -1.02423 -1.1978 0
M  V30 4945 C 462.13 -0.605703 -2.21052 0
M  V30 4946 C 463.13 0.328209 -1.57415 0
M  V30 4947 O 464.32 0.115853 -1.73814 0
M  V30 4948 C 461.452 0.114366 -3.40708 0
M  V30 4949 H 462.645 -1.5017 -2.59594 0
M  V30 4950 H 460.198 -0.814888 -1.33376 0
M  V30 4951 H 460.933 1.02492 -3.07678 0
M  V30 4952 H 460.718 -0.556641 -3.88129 0
M  V30 4953 H 462.208 0.394272 -4.15735 0
M  V30 4954 N 462.645 1.35699 -0.801477 0
M  V30 4955 C 463.577 2.28598 -0.166028 0
M  V30 4956 C 464.59 1.50044 0.631721 0
M  V30 4957 O 465.779 1.72339 0.464921 0
M  V30 4958 C 462.879 3.29625 0.787451 0
M  V30 4959 C 462.052 4.37384 0.037171 0
M  V30 4960 C 461.111 5.183 0.908375 0
M  V30 4961 O 460.137 5.68053 0.361189 0
M  V30 4962 N 461.339 5.35912 2.23112 0
M  V30 4963 H 464.104 2.83771 -0.964071 0
M  V30 4964 H 461.665 1.47994 -0.656469 0
M  V30 4965 H 463.657 3.80648 1.37439 0
M  V30 4966 H 462.227 2.75004 1.48632 0
M  V30 4967 H 461.447 3.87364 -0.730935 0
M  V30 4968 H 462.735 5.0653 -0.480109 0
M  V30 4969 H 462.133 4.97125 2.69968 0
M  V30 4970 H 460.69 5.90133 2.76741 0
M  V30 4971 N 464.123 0.554532 1.47522 0
M  V30 4972 C 465.07 -0.19466 2.29978 0
M  V30 4973 C 466.04 -0.910882 1.38896 0
M  V30 4974 O 467.225 -0.907102 1.67858 0
M  V30 4975 C 464.365 -1.22035 3.22802 0
M  V30 4976 C 463.478 -0.510474 4.28973 0
M  V30 4977 C 462.613 -1.52123 5.08952 0
M  V30 4978 C 461.652 -0.796173 6.069 0
M  V30 4979 N 460.789 -1.75363 6.79847 0
M  V30 4980 H 465.629 0.51461 2.93523 0
M  V30 4981 H 463.166 0.265607 1.44682 0
M  V30 4982 H 465.124 -1.8276 3.7504 0
M  V30 4983 H 463.754 -1.89769 2.61127 0
M  V30 4984 H 462.806 0.211234 3.79813 0
M  V30 4985 H 464.118 0.0576503 4.98767 0
M  V30 4986 H 463.272 -2.20207 5.65326 0
M  V30 4987 H 462.011 -2.12327 4.39054 0
M  V30 4988 H 461.016 -0.101388 5.49707 0
M  V30 4989 H 462.241 -0.199911 6.78806 0
M  V30 4990 H 460.187 -2.3443 6.12682 0
M  V30 4991 H 460.104 -1.23759 7.45801 0
M  V30 4992 H 461.372 -2.4257 7.40797 0
M  V30 4993 N 465.601 -1.54893 0.290851 0
M  V30 4994 C 466.548 -2.23138 -0.58974 0
M  V30 4995 C 467.518 -1.21036 -1.13752 0
M  V30 4996 O 468.703 -1.49626 -1.18392 0
M  V30 4997 C 465.843 -2.96811 -1.76061 0
M  V30 4998 C 464.956 -4.13665 -1.24519 0
M  V30 4999 C 464.091 -4.74944 -2.3791 0
M  V30 5000 C 463.13 -5.83963 -1.83451 0
M  V30 5001 N 462.267 -6.39239 -2.90376 0
M  V30 5002 H 467.107 -2.98 -0.00114915 0
M  V30 5003 H 464.644 -1.47096 0.0112006 0
M  V30 5004 H 466.602 -3.37751 -2.44909 0
M  V30 5005 H 465.232 -2.24344 -2.32098 0
M  V30 5006 H 464.284 -3.77737 -0.449288 0
M  V30 5007 H 465.596 -4.92238 -0.806424 0
M  V30 5008 H 464.75 -5.18684 -3.14724 0
M  V30 5009 H 463.489 -3.95682 -2.85109 0
M  V30 5010 H 462.494 -5.39657 -1.05122 0
M  V30 5011 H 463.719 -6.65103 -1.37169 0
M  V30 5012 H 461.665 -5.62864 -3.36927 0
M  V30 5013 H 461.582 -7.13129 -2.50965 0
M  V30 5014 H 462.85 -6.87637 -3.67118 0
M  V30 5015 N 467.08 -0.0183926 -1.57589 0
M  V30 5016 C 468.01 0.965596 -2.12599 0
M  V30 5017 C 468.991 1.34641 -1.0395 0
M  V30 5018 O 470.176 1.42693 -1.31729 0
M  V30 5019 C 467.306 2.25149 -2.64434 0
M  V30 5020 C 466.26 2.01175 -3.77773 0
M  V30 5021 C 465.586 3.35937 -4.15994 0
M  V30 5022 C 466.886 1.35953 -5.04296 0
M  V30 5023 H 468.58 0.507504 -2.95067 0
M  V30 5024 H 466.126 0.242671 -1.41941 0
M  V30 5025 H 468.079 2.94357 -3.01549 0
M  V30 5026 H 466.803 2.73105 -1.79112 0
M  V30 5027 H 465.462 1.34388 -3.4108 0
M  V30 5028 H 465.11 3.81631 -3.27669 0
M  V30 5029 H 464.81 3.20705 -4.92364 0
M  V30 5030 H 466.334 4.0643 -4.55683 0
M  V30 5031 H 467.748 1.95144 -5.39065 0
M  V30 5032 H 466.145 1.31152 -5.85593 0
M  V30 5033 H 467.215 0.331071 -4.83768 0
M  V30 5034 N 468.558 1.5553 0.254621 0
M  V30 5035 C 469.49 1.86104 1.33783 0
M  V30 5036 C 470.503 0.746752 1.44663 0
M  V30 5037 O 471.692 1.0248 1.46151 0
M  V30 5038 C 468.792 2.02532 2.71724 0
M  V30 5039 C 467.965 3.33335 2.83208 0
M  V30 5040 C 467.024 3.396 4.01943 0
M  V30 5041 O 466.05 4.12862 3.91834 0
M  V30 5042 N 467.252 2.68332 5.1476 0
M  V30 5043 H 470.017 2.79605 1.07893 0
M  V30 5044 H 467.578 1.55672 0.444732 0
M  V30 5045 H 469.57 2.04074 3.4948 0
M  V30 5046 H 468.14 1.15811 2.90356 0
M  V30 5047 H 467.36 3.44176 1.92189 0
M  V30 5048 H 468.648 4.19565 2.87824 0
M  V30 5049 H 468.046 2.08528 5.25864 0
M  V30 5050 H 466.603 2.75575 5.90679 0
M  V30 5051 N 470.036 -0.519951 1.48776 0
M  V30 5052 C 470.946 -1.65025 1.66745 0
M  V30 5053 C 471.962 -1.6508 0.549954 0
M  V30 5054 O 473.138 -1.83848 0.822295 0
M  V30 5055 C 470.203 -3.0146 1.71238 0
M  V30 5056 C 469.264 -3.12182 2.94688 0
M  V30 5057 C 468.497 -4.42109 2.98958 0
M  V30 5058 O 468.72 -5.29799 2.1135 0
M  V30 5059 O 467.654 -4.57406 3.91233 0
M  V30 5060 H 471.48 -1.52801 2.62461 0
M  V30 5061 H 469.065 -0.694157 1.32294 0
M  V30 5062 H 470.947 -3.82584 1.76657 0
M  V30 5063 H 469.622 -3.13988 0.786975 0
M  V30 5064 H 468.529 -2.30316 2.94797 0
M  V30 5065 H 469.862 -3.04574 3.86646 0
M  V30 5066 N 471.514 -1.37532 -0.769588 0
M  V30 5067 C 472.761 -1.3286 -1.52822 0
M  V30 5068 C 473.089 0.0862597 -1.94309 0
M  V30 5069 O 472.344 1.05995 -1.6451 0
M  V30 5070 C 472.643 -2.21558 -2.8044 0
M  V30 5071 C 472.309 -3.69796 -2.57996 0
M  V30 5072 C 470.971 -4.10194 -2.51583 0
M  V30 5073 C 473.323 -4.63699 -2.37976 0
M  V30 5074 C 470.651 -5.42608 -2.23144 0
M  V30 5075 C 473.003 -5.96353 -2.1106 0
M  V30 5076 C 471.667 -6.35853 -2.03093 0
M  V30 5077 H 470.937 -0.486168 -0.559215 0
M  V30 5078 H 473.584 -1.69757 -0.886277 0
M  V30 5079 H 471.889 -1.77663 -3.49204 0
M  V30 5080 H 473.586 -2.15256 -3.38328 0
M  V30 5081 H 470.176 -3.37759 -2.63851 0
M  V30 5082 H 474.36 -4.33346 -2.41919 0
M  V30 5083 H 469.616 -5.72173 -2.15472 0
M  V30 5084 H 473.79 -6.68667 -1.94568 0
M  V30 5085 H 471.417 -7.38382 -1.8082 0
M  V30 5086 N 472.992 0.995999 -1.22138 0
M  V30 5087 C 473.94 2.10673 -0.985876 0
M  V30 5088 C 474.934 1.69255 0.0699553 0
M  V30 5089 O 476.14 1.79812 -0.0822176 0
M  V30 5090 H 472.515 0.688865 -0.30161 0
M  V30 5091 H 474.486 2.27711 -1.92848 0
M  V30 5092 C 473.235 3.42881 -0.576909 0
M  V30 5093 H 472.558 3.75191 -1.38101 0
M  V30 5094 H 473.998 4.21589 -0.451518 0
M  V30 5095 C 472.457 3.29265 0.713196 0
M  V30 5096 O 472.987 3.60777 1.76643 0
M  V30 5097 N 471.193 2.82456 0.683162 0
M  V30 5098 H 470.74 2.5701 -0.174242 0
M  V30 5099 H 470.698 2.73727 1.54663 0
M  V30 5100 N 474.47 1.03057 1.19235 0
M  V30 5101 C 475.433 0.617418 2.20727 0
M  V30 5102 C 476.433 -0.319856 1.57587 0
M  V30 5103 O 477.623 -0.106633 1.73873 0
M  V30 5104 C 474.755 -0.096296 3.40764 0
M  V30 5105 H 475.948 1.51544 2.58794 0
M  V30 5106 H 473.501 0.821949 1.32942 0
M  V30 5107 H 474.236 -1.00859 3.08217 0
M  V30 5108 H 474.021 0.577217 3.87828 0
M  V30 5109 H 475.511 -0.372219 4.15938 0
M  V30 5110 N 475.948 -1.35272 0.808662 0
M  V30 5111 C 477.364 -1.51806 0.492653 0
M  V30 5112 C 477.564 -1.7574 -0.985778 0
M  V30 5113 O 476.62 -1.80003 -1.77074 0
M  V30 5114 C 477.933 -2.69202 1.33981 0
M  V30 5115 C 479.481 -2.8308 1.33547 0
M  V30 5116 C 479.956 -4.03502 2.16679 0
M  V30 5117 N 481.447 -4.10684 2.14227 0
M  V30 5118 C 482.182 -5.02984 2.75308 0
M  V30 5119 N 481.678 -6.00603 3.45323 0
M  V30 5120 N 483.471 -4.95746 2.64938 0
M  V30 5121 H 475.622 -1.17993 1.76611 0
M  V30 5122 H 477.885 -0.577476 0.751814 0
M  V30 5123 H 477.591 -2.581 2.38909 0
M  V30 5124 H 477.465 -3.63854 0.994491 0
M  V30 5125 H 479.852 -2.93631 0.294036 0
M  V30 5126 H 479.933 -1.89278 1.72068 0
M  V30 5127 H 479.577 -3.93711 3.20864 0
M  V30 5128 H 479.507 -4.96489 1.75517 0
M  V30 5129 H 481.998 -3.40802 1.63285 0
M  V30 5130 H 482.311 -6.67633 3.89212 0
M  V30 5131 H 480.656 -6.0077 3.49428 0
M  V30 5132 H 483.847 -4.18439 2.09825 0
M  V30 5133 H 484.02 -5.67487 3.12829 0
M  V30 5134 N 477.426 -0.562348 -1.47226 0
M  V30 5135 C 478.842 -0.222492 -1.58042 0
M  V30 5136 C 479.042 1.27505 -1.56028 0
M  V30 5137 O 478.098 2.05555 -1.46641 0
M  V30 5138 C 479.411 -0.853694 -2.88327 0
M  V30 5139 C 480.959 -0.825397 -3.01921 0
M  V30 5140 C 481.434 -1.43576 -4.34914 0
M  V30 5141 N 482.925 -1.39918 -4.41562 0
M  V30 5142 C 483.66 -1.84103 -5.43041 0
M  V30 5143 N 483.156 -2.36167 -6.51304 0
M  V30 5144 N 484.949 -1.75142 -5.34118 0
M  V30 5145 H 477.1 -1.53525 -1.46778 0
M  V30 5146 H 479.363 -0.640527 -0.698877 0
M  V30 5147 H 479.069 -1.90635 -2.95552 0
M  V30 5148 H 478.943 -0.34977 -3.75575 0
M  V30 5149 H 481.33 0.218583 -2.94289 0
M  V30 5150 H 481.411 -1.36713 -2.16202 0
M  V30 5151 H 481.055 -2.47884 -4.43301 0
M  V30 5152 H 480.985 -0.869427 -5.19373 0
M  V30 5153 H 483.476 -1.0184 -3.63919 0
M  V30 5154 H 483.789 -2.67793 -7.24919 0
M  V30 5155 H 482.134 -2.40181 -6.52179 0
M  V30 5156 H 485.325 -1.34241 -4.48439 0
M  V30 5157 H 485.498 -2.09895 -6.13065 0
M  V30 5158 N 478.904 1.54736 -0.299062 0
M  V30 5159 C 479.851 2.23448 0.577899 0
M  V30 5160 C 480.821 1.21637 1.13109 0
M  V30 5161 O 482.006 1.50252 1.17597 0
M  V30 5162 C 479.146 2.9774 1.74484 0
M  V30 5163 C 478.259 4.1432 1.22323 0
M  V30 5164 C 477.394 4.76199 2.35388 0
M  V30 5165 C 476.433 5.84927 1.80351 0
M  V30 5166 N 475.57 6.4077 2.86982 0
M  V30 5167 H 480.41 2.97996 -0.0146545 0
M  V30 5168 H 477.947 1.47088 -0.0190013 0
M  V30 5169 H 479.905 3.39045 2.43114 0
M  V30 5170 H 478.535 2.25572 2.30905 0
M  V30 5171 H 477.587 3.7797 0.429249 0
M  V30 5172 H 478.899 4.92659 0.780309 0
M  V30 5173 H 478.053 5.20346 3.11969 0
M  V30 5174 H 476.792 3.97188 2.83006 0
M  V30 5175 H 475.797 5.40207 1.02259 0
M  V30 5176 H 477.022 6.65821 1.3364 0
M  V30 5177 H 474.968 5.64643 3.33938 0
M  V30 5178 H 474.885 7.1445 2.4718 0
M  V30 5179 H 476.153 6.89574 3.63466 0
M  V30 5180 N 480.382 0.0267497 1.57577 0
M  V30 5181 C 481.312 -0.954308 2.13108 0
M  V30 5182 C 482.293 -1.34088 1.04663 0
M  V30 5183 O 483.478 -1.41992 1.32484 0
M  V30 5184 C 480.608 -2.23744 2.65624 0
M  V30 5185 C 479.562 -1.99168 3.78835 0
M  V30 5186 C 478.888 -3.33726 4.17769 0
M  V30 5187 C 480.188 -1.33277 5.0501 0
M  V30 5188 H 481.882 -0.491848 2.95332 0
M  V30 5189 H 479.428 -0.23514 1.42067 0
M  V30 5190 H 481.381 -2.92754 3.03106 0
M  V30 5191 H 480.105 -2.72151 1.80558 0
M  V30 5192 H 478.764 -1.32577 3.41788 0
M  V30 5193 H 478.412 -3.79888 3.29688 0
M  V30 5194 H 478.112 -3.18089 4.94058 0
M  V30 5195 H 479.636 -4.04008 4.57832 0
M  V30 5196 H 481.05 -1.92283 5.40093 0
M  V30 5197 H 479.447 -1.28045 5.8628 0
M  V30 5198 H 480.517 -0.305411 4.83937 0
M  V30 5199 N 481.861 -1.55662 -0.24637 0
M  V30 5200 C 482.808 -1.90361 -1.30504 0
M  V30 5201 C 483.778 -0.757905 -1.47801 0
M  V30 5202 O 484.963 -1.01161 -1.61775 0
M  V30 5203 C 482.103 -2.2042 -2.65535 0
M  V30 5204 C 481.216 -3.47799 -2.56242 0
M  V30 5205 C 480.351 -3.67426 -3.8363 0
M  V30 5206 C 479.39 -4.88403 -3.68956 0
M  V30 5207 N 478.527 -5.04548 -4.88237 0
M  V30 5208 H 483.367 -2.80645 -1.00213 0
M  V30 5209 H 480.904 -1.38924 -0.483577 0
M  V30 5210 H 482.862 -2.35853 -3.44135 0
M  V30 5211 H 481.492 -1.3334 -2.93973 0
M  V30 5212 H 480.544 -3.40694 -1.69208 0
M  V30 5213 H 481.856 -4.36544 -2.4131 0
M  V30 5214 H 481.01 -3.82821 -4.70673 0
M  V30 5215 H 479.749 -2.76914 -4.01459 0
M  V30 5216 H 478.754 -4.72984 -2.80296 0
M  V30 5217 H 479.979 -5.80375 -3.52621 0
M  V30 5218 H 477.925 -4.16974 -5.06427 0
M  V30 5219 H 477.842 -5.87384 -4.75937 0
M  V30 5220 H 479.11 -5.24355 -5.76777 0
M  V30 5221 N 483.339 0.512053 -1.4905 0
M  V30 5222 C 484.302 1.59704 -1.64399 0
M  V30 5223 C 485.302 1.52285 -0.516317 0
M  V30 5224 O 486.492 1.55635 -0.782527 0
M  V30 5225 C 483.624 2.9935 -1.63102 0
M  V30 5226 H 484.817 1.47428 -2.61161 0
M  V30 5227 H 482.37 0.735469 -1.37915 0
M  V30 5228 H 483.105 3.17116 -0.678836 0
M  V30 5229 H 482.89 3.06144 -2.44986 0
M  V30 5230 H 484.38 3.782 -1.77072 0
M  V30 5231 N 484.817 1.37938 0.762283 0
M  V30 5232 C 485.78 1.34279 1.85747 0
M  V30 5233 C 486.78 0.244969 1.58923 0
M  V30 5234 O 487.97 0.501365 1.66829 0
M  V30 5235 C 485.102 1.08833 3.23061 0
M  V30 5236 H 486.295 2.31705 1.90401 0
M  V30 5237 H 483.848 1.23105 0.963057 0
M  V30 5238 H 484.583 0.119767 3.24079 0
M  V30 5239 H 484.368 1.88306 3.43923 0
M  V30 5240 H 485.858 1.08946 4.03138 0
M  V30 5241 N 486.295 -0.989507 1.22664 0
M  V30 5242 C 487.541 -1.7321 1.05481 0
M  V30 5243 C 487.874 -1.89852 -0.408635 0
M  V30 5244 O 487.149 -1.44416 -1.30285 0
M  V30 5245 C 487.432 -3.1357 1.77047 0
M  V30 5246 C 487.285 -3.04555 3.31008 0
M  V30 5247 C 488.604 -4.12812 1.5256 0
M  V30 5248 H 485.723 -0.628697 0.384589 0
M  V30 5249 H 488.365 -1.15258 1.51049 0
M  V30 5250 H 486.515 -3.63046 1.3831 0
M  V30 5251 H 488.187 -2.62674 3.7921 0
M  V30 5252 H 486.43 -2.41278 3.6051 0
M  V30 5253 H 487.101 -4.03894 3.76263 0
M  V30 5254 H 489.577 -3.72106 1.86215 0
M  V30 5255 H 488.453 -5.09132 2.05124 0
M  V30 5256 H 488.714 -4.39711 0.458936 0
M  V30 5257 N 487.773 -1.03688 -1.18687 0
M  V30 5258 C 488.72 -0.624624 -2.22187 0
M  V30 5259 C 489.69 0.365636 -1.62026 0
M  V30 5260 O 490.875 0.260481 -1.89014 0
M  V30 5261 C 488.015 0.0101738 -3.45099 0
M  V30 5262 C 487.128 -1.02709 -4.19613 0
M  V30 5263 C 486.263 -0.361213 -5.2997 0
M  V30 5264 C 485.302 -1.38384 -5.96252 0
M  V30 5265 N 484.439 -0.743196 -6.98155 0
M  V30 5266 H 489.279 -1.51176 -2.56807 0
M  V30 5267 H 486.816 -0.75636 -1.26165 0
M  V30 5268 H 488.774 0.395528 -4.15321 0
M  V30 5269 H 487.404 0.860848 -3.1111 0
M  V30 5270 H 486.456 -1.53043 -3.48256 0
M  V30 5271 H 487.768 -1.80398 -4.65036 0
M  V30 5272 H 486.922 0.0785537 -6.06649 0
M  V30 5273 H 485.661 0.447799 -4.8564 0
M  V30 5274 H 484.666 -1.83378 -5.18317 0
M  V30 5275 H 485.891 -2.19448 -6.42666 0
M  V30 5276 H 483.837 0.0455789 -6.55984 0
M  V30 5277 H 483.754 -1.45784 -7.41811 0
M  V30 5278 H 485.022 -0.327698 -7.78811 0
M  V30 5279 N 489.251 1.34841 -0.815825 0
M  V30 5280 C 490.214 2.27959 -0.238185 0
M  V30 5281 C 491.214 1.49983 0.579816 0
M  V30 5282 O 492.404 1.69617 0.396953 0
M  V30 5283 C 489.536 3.34314 0.666876 0
M  V30 5284 H 490.729 2.80558 -1.05958 0
M  V30 5285 H 488.282 1.44852 -0.587156 0
M  V30 5286 H 489.017 2.86916 1.5116 0
M  V30 5287 H 488.802 3.92014 0.0819106 0
M  V30 5288 H 490.292 4.0379 1.06506 0
M  V30 5289 N 490.729 0.570148 1.46925 0
M  V30 5290 C 491.975 0.0510284 2.02736 0
M  V30 5291 C 492.308 -1.3006 1.44215 0
M  V30 5292 O 491.583 -1.84932 0.602521 0
M  V30 5293 C 491.866 -0.028215 3.60089 0
M  V30 5294 C 491.719 1.35142 4.29018 0
M  V30 5295 C 493.038 -0.735181 4.33916 0
M  V30 5296 H 490.157 0.0200178 0.736728 0
M  V30 5297 H 492.799 0.73493 1.75211 0
M  V30 5298 H 490.949 -0.610648 3.83671 0
M  V30 5299 H 492.621 1.97806 4.16738 0
M  V30 5300 H 490.864 1.9226 3.88868 0
M  V30 5301 H 491.535 1.24857 5.37694 0
M  V30 5302 H 494.011 -0.240519 4.15404 0
M  V30 5303 H 492.887 -0.759622 5.43618 0
M  V30 5304 H 493.148 -1.79397 4.04066 0
M  V30 5305 N 492.207 -1.54576 0.307264 0
M  V30 5306 C 493.453 -2.0056 -0.300612 0
M  V30 5307 C 493.786 -1.1953 -1.53057 0
M  V30 5308 O 493.061 -0.27337 -1.92569 0
M  V30 5309 C 493.344 -3.54167 -0.650987 0
M  V30 5310 C 493.197 -4.45933 0.588539 0
M  V30 5311 C 494.516 -4.14645 -1.47506 0
M  V30 5312 H 491.635 -0.729075 -0.107788 0
M  V30 5313 H 494.277 -1.85286 0.420606 0
M  V30 5314 H 492.427 -3.67313 -1.26544 0
M  V30 5315 H 494.099 -4.44683 1.22697 0
M  V30 5316 H 492.342 -4.16274 1.22058 0
M  V30 5317 H 493.013 -5.51189 0.299153 0
M  V30 5318 H 495.489 -4.04973 -0.955821 0
M  V30 5319 H 494.365 -5.22269 -1.68899 0
M  V30 5320 H 494.626 -3.66921 -2.4662 0
M  V30 5321 N 493.685 -0.035106 -1.57561 0
M  V30 5322 C 494.648 0.929819 -2.09492 0
M  V30 5323 C 495.648 1.25026 -1.01119 0
M  V30 5324 O 496.838 1.18961 -1.27255 0
M  V30 5325 C 493.97 2.24457 -2.56577 0
M  V30 5326 H 495.163 0.479935 -2.96035 0
M  V30 5327 H 492.716 0.213033 -1.54841 0
M  V30 5328 H 493.451 2.74061 -1.73382 0
M  V30 5329 H 493.236 2.02508 -3.35757 0
M  V30 5330 H 494.726 2.93607 -2.96959 0
M  V30 5331 N 495.163 1.55791 0.238111 0
M  V30 5332 C 496.388 1.8244 0.986432 0
M  V30 5333 C 496.813 0.613314 1.7782 0
M  V30 5334 O 496.171 -0.437767 1.75935 0
M  V30 5335 C 496.219 3.06917 1.893 0
M  V30 5336 O 495.323 2.84449 2.98601 0
M  V30 5337 H 494.664 0.601975 0.280218 0
M  V30 5338 H 497.194 2.02987 0.256437 0
M  V30 5339 H 497.204 3.36583 2.30598 0
M  V30 5340 H 495.879 3.947 1.31091 0
M  V30 5341 H 494.456 2.65972 2.61368 0
M  V30 5342 N 496.642 -0.504142 1.49319 0
M  V30 5343 C 497.867 -1.28729 1.62615 0
M  V30 5344 C 498.292 -1.85752 0.296309 0
M  V30 5345 O 497.65 -1.65704 -0.735649 0
M  V30 5346 C 497.698 -2.39561 2.69524 0
M  V30 5347 O 496.802 -3.43324 2.28478 0
M  V30 5348 H 496.143 -0.380172 0.544395 0
M  V30 5349 H 498.673 -0.603872 1.95485 0
M  V30 5350 H 498.683 -2.8537 2.91595 0
M  V30 5351 H 497.358 -1.97423 3.66056 0
M  V30 5352 H 495.935 -3.03455 2.16725 0
M  V30 5353 N 498.12 -1.38341 -0.754957 0
M  V30 5354 C 499.536 -1.19508 -1.05783 0
M  V30 5355 C 499.736 -0.0428005 -2.01455 0
M  V30 5356 O 498.792 0.611861 -2.44975 0
M  V30 5357 C 500.105 -2.52091 -1.63923 0
M  V30 5358 C 501.653 -2.58762 -1.76101 0
M  V30 5359 C 502.128 -3.91517 -2.37652 0
M  V30 5360 N 503.619 -3.93049 -2.45085 0
M  V30 5361 C 504.354 -4.9253 -2.93602 0
M  V30 5362 N 503.85 -6.02408 -3.42165 0
M  V30 5363 N 505.643 -4.79921 -2.92629 0
M  V30 5364 H 497.794 -2.1206 -0.120056 0
M  V30 5365 H 500.057 -0.94089 -0.11589 0
M  V30 5366 H 499.763 -3.36858 -1.01093 0
M  V30 5367 H 499.637 -2.70388 -2.63003 0
M  V30 5368 H 502.024 -1.74391 -2.38058 0
M  V30 5369 H 502.105 -2.44333 -0.757294 0
M  V30 5370 H 501.749 -4.76309 -1.76329 0
M  V30 5371 H 501.679 -4.03256 -3.38662 0
M  V30 5372 H 504.17 -3.13685 -2.10736 0
M  V30 5373 H 504.483 -6.74248 -3.77637 0
M  V30 5374 H 502.828 -6.0603 -3.40225 0
M  V30 5375 H 506.019 -3.93194 -2.54001 0
M  V30 5376 H 506.192 -5.57601 -3.30128 0
M  V30 5377 N 499.598 0.982988 -1.23187 0
M  V30 5378 C 500.528 2.09301 -1.03515 0
M  V30 5379 C 501.509 1.70035 0.0471136 0
M  V30 5380 O 502.694 1.93847 -0.117029 0
M  V30 5381 C 499.824 3.4167 -0.622791 0
M  V30 5382 C 498.778 3.94828 -1.65211 0
M  V30 5383 C 498.104 5.23362 -1.09527 0
M  V30 5384 C 499.404 4.2439 -3.04451 0
M  V30 5385 H 501.098 2.26016 -1.96359 0
M  V30 5386 H 498.644 1.08611 -0.945501 0
M  V30 5387 H 500.597 4.18746 -0.472233 0
M  V30 5388 H 499.321 3.24811 0.341329 0
M  V30 5389 H 497.98 3.19895 -1.79061 0
M  V30 5390 H 497.628 5.02852 -0.122211 0
M  V30 5391 H 497.328 5.59895 -1.783 0
M  V30 5392 H 498.852 6.03062 -0.956511 0
M  V30 5393 H 500.266 4.92225 -2.93917 0
M  V30 5394 H 498.663 4.72118 -3.70438 0
M  V30 5395 H 499.733 3.31765 -3.53638 0
M  V30 5396 N 501.076 1.04316 1.18135 0
M  V30 5397 C 502.324 0.746542 1.87806 0
M  V30 5398 C 502.645 -0.728082 1.80898 0
M  V30 5399 O 501.915 -1.52554 1.22899 0
M  V30 5400 H 500.495 0.273157 0.695265 0
M  V30 5401 H 503.157 1.32044 1.43354 0
M  V30 5402 H 502.253 1.05362 2.93778 0
M  V30 5403 N 502.554 -1.34406 0.822964 0
M  V30 5404 C 503.779 -2.0304 0.423034 0
M  V30 5405 C 504.204 -1.61568 -0.963196 0
M  V30 5406 O 503.562 -0.800339 -1.62678 0
M  V30 5407 C 503.61 -3.56636 0.53321 0
M  V30 5408 O 502.714 -4.09971 -0.446939 0
M  V30 5409 H 502.055 -0.64075 0.174171 0
M  V30 5410 H 504.585 -1.71653 1.11339 0
M  V30 5411 H 504.595 -4.05945 0.408991 0
M  V30 5412 H 503.27 -3.86168 1.54425 0
M  V30 5413 H 501.847 -3.71835 -0.281601 0
M  V30 5414 N 504.032 -0.577932 -1.46621 0
M  V30 5415 C 504.995 0.147805 -2.28723 0
M  V30 5416 C 505.995 0.823325 -1.38123 0
M  V30 5417 O 507.185 0.676011 -1.60548 0
M  V30 5418 C 504.317 1.21853 -3.18378 0
M  V30 5419 H 505.51 -0.573654 -2.94362 0
M  V30 5420 H 503.063 -0.335703 -1.52652 0
M  V30 5421 H 503.798 1.97173 -2.57475 0
M  V30 5422 H 503.583 0.738714 -3.85078 0
M  V30 5423 H 505.073 1.72768 -3.80186 0
M  V30 5424 N 505.51 1.54411 -0.315457 0
M  V30 5425 C 506.735 2.05299 0.294496 0
M  V30 5426 C 507.16 1.19052 1.4563 0
M  V30 5427 O 506.518 0.197804 1.80218 0
M  V30 5428 C 506.566 3.5345 0.714549 0
M  V30 5429 O 505.67 3.70175 1.81781 0
M  V30 5430 H 505.011 0.661743 0.0547019 0
M  V30 5431 H 507.541 1.99327 -0.461508 0
M  V30 5432 H 507.551 3.9557 0.999426 0
M  V30 5433 H 506.226 4.1568 -0.135244 0
M  V30 5434 H 504.803 3.3996 1.53236 0
M  V30 5435 N 506.988 0.0434614 1.5754 0
M  V30 5436 C 508.213 -0.645358 1.97104 0
M  V30 5437 C 508.638 -1.64037 0.920521 0
M  V30 5438 O 507.996 -1.80922 -0.11708 0
M  V30 5439 C 508.044 -1.31547 3.35749 0
M  V30 5440 O 507.148 -2.43103 3.33129 0
M  V30 5441 H 506.489 -0.168403 0.64229 0
M  V30 5442 H 509.019 0.109573 2.04306 0
M  V30 5443 H 509.029 -1.66895 3.72304 0
M  V30 5444 H 507.704 -0.586205 4.11748 0
M  V30 5445 H 506.281 -2.0976 3.0831 0
M  V30 5446 N 508.466 -1.55915 -0.229846 0
M  V30 5447 C 509.691 -1.8296 -0.976743 0
M  V30 5448 C 510.116 -0.622735 -1.77493 0
M  V30 5449 O 509.474 0.428431 -1.76165 0
M  V30 5450 C 509.522 -3.07916 -1.8767 0
M  V30 5451 O 508.626 -2.86028 -2.97088 0
M  V30 5452 H 507.967 -0.603453 -0.277021 0
M  V30 5453 H 510.497 -2.0312 -0.245669 0
M  V30 5454 H 510.507 -3.37802 -2.2881 0
M  V30 5455 H 509.182 -3.95389 -1.28996 0
M  V30 5456 H 507.759 -2.67355 -2.59954 0
M  V30 5457 N 509.944 0.496216 -1.49584 0
M  V30 5458 C 510.894 1.59422 -1.62999 0
M  V30 5459 C 511.878 1.53402 -0.485457 0
M  V30 5460 O 513.07 1.60851 -0.738649 0
M  V30 5461 C 510.199 2.98009 -1.70427 0
M  V30 5462 C 509.285 3.09008 -2.90473 0
M  V30 5463 N 509.676 2.89884 -4.14489 0
M  V30 5464 C 507.974 3.40115 -2.8851 0
M  V30 5465 C 508.675 3.0519 -4.95211 0
M  V30 5466 N 507.651 3.3428 -4.2867 0
M  V30 5467 H 511.453 1.43297 -2.56599 0
M  V30 5468 H 508.967 0.702443 -1.46422 0
M  V30 5469 H 510.964 3.76926 -1.78136 0
M  V30 5470 H 509.624 3.152 -0.77967 0
M  V30 5471 H 510.635 2.65963 -4.44392 0
M  V30 5472 H 507.312 3.63452 -2.05448 0
M  V30 5473 H 508.702 2.94856 -6.03746 0
M  V30 5474 N 511.423 1.38739 0.74761 0
M  V30 5475 C 512.671 1.35007 1.50391 0
M  V30 5476 C 512.992 -0.0574274 1.94915 0
M  V30 5477 O 512.262 -1.00628 1.6808 0
M  V30 5478 H 510.842 0.496784 0.557866 0
M  V30 5479 H 513.504 1.73479 0.888319 0
M  V30 5480 H 512.6 2.00474 2.392 0
M  V30 5481 N 512.901 -0.976442 1.23707 0
M  V30 5482 C 514.126 -1.75875 1.09922 0
M  V30 5483 C 514.551 -1.84911 -0.34489 0
M  V30 5484 O 513.909 -1.31363 -1.24954 0
M  V30 5485 C 513.957 -3.16179 1.73388 0
M  V30 5486 O 513.061 -4.00124 0.99871 0
M  V30 5487 H 512.402 -0.540954 0.385052 0
M  V30 5488 H 514.932 -1.22546 1.6384 0
M  V30 5489 H 514.942 -3.66741 1.78788 0
M  V30 5490 H 513.617 -3.08917 2.78466 0
M  V30 5491 H 512.194 -3.58624 1.02193 0
M  V30 5492 N 514.379 -1.04941 -1.1758 0
M  V30 5493 C 515.628 -0.753124 -1.87112 0
M  V30 5494 C 515.941 0.722507 -1.81767 0
M  V30 5495 O 517.147 1.13265 -2.46746 0
M  V30 5496 C 515.603 -1.29695 -3.35719 0
M  V30 5497 C 515.211 -2.80184 -3.49572 0
M  V30 5498 C 516.955 -1.07759 -4.10595 0
M  V30 5499 C 514.862 -3.2788 -4.92187 0
M  V30 5500 H 513.792 -0.278034 -0.700866 0
M  V30 5501 H 516.443 -1.26637 -1.32798 0
M  V30 5502 H 514.825 -0.711522 -3.89555 0
M  V30 5503 H 515.999 -3.44561 -3.05965 0
M  V30 5504 H 514.314 -3.00632 -2.88113 0
M  V30 5505 H 516.911 -1.40899 -5.15802 0
M  V30 5506 H 517.254 -0.0152302 -4.16297 0
M  V30 5507 H 517.787 -1.62809 -3.62957 0
M  V30 5508 H 514.526 -4.33535 -4.91658 0
M  V30 5509 H 514.046 -2.68245 -5.36475 0
M  V30 5510 H 515.725 -3.22412 -5.60945 0
M  V30 5511 N 515.857 1.33968 -0.830081 0
M  V30 5512 C 516.789 2.28194 -0.21448 0
M  V30 5513 C 517.802 1.5135 0.599752 0
M  V30 5514 O 518.991 1.73286 0.42826 0
M  V30 5515 C 516.091 3.31221 0.717356 0
M  V30 5516 C 515.264 4.37365 -0.055613 0
M  V30 5517 C 514.323 5.2011 0.798231 0
M  V30 5518 O 513.349 5.68691 0.240616 0
M  V30 5519 N 514.551 5.40523 2.11695 0
M  V30 5520 H 517.316 2.81662 -1.02405 0
M  V30 5521 H 514.877 1.46568 -0.687713 0
M  V30 5522 H 516.869 3.83477 1.29334 0
M  V30 5523 H 515.439 2.78095 1.42765 0
M  V30 5524 H 514.659 3.85727 -0.812936 0
M  V30 5525 H 515.947 5.05397 -0.587444 0
M  V30 5526 H 515.345 5.0274 2.59363 0
M  V30 5527 H 513.902 5.95871 2.64162 0
M  V30 5528 N 517.335 0.585699 1.46312 0
M  V30 5529 C 518.245 -0.148236 2.34131 0
M  V30 5530 C 519.261 -0.882972 1.49932 0
M  V30 5531 O 520.437 -0.845484 1.82794 0
M  V30 5532 C 517.502 -1.14714 3.27172 0
M  V30 5533 C 516.563 -0.416746 4.27272 0
M  V30 5534 C 515.796 -1.36806 5.15868 0
M  V30 5535 O 516.019 -2.60475 5.07454 0
M  V30 5536 O 514.953 -0.877018 5.95476 0
M  V30 5537 H 518.779 0.572882 2.98248 0
M  V30 5538 H 516.364 0.346082 1.45336 0
M  V30 5539 H 518.246 -1.72303 3.84564 0
M  V30 5540 H 516.921 -1.84967 2.65648 0
M  V30 5541 H 515.828 0.201061 3.73559 0
M  V30 5542 H 517.161 0.244872 4.9159 0
M  V30 5543 N 518.813 -1.54241 0.323641 0
M  V30 5544 C 520.038 -2.05452 -0.283605 0
M  V30 5545 C 520.463 -1.19823 -1.44997 0
M  V30 5546 O 519.821 -0.207358 -1.8011 0
M  V30 5547 C 519.869 -3.53823 -0.695795 0
M  V30 5548 O 518.973 -3.71134 -1.79815 0
M  V30 5549 H 518.314 -0.662024 -0.0511917 0
M  V30 5550 H 520.844 -1.99079 0.472073 0
M  V30 5551 H 520.854 -3.96094 -0.978434 0
M  V30 5552 H 519.529 -4.15602 0.157287 0
M  V30 5553 H 518.106 -3.40768 -1.51431 0
M  V30 5554 N 520.291 -0.0518155 -1.57515 0
M  V30 5555 C 521.241 0.932017 -2.0808 0
M  V30 5556 C 522.225 1.27141 -0.986098 0
M  V30 5557 O 523.417 1.25373 -1.24943 0
M  V30 5558 C 520.546 2.20665 -2.62986 0
M  V30 5559 C 519.632 1.89462 -3.79427 0
M  V30 5560 N 520.023 1.28621 -4.89173 0
M  V30 5561 C 518.321 2.19327 -3.88345 0
M  V30 5562 C 519.022 1.15062 -5.70207 0
M  V30 5563 N 517.998 1.65372 -5.17835 0
M  V30 5564 H 521.8 0.456964 -2.90326 0
M  V30 5565 H 519.314 0.152619 -1.61681 0
M  V30 5566 H 521.311 2.92044 -2.97516 0
M  V30 5567 H 519.971 2.68776 -1.8218 0
M  V30 5568 H 520.982 0.958341 -5.08956 0
M  V30 5569 H 517.659 2.69955 -3.18482 0
M  V30 5570 H 519.049 0.678243 -6.68468 0
M  V30 5571 N 521.769 1.56035 0.221574 0
M  V30 5572 C 522.716 1.92413 1.27459 0
M  V30 5573 C 523.686 0.781323 1.46576 0
M  V30 5574 O 524.871 1.03721 1.60145 0
M  V30 5575 C 522.011 2.24617 2.61995 0
M  V30 5576 C 521.124 3.51831 2.50677 0
M  V30 5577 C 520.259 3.73482 3.77736 0
M  V30 5578 C 519.298 4.94211 3.6114 0
M  V30 5579 N 518.435 5.12252 4.80148 0
M  V30 5580 H 523.275 2.82203 0.957355 0
M  V30 5581 H 520.812 1.39676 0.461415 0
M  V30 5582 H 522.77 2.41298 3.40339 0
M  V30 5583 H 521.4 1.38 2.91815 0
M  V30 5584 H 520.452 3.43343 1.63767 0
M  V30 5585 H 521.764 4.40328 2.34334 0
M  V30 5586 H 520.918 3.9026 4.64523 0
M  V30 5587 H 519.657 2.83266 3.97003 0
M  V30 5588 H 518.662 4.77384 2.72736 0
M  V30 5589 H 519.887 5.85912 3.43343 0
M  V30 5590 H 517.833 4.24978 4.99729 0
M  V30 5591 H 517.75 5.94881 4.66532 0
M  V30 5592 H 519.018 5.33465 5.68362 0
M  V30 5593 N 523.247 -0.488276 1.49845 0
M  V30 5594 C 524.21 -1.57069 1.66919 0
M  V30 5595 C 525.21 -1.51445 0.540479 0
M  V30 5596 O 526.4 -1.5437 0.807188 0
M  V30 5597 C 523.532 -2.96718 1.67844 0
M  V30 5598 H 524.725 -1.43254 2.63474 0
M  V30 5599 H 522.278 -0.713435 1.39068 0
M  V30 5600 H 523.013 -3.15996 0.7292 0
M  V30 5601 H 522.798 -3.02208 2.49826 0
M  V30 5602 H 524.288 -3.75335 1.83066 0
M  V30 5603 N 524.725 -1.39134 -0.740242 0
M  V30 5604 C 525.95 -1.39518 -1.53459 0
M  V30 5605 C 526.375 0.00968883 -1.88098 0
M  V30 5606 O 525.733 0.995312 -1.51536 0
M  V30 5607 C 525.781 -2.26981 -2.802 0
M  V30 5608 O 524.885 -1.69609 -3.75908 0
M  V30 5609 H 524.226 -0.475328 -0.463637 0
M  V30 5610 H 526.756 -1.83064 -0.913717 0
M  V30 5611 H 526.766 -2.41309 -3.28989 0
M  V30 5612 H 525.441 -3.29081 -2.5432 0
M  V30 5613 H 524.018 -1.64495 -3.34658 0
M  V30 5614 N 526.204 0.969867 -1.24223 0
M  V30 5615 C 527.62 1.23809 -1.00716 0
M  V30 5616 C 527.82 1.99469 0.285358 0
M  V30 5617 O 526.876 2.31764 1.00207 0
M  V30 5618 C 528.189 2.02734 -2.2208 0
M  V30 5619 C 529.737 2.15834 -2.26681 0
M  V30 5620 C 530.212 2.98154 -3.47661 0
M  V30 5621 N 531.703 3.05737 -3.47964 0
M  V30 5622 C 532.438 3.69785 -4.38231 0
M  V30 5623 N 531.934 4.35569 -5.3875 0
M  V30 5624 N 533.727 3.66775 -4.25949 0
M  V30 5625 H 525.878 0.463294 -2.07286 0
M  V30 5626 H 528.141 0.267348 -0.909521 0
M  V30 5627 H 527.847 1.54524 -3.15935 0
M  V30 5628 H 527.721 3.0347 -2.24021 0
M  V30 5629 H 530.108 2.63248 -1.33359 0
M  V30 5630 H 530.189 1.14453 -2.28767 0
M  V30 5631 H 529.833 2.51435 -4.41297 0
M  V30 5632 H 529.763 3.99729 -3.42818 0
M  V30 5633 H 532.254 2.58941 -2.75242 0
M  V30 5634 H 532.567 4.82251 -6.03866 0
M  V30 5635 H 530.912 4.34244 -5.42639 0
M  V30 5636 H 534.103 3.14558 -3.46657 0
M  V30 5637 H 534.276 4.16407 -4.96497 0
M  V30 5638 N 527.682 1.05563 1.17022 0
M  V30 5639 C 528.959 0.68165 1.83338 0
M  V30 5640 C 529.339 -0.837665 1.93769 0
M  V30 5641 O 528.687 -1.74507 1.47511 0
M  V30 5642 C 528.897 1.375 3.20772 0
M  V30 5643 C 530.245 1.51545 3.96635 0
M  V30 5644 O 531.269 1.33431 3.30264 0
M  V30 5645 O 530.128 1.812 5.15586 0
M  V30 5646 H 527.222 0.240412 0.791285 0
M  V30 5647 H 529.768 1.15545 1.24288 0
M  V30 5648 H 528.54 2.41135 3.08171 0
M  V30 5649 H 528.163 0.890798 3.87493 0
M  V30 5650 N 529.16 -1.33526 0.837174 0
M  V30 5651 C 530.571 -1.80182 0.489017 0
M  V30 5652 C 530.922 -1.69285 -0.991826 0
M  V30 5653 O 530.047 -1.24113 -1.77271 0
M  V30 5654 C 530.642 -3.27149 0.880866 0
M  V30 5655 C 529.201 -3.71828 0.584872 0
M  V30 5656 C 528.348 -2.54974 1.09011 0
M  V30 5657 H 531.299 -1.21071 1.02603 0
M  V30 5658 H 531.32 -3.80024 0.190239 0
M  V30 5659 H 530.832 -3.35048 1.95869 0
M  V30 5660 H 528.933 -3.69457 -0.48295 0
M  V30 5661 H 529.046 -4.65366 1.13892 0
M  V30 5662 H 527.41 -2.4952 0.511047 0
M  V30 5663 H 528.193 -2.65637 2.17467 0
M  V30 5664 N 530.638 -0.59345 -1.46 0
M  V30 5665 C 531.863 -0.0872365 -2.07216 0
M  V30 5666 C 532.288 1.2131 -1.43755 0
M  V30 5667 O 531.646 1.73528 -0.525152 0
M  V30 5668 C 531.694 0.0538197 -3.6056 0
M  V30 5669 O 530.798 1.10765 -3.97247 0
M  V30 5670 H 530.139 -0.0676598 -0.660544 0
M  V30 5671 H 532.669 -0.819445 -1.87473 0
M  V30 5672 H 532.679 0.256567 -4.07193 0
M  V30 5673 H 531.354 -0.895739 -4.0614 0
M  V30 5674 H 529.931 0.882501 -3.62307 0
M  V30 5675 N 532.116 1.54067 -0.331816 0
M  V30 5676 C 533.527 1.86059 0.15454 0
M  V30 5677 C 533.878 1.25331 1.50952 0
M  V30 5678 O 533.003 0.562441 2.08963 0
M  V30 5679 C 533.598 3.37581 0.287192 0
M  V30 5680 C 532.157 3.69493 0.717773 0
M  V30 5681 C 531.304 2.76863 -0.155569 0
M  V30 5682 H 534.255 1.48797 -0.55182 0
M  V30 5683 H 534.276 3.63744 1.11671 0
M  V30 5684 H 533.788 3.81751 -0.699131 0
M  V30 5685 H 531.889 3.3086 1.71354 0
M  V30 5686 H 532.002 4.76315 0.5158 0
M  V30 5687 H 530.366 2.51995 0.370213 0
M  V30 5688 H 531.149 3.23861 -1.13881 0
M  V30 5689 N 533.594 0.0601682 1.57485 0
M  V30 5690 C 534.843 -0.611101 1.9222 0
M  V30 5691 C 535.156 -1.71469 0.941159 0
M  V30 5692 O 536.362 -2.44473 1.18089 0
M  V30 5693 C 534.818 -1.13832 3.41424 0
M  V30 5694 C 534.426 -0.0663596 4.47951 0
M  V30 5695 C 536.17 -1.78432 3.85178 0
M  V30 5696 C 534.077 -0.606965 5.88277 0
M  V30 5697 H 533.007 -0.232033 0.71741 0
M  V30 5698 H 535.658 0.130518 1.83035 0
M  V30 5699 H 534.04 -1.93254 3.45643 0
M  V30 5700 H 535.214 0.707682 4.55333 0
M  V30 5701 H 533.529 0.482715 4.13593 0
M  V30 5702 H 536.126 -2.1989 4.87394 0
M  V30 5703 H 536.469 -2.63966 3.21913 0
M  V30 5704 H 537.002 -1.05651 3.83514 0
M  V30 5705 H 533.741 0.21095 6.5516 0
M  V30 5706 H 533.261 -1.34879 5.84438 0
M  V30 5707 H 534.94 -1.08704 6.37803 0
M  V30 5708 N 535.072 -1.5615 -0.213296 0
M  V30 5709 C 536.004 -1.89586 -1.28802 0
M  V30 5710 C 537.017 -0.784844 -1.42633 0
M  V30 5711 O 538.206 -1.06319 -1.43383 0
M  V30 5712 C 535.306 -2.09665 -2.66259 0
M  V30 5713 C 534.479 -3.40726 -2.7427 0
M  V30 5714 C 533.538 -3.50137 -3.92798 0
M  V30 5715 O 532.564 -4.23105 -3.8075 0
M  V30 5716 N 533.766 -2.81886 -5.07465 0
M  V30 5717 H 536.531 -2.82368 -1.00442 0
M  V30 5718 H 534.092 -1.56796 -0.403302 0
M  V30 5719 H 536.084 -2.13268 -3.43946 0
M  V30 5720 H 534.654 -1.23469 -2.87183 0
M  V30 5721 H 533.874 -3.4915 -1.82997 0
M  V30 5722 H 535.162 -4.27048 -2.76599 0
M  V30 5723 H 534.56 -2.22397 -5.2015 0
M  V30 5724 H 533.117 -2.91139 -5.83165 0
M  V30 5725 N 536.55 0.480323 -1.50102 0
M  V30 5726 C 537.827 1.24159 -1.51142 0
M  V30 5727 C 538.207 2.09605 -0.250818 0
M  V30 5728 O 537.555 2.15274 0.766118 0
M  V30 5729 C 537.765 2.08057 -2.80202 0
M  V30 5730 C 539.113 2.66556 -3.30504 0
M  V30 5731 O 540.137 2.18308 -2.81461 0
M  V30 5732 O 538.996 3.54442 -4.15973 0
M  V30 5733 H 536.09 0.562928 -0.605839 0
M  V30 5734 H 538.636 0.492899 -1.62384 0
M  V30 5735 H 537.408 1.45032 -3.6343 0
M  V30 5736 H 537.031 2.90079 -2.71919 0
M  V30 5737 N 538.028 1.39524 0.732853 0
M  V30 5738 C 539.276 1.36594 1.48951 0
M  V30 5739 C 539.597 -0.0367507 1.94965 0
M  V30 5740 O 538.867 -0.988391 1.69138 0
M  V30 5741 H 537.447 0.502673 0.552566 0
M  V30 5742 H 540.109 1.74411 0.869869 0
M  V30 5743 H 539.205 2.03 2.3706 0
M  V30 5744 N 539.506 -0.963266 1.24736 0
M  V30 5745 C 540.454 -2.07985 1.04139 0
M  V30 5746 C 541.448 -1.69381 -0.0250556 0
M  V30 5747 O 542.654 -1.79531 0.129863 0
M  V30 5748 H 539.029 -0.680627 0.319768 0
M  V30 5749 H 541 -2.22517 1.98818 0
M  V30 5750 C 539.749 -3.4123 0.667615 0
M  V30 5751 H 539.072 -3.71397 1.48 0
M  V30 5752 H 540.512 -4.20244 0.563136 0
M  V30 5753 C 538.971 -3.3104 -0.625647 0
M  V30 5754 O 539.501 -3.65334 -1.67016 0
M  V30 5755 N 537.707 -2.84168 -0.608033 0
M  V30 5756 H 537.254 -2.56458 0.242323 0
M  V30 5757 H 537.212 -2.77732 -1.47352 0
M  V30 5758 N 540.985 -1.06182 -1.16461 0
M  V30 5759 C 541.895 -0.682671 -2.24448 0
M  V30 5760 C 542.911 0.30078 -1.71381 0
M  V30 5761 O 544.087 0.150376 -2.00838 0
M  V30 5762 C 541.152 -0.0737202 -3.46622 0
M  V30 5763 C 540.213 -1.10889 -4.14731 0
M  V30 5764 C 539.446 -0.528908 -5.31073 0
M  V30 5765 O 539.669 0.65868 -5.66584 0
M  V30 5766 O 538.603 -1.26805 -5.88391 0
M  V30 5767 H 542.429 -1.58291 -2.59187 0
M  V30 5768 H 540.014 -0.834013 -1.23954 0
M  V30 5769 H 541.896 0.264192 -4.20571 0
M  V30 5770 H 540.571 0.800015 -3.13658 0
M  V30 5771 H 539.478 -1.49896 -3.42756 0
M  V30 5772 H 540.811 -1.95412 -4.51747 0
M  V30 5773 N 542.463 1.3308 -0.844243 0
M  V30 5774 C 543.74 1.92178 -0.364261 0
M  V30 5775 C 544.12 1.76961 1.15101 0
M  V30 5776 O 543.468 1.16128 1.9679 0
M  V30 5777 C 543.678 3.393 -0.817106 0
M  V30 5778 C 545.026 4.16444 -0.828236 0
M  V30 5779 O 546.05 3.47975 -0.761062 0
M  V30 5780 O 544.909 5.38685 -0.920926 0
M  V30 5781 H 542.003 0.820411 -0.10419 0
M  V30 5782 H 544.549 1.41918 -0.930453 0
M  V30 5783 H 543.321 3.44272 -1.85991 0
M  V30 5784 H 542.944 3.96947 -0.227785 0
M  V30 5785 N 543.941 0.601185 1.45683 0
M  V30 5786 C 544.874 -0.17013 2.27565 0
M  V30 5787 C 545.852 -0.879661 1.36751 0
M  V30 5788 O 547.036 -0.889827 1.66176 0
M  V30 5789 C 544.163 -1.24568 3.14961 0
M  V30 5790 C 543.209 -0.639978 4.21671 0
M  V30 5791 S 544.042 0.547275 5.32696 0
M  V30 5792 C 545.198 -0.529019 6.2366 0
M  V30 5793 H 545.431 0.524583 2.92635 0
M  V30 5794 H 542.964 0.388537 1.49431 0
M  V30 5795 H 544.922 -1.86138 3.65873 0
M  V30 5796 H 543.583 -1.91243 2.49169 0
M  V30 5797 H 542.776 -1.44903 4.8272 0
M  V30 5798 H 542.378 -0.0995558 3.73867 0
M  V30 5799 H 544.67 -1.40981 6.62669 0
M  V30 5800 H 545.613 0.0451599 7.08086 0
M  V30 5801 H 546.021 -0.84147 5.58193 0
M  V30 5802 N 545.419 -1.53889 0.339982 0
M  V30 5803 C 546.366 -2.24902 -0.518452 0
M  V30 5804 C 547.336 -1.24593 -1.09844 0
M  V30 5805 O 548.521 -1.53317 -1.13572 0
M  V30 5806 C 545.661 -3.02262 -1.66529 0
M  V30 5807 C 544.774 -4.17418 -1.11295 0
M  V30 5808 C 543.909 -4.82273 -2.2268 0
M  V30 5809 C 542.948 -5.89503 -1.6478 0
M  V30 5810 N 542.085 -6.48153 -2.69893 0
M  V30 5811 H 546.925 -2.97853 0.0936579 0
M  V30 5812 H 544.462 -1.46986 0.0579924 0
M  V30 5813 H 546.42 -3.45371 -2.3404 0
M  V30 5814 H 545.05 -2.31614 -2.24844 0
M  V30 5815 H 544.102 -3.78976 -0.328886 0
M  V30 5816 H 545.414 -4.94554 -0.649414 0
M  V30 5817 H 544.568 -5.28435 -2.98063 0
M  V30 5818 H 543.307 -4.04552 -2.72376 0
M  V30 5819 H 542.312 -5.42728 -0.879004 0
M  V30 5820 H 543.537 -6.6913 -1.1594 0
M  V30 5821 H 541.483 -5.73298 -3.1885 0
M  V30 5822 H 541.4 -7.20752 -2.28151 0
M  V30 5823 H 542.668 -6.98968 -3.45056 0
M  V30 5824 N 546.897 -0.0685191 -1.57451 0
M  V30 5825 C 547.86 0.885173 -2.11417 0
M  V30 5826 C 548.86 1.22853 -1.03748 0
M  V30 5827 O 550.05 1.16235 -1.2975 0
M  V30 5828 C 547.182 2.18964 -2.61281 0
M  V30 5829 H 548.375 0.417034 -2.96986 0
M  V30 5830 H 545.928 0.18014 -1.55258 0
M  V30 5831 H 546.663 2.70321 -1.79156 0
M  V30 5832 H 546.448 1.9534 -3.39977 0
M  V30 5833 H 547.938 2.87242 -3.0312 0
M  V30 5834 N 548.375 1.56261 0.205012 0
M  V30 5835 C 549.624 1.79236 0.925058 0
M  V30 5836 C 549.937 0.640011 1.84833 0
M  V30 5837 O 551.143 0.753809 2.60826 0
M  V30 5838 C 549.599 3.17475 1.69522 0
M  V30 5839 C 549.207 4.40482 0.817269 0
M  V30 5840 C 550.951 3.49766 2.4055 0
M  V30 5841 C 548.858 5.69744 1.58573 0
M  V30 5842 H 547.788 0.668287 0.349153 0
M  V30 5843 H 550.439 1.82629 0.178544 0
M  V30 5844 H 548.821 3.08304 2.48526 0
M  V30 5845 H 549.995 4.60752 0.0665988 0
M  V30 5846 H 548.31 4.15827 0.218316 0
M  V30 5847 H 550.907 4.43573 2.98575 0
M  V30 5848 H 551.25 2.73041 3.14252 0
M  V30 5849 H 551.783 3.60341 1.68522 0
M  V30 5850 H 548.522 6.49407 0.891679 0
M  V30 5851 H 548.042 5.53509 2.31059 0
M  V30 5852 H 549.721 6.1051 2.14212 0
M  V30 5853 N 549.853 -0.472356 1.50355 0
M  V30 5854 C 551.264 -1.05326 1.54154 0
M  V30 5855 C 551.615 -1.93155 0.344303 0
M  V30 5856 O 550.74 -2.09479 -0.542928 0
M  V30 5857 C 551.335 -1.91691 2.79356 0
M  V30 5858 C 549.894 -2.44892 2.8584 0
M  V30 5859 C 549.041 -1.23205 2.48426 0
M  V30 5860 H 551.992 -0.255027 1.56637 0
M  V30 5861 H 552.013 -2.76742 2.6114 0
M  V30 5862 H 551.525 -1.27741 3.66475 0
M  V30 5863 H 549.626 -3.12399 2.0307 0
M  V30 5864 H 549.739 -2.80086 3.88701 0
M  V30 5865 H 548.103 -1.56643 2.00836 0
M  V30 5866 H 548.886 -0.609194 3.37852 0
M  V30 5867 N 551.331 -1.39911 -0.725443 0
M  V30 5868 C 552.241 -1.41688 -1.8698 0
M  V30 5869 C 553.257 -0.310579 -1.71206 0
M  V30 5870 O 554.433 -0.55359 -1.93642 0
M  V30 5871 C 551.498 -1.26811 -3.22676 0
M  V30 5872 C 550.559 -2.47497 -3.50776 0
M  V30 5873 C 549.792 -2.3332 -4.79997 0
M  V30 5874 O 550.015 -1.34175 -5.54394 0
M  V30 5875 O 548.949 -3.22498 -5.08211 0
M  V30 5876 H 552.775 -2.38171 -1.88436 0
M  V30 5877 H 550.36 -1.21128 -0.874548 0
M  V30 5878 H 552.242 -1.20684 -4.03749 0
M  V30 5879 H 550.917 -0.334289 -3.21969 0
M  V30 5880 H 549.824 -2.59201 -2.69751 0
M  V30 5881 H 551.157 -3.39606 -3.5627 0
M  V30 5882 N 552.809 0.956637 -1.25245 0
M  V30 5883 C 554.057 1.69764 -1.09657 0
M  V30 5884 C 554.378 1.91583 0.363464 0
M  V30 5885 O 553.648 1.50149 1.25825 0
M  V30 5886 H 552.228 0.629097 -0.402798 0
M  V30 5887 H 554.89 1.15026 -1.57337 0
M  V30 5888 H 553.986 2.67769 -1.60331 0
M  V30 5889 N 554.287 1.06798 1.15896 0
M  V30 5890 C 555.197 0.694564 2.24083 0
M  V30 5891 C 556.213 -0.291687 1.71538 0
M  V30 5892 O 557.389 -0.139723 2.00915 0
M  V30 5893 C 554.454 0.0921014 3.46578 0
M  V30 5894 C 553.515 1.13087 4.14137 0
M  V30 5895 C 552.748 0.557064 5.30785 0
M  V30 5896 O 552.971 -0.628623 5.66925 0
M  V30 5897 O 551.905 1.29924 5.8771 0
M  V30 5898 H 555.731 1.59663 2.58344 0
M  V30 5899 H 553.316 0.840575 1.2351 0
M  V30 5900 H 555.198 -0.241884 4.20705 0
M  V30 5901 H 553.873 -0.78337 3.14078 0
M  V30 5902 H 552.78 1.51712 3.41957 0
M  V30 5903 H 554.113 1.97805 4.50704 0
M  V30 5904 N 555.766 -1.3263 0.851289 0
M  V30 5905 C 556.713 -2.28952 0.291469 0
M  V30 5906 C 557.683 -1.54897 -0.599676 0
M  V30 5907 O 558.868 -1.83137 -0.535305 0
M  V30 5908 C 556.008 -3.41206 -0.516992 0
M  V30 5909 C 555.121 -4.30148 0.399566 0
M  V30 5910 C 554.256 -5.29527 -0.4212 0
M  V30 5911 C 553.295 -6.10112 0.492969 0
M  V30 5912 N 552.432 -7.01499 -0.290414 0
M  V30 5913 H 557.272 -2.76228 1.11813 0
M  V30 5914 H 554.809 -1.35907 0.562826 0
M  V30 5915 H 556.767 -4.05005 -1.00132 0
M  V30 5916 H 555.397 -2.9509 -1.30851 0
M  V30 5917 H 554.449 -3.66959 1.00227 0
M  V30 5918 H 555.761 -4.8649 1.1013 0
M  V30 5919 H 554.915 -5.98914 -0.968832 0
M  V30 5920 H 553.654 -4.73794 -1.15632 0
M  V30 5921 H 552.659 -5.39632 1.05251 0
M  V30 5922 H 553.884 -6.6793 1.22664 0
M  V30 5923 H 551.83 -6.48199 -1.00868 0
M  V30 5924 H 551.747 -7.55178 0.352354 0
M  V30 5925 H 553.015 -7.75176 -0.819882 0
M  V30 5926 N 557.244 -0.608902 -1.45362 0
M  V30 5927 C 558.493 -0.10218 -2.01441 0
M  V30 5928 C 558.806 1.27546 -1.48295 0
M  V30 5929 O 560.012 1.87498 -1.96359 0
M  V30 5930 C 558.468 -0.131985 -3.59658 0
M  V30 5931 C 558.076 -1.50956 -4.21801 0
M  V30 5932 C 559.82 0.319427 -4.23296 0
M  V30 5933 C 557.727 -1.49568 -5.72174 0
M  V30 5934 H 556.657 -0.0344314 -0.753213 0
M  V30 5935 H 559.308 -0.764426 -1.6682 0
M  V30 5936 H 557.69 0.596939 -3.91475 0
M  V30 5937 H 558.864 -2.26029 -4.01556 0
M  V30 5938 H 557.179 -1.90318 -3.70362 0
M  V30 5939 H 559.776 0.349013 -5.3356 0
M  V30 5940 H 560.119 1.34237 -3.94064 0
M  V30 5941 H 560.652 -0.356273 -3.96201 0
M  V30 5942 H 557.391 -2.49626 -6.06108 0
M  V30 5943 H 556.911 -0.787542 -5.94607 0
M  V30 5944 H 558.59 -1.21989 -6.35396 0
M  V30 5945 N 558.722 1.53707 -0.348139 0
M  V30 5946 C 559.654 2.22725 0.540946 0
M  V30 5947 C 560.667 1.2354 1.06027 0
M  V30 5948 O 561.856 1.49867 0.96964 0
M  V30 5949 C 558.956 2.89756 1.75768 0
M  V30 5950 C 558.129 4.15297 1.37285 0
M  V30 5951 C 557.188 4.65697 2.44976 0
M  V30 5952 O 556.214 5.29798 2.08092 0
M  V30 5953 N 557.416 4.42017 3.763 0
M  V30 5954 H 560.181 2.99658 -0.0501592 0
M  V30 5955 H 557.742 1.60979 -0.17248 0
M  V30 5956 H 559.734 3.20388 2.47252 0
M  V30 5957 H 558.304 2.16382 2.25605 0
M  V30 5958 H 557.524 3.9116 0.488584 0
M  V30 5959 H 558.812 4.96948 1.09179 0
M  V30 5960 H 558.21 3.9076 4.09051 0
M  V30 5961 H 556.767 4.77242 4.4394 0
M  V30 5962 N 560.2 0.0768682 1.57412 0
M  V30 5963 C 561.448 -0.589918 1.93299 0
M  V30 5964 C 561.769 -1.69842 0.958049 0
M  V30 5965 O 561.039 -1.95899 0.00703261 0
M  V30 5966 H 559.619 -0.220901 0.713591 0
M  V30 5967 H 562.281 0.135917 1.94425 0
M  V30 5968 H 561.377 -1.01195 2.95239 0
M  V30 5969 N 561.678 -1.56367 -0.196722 0
M  V30 5970 C 562.955 -1.71359 -0.943159 0
M  V30 5971 C 563.335 -0.631192 -2.01443 0
M  V30 5972 O 562.683 0.358071 -2.25677 0
M  V30 5973 C 562.893 -3.13623 -1.53106 0
M  V30 5974 C 564.241 -3.73806 -2.01381 0
M  V30 5975 O 565.265 -3.16742 -1.62951 0
M  V30 5976 O 564.124 -4.73951 -2.7209 0
M  V30 5977 H 561.218 -0.698851 -0.442195 0
M  V30 5978 H 563.764 -1.68672 -0.186547 0
M  V30 5979 H 562.536 -3.83873 -0.758785 0
M  V30 5980 H 562.159 -3.20532 -2.35255 0
M  V30 5981 N 563.156 0.464375 -1.50603 0
M  V30 5982 C 564.404 1.21356 -1.61608 0
M  V30 5983 C 564.725 1.92329 -0.321643 0
M  V30 5984 O 563.995 1.84403 0.661232 0
M  V30 5985 H 562.575 0.45094 -0.595535 0
M  V30 5986 H 565.237 0.535046 -1.87412 0
M  V30 5987 H 564.333 1.95783 -2.43054 0
M  V30 5988 N 564.634 1.40294 0.718013 0
M  V30 5989 C 565.597 1.4012 1.81381 0
M  V30 5990 C 566.597 0.295405 1.58063 0
M  V30 5991 O 567.787 0.554187 1.6515 0
M  V30 5992 C 564.919 1.19056 3.19435 0
M  V30 5993 H 566.112 2.37645 1.82933 0
M  V30 5994 H 563.665 1.26107 0.923405 0
M  V30 5995 H 564.4 0.222809 3.23534 0
M  V30 5996 H 564.185 1.99152 3.37758 0
M  V30 5997 H 565.675 1.21716 3.99468 0
M  V30 5998 N 566.112 -0.949982 1.2575 0
M  V30 5999 C 567.044 -2.05088 1.02331 0
M  V30 6000 C 568.057 -1.62795 -0.0133247 0
M  V30 6001 O 569.246 -1.77067 0.225759 0
M  V30 6002 C 566.346 -3.34794 0.525924 0
M  V30 6003 C 565.519 -4.05903 1.62978 0
M  V30 6004 C 564.578 -5.1388 1.13196 0
M  V30 6005 O 563.604 -5.39072 1.82729 0
M  V30 6006 N 564.806 -5.80495 -0.0242926 0
M  V30 6007 H 567.571 -2.25747 1.97125 0
M  V30 6008 H 565.132 -1.11886 1.17018 0
M  V30 6009 H 567.124 -4.04312 0.177263 0
M  V30 6010 H 565.694 -3.10872 -0.328202 0
M  V30 6011 H 564.914 -3.3042 2.1498 0
M  V30 6012 H 566.202 -4.50166 2.37124 0
M  V30 6013 H 565.6 -5.62454 -0.605184 0
M  V30 6014 H 564.157 -6.51043 -0.313947 0
M  V30 6015 N 567.59 -1.07411 -1.15328 0
M  V30 6016 C 568.553 -0.698914 -2.18284 0
M  V30 6017 C 569.553 0.261149 -1.58665 0
M  V30 6018 O 570.743 0.0420277 -1.74149 0
M  V30 6019 C 567.875 -0.0302427 -3.40887 0
M  V30 6020 H 569.068 -1.61045 -2.52991 0
M  V30 6021 H 566.621 -0.870724 -1.298 0
M  V30 6022 H 567.356 0.893505 -3.11748 0
M  V30 6023 H 567.141 -0.720759 -3.85419 0
M  V30 6024 H 568.631 0.21759 -4.17033 0
M  V30 6025 N 569.068 1.32177 -0.85831 0
M  V30 6026 C 570.031 2.27086 -0.310588 0
M  V30 6027 C 571.031 1.51751 0.531806 0
M  V30 6028 O 572.221 1.70794 0.34279 0
M  V30 6029 C 569.353 3.36266 0.560179 0
M  V30 6030 H 570.546 2.77045 -1.1483 0
M  V30 6031 H 568.099 1.42911 -0.632942 0
M  V30 6032 H 568.834 2.9158 1.41956 0
M  V30 6033 H 568.619 3.92077 -0.0428473 0
M  V30 6034 H 570.109 4.06974 0.936056 0
M  V30 6035 N 570.547 0.616602 1.45037 0
M  V30 6036 C 571.793 0.115501 2.02471 0
M  V30 6037 C 572.126 -1.25406 1.4828 0
M  V30 6038 O 571.401 -1.82922 0.661051 0
M  V30 6039 C 571.684 0.0863588 3.59996 0
M  V30 6040 C 571.537 1.48723 4.24501 0
M  V30 6041 C 572.856 -0.596762 4.36035 0
M  V30 6042 H 569.975 0.0434461 0.735718 0
M  V30 6043 H 572.617 0.7903 1.72784 0
M  V30 6044 H 570.767 -0.488277 3.85419 0
M  V30 6045 H 572.439 2.10964 4.10234 0
M  V30 6046 H 570.682 2.04534 3.82555 0
M  V30 6047 H 571.353 1.419 5.3345 0
M  V30 6048 H 573.829 -0.10824 4.15959 0
M  V30 6049 H 572.705 -0.586289 5.4576 0
M  V30 6050 H 572.966 -1.66451 4.09569 0
M  V30 6051 N 572.025 -1.5352 0.356285 0
M  V30 6052 C 572.972 -2.25439 -0.494569 0
M  V30 6053 C 573.942 -1.25752 -1.08516 0
M  V30 6054 O 575.127 -1.54513 -1.1194 0
M  V30 6055 C 572.267 -3.04011 -1.63313 0
M  V30 6056 C 571.38 -4.18574 -1.06862 0
M  V30 6057 C 570.515 -4.84607 -2.17552 0
M  V30 6058 C 569.554 -5.91218 -1.58518 0
M  V30 6059 N 568.691 -6.50979 -2.63003 0
M  V30 6060 H 573.531 -2.97737 0.125244 0
M  V30 6061 H 571.068 -1.46916 0.0735789 0
M  V30 6062 H 573.026 -3.47834 -2.30363 0
M  V30 6063 H 571.656 -2.33986 -2.22374 0
M  V30 6064 H 570.708 -3.79303 -0.288672 0
M  V30 6065 H 572.02 -4.95215 -0.596924 0
M  V30 6066 H 571.174 -5.31566 -2.92442 0
M  V30 6067 H 569.913 -4.07418 -2.6807 0
M  V30 6068 H 568.918 -5.4363 -0.821391 0
M  V30 6069 H 570.143 -6.70322 -1.08836 0
M  V30 6070 H 568.089 -5.76648 -3.12751 0
M  V30 6071 H 568.006 -7.23131 -2.20493 0
M  V30 6072 H 569.274 -7.02589 -3.37623 0
M  V30 6073 N 573.503 -0.0852151 -1.57369 0
M  V30 6074 C 574.751 0.579658 -1.93609 0
M  V30 6075 C 575.072 1.69332 -0.967043 0
M  V30 6076 O 574.342 1.95892 -0.0174215 0
M  V30 6077 H 572.922 0.217113 -0.714752 0
M  V30 6078 H 575.584 -0.146226 -1.94351 0
M  V30 6079 H 574.68 0.996276 -2.95771 0
M  V30 6080 N 574.981 1.5647 0.188427 0
M  V30 6081 C 575.944 1.9421 1.21718 0
M  V30 6082 C 576.944 0.823901 1.38089 0
M  V30 6083 O 578.134 1.09122 1.35787 0
M  V30 6084 C 575.266 2.22197 2.58537 0
M  V30 6085 H 576.459 2.86252 0.894418 0
M  V30 6086 H 574.012 1.50263 0.430211 0
M  V30 6087 H 574.747 1.32814 2.95856 0
M  V30 6088 H 574.532 3.03688 2.48025 0
M  V30 6089 H 576.022 2.52376 3.3271 0
M  V30 6090 N 576.459 -0.456382 1.50847 0
M  V30 6091 C 577.391 -1.57033 1.66953 0
M  V30 6092 C 578.404 -1.53207 0.550593 0
M  V30 6093 O 579.593 -1.58328 0.824285 0
M  V30 6094 C 576.693 -2.95937 1.65149 0
M  V30 6095 C 575.866 -3.24475 2.93317 0
M  V30 6096 C 574.925 -4.43007 2.83957 0
M  V30 6097 O 573.951 -4.42592 3.57912 0
M  V30 6098 N 575.153 -5.45503 1.9851 0
M  V30 6099 H 577.918 -1.43629 2.63042 0
M  V30 6100 H 575.479 -0.645037 1.48495 0
M  V30 6101 H 577.471 -3.73224 1.56481 0
M  V30 6102 H 576.041 -3.03036 0.767343 0
M  V30 6103 H 575.261 -2.35664 3.16 0
M  V30 6104 H 576.549 -3.4036 3.78196 0
M  V30 6105 H 575.947 -5.48668 1.37766 0
M  V30 6106 H 574.504 -6.21716 1.95735 0
M  V30 6107 N 577.937 -1.40673 -0.710563 0
M  V30 6108 C 578.9 -1.4108 -1.80635 0
M  V30 6109 C 579.9 -0.303783 -1.57904 0
M  V30 6110 O 581.09 -0.562937 -1.64853 0
M  V30 6111 C 578.222 -1.20748 -3.18799 0
M  V30 6112 H 579.415 -2.38612 -1.81671 0
M  V30 6113 H 576.968 -1.26595 -0.916704 0
M  V30 6114 H 577.703 -0.239964 -3.23411 0
M  V30 6115 H 577.488 -2.00941 -3.36698 0
M  V30 6116 H 578.978 -1.23833 -3.98817 0
M  V30 6117 N 579.415 0.9433 -1.26252 0
M  V30 6118 C 580.325 2.07532 -1.09397 0
M  V30 6119 C 581.341 1.73977 -0.0280449 0
M  V30 6120 O 582.517 2.00067 -0.231337 0
M  V30 6121 C 579.582 3.39002 -0.726523 0
M  V30 6122 C 578.643 3.86353 -1.87163 0
M  V30 6123 C 577.876 5.11549 -1.52162 0
M  V30 6124 O 578.099 5.68834 -0.422385 0
M  V30 6125 O 577.033 5.53889 -2.35565 0
M  V30 6126 H 580.859 2.24658 -2.04359 0
M  V30 6127 H 578.444 1.05988 -1.05295 0
M  V30 6128 H 580.326 4.18 -0.534236 0
M  V30 6129 H 579.001 3.2312 0.193721 0
M  V30 6130 H 577.908 3.0831 -2.11886 0
M  V30 6131 H 579.241 4.06752 -2.77152 0
M  V30 6132 N 580.893 1.08022 1.14757 0
M  V30 6133 C 581.823 0.728248 2.21853 0
M  V30 6134 C 582.804 -0.287486 1.67653 0
M  V30 6135 O 583.989 -0.158727 1.9355 0
M  V30 6136 C 581.119 0.132549 3.47047 0
M  V30 6137 C 580.073 1.07619 4.14249 0
M  V30 6138 C 579.399 0.342907 5.33599 0
M  V30 6139 C 580.699 2.41268 4.63235 0
M  V30 6140 H 582.393 1.62365 2.51551 0
M  V30 6141 H 579.939 0.782125 1.20908 0
M  V30 6142 H 581.892 -0.125665 4.21213 0
M  V30 6143 H 580.616 -0.797971 3.16702 0
M  V30 6144 H 579.275 1.31944 3.42033 0
M  V30 6145 H 578.923 -0.59129 4.99513 0
M  V30 6146 H 578.623 0.971955 5.79506 0
M  V30 6147 H 580.147 0.0926538 6.1053 0
M  V30 6148 H 581.561 2.21232 5.28894 0
M  V30 6149 H 579.958 2.9983 5.19829 0
M  V30 6150 H 581.028 3.03079 3.78512 0
M  V30 6151 N 582.371 -1.3172 0.865308 0
M  V30 6152 C 583.304 -2.26687 0.262376 0
M  V30 6153 C 584.282 -1.50894 -0.605787 0
M  V30 6154 O 585.466 -1.79982 -0.56024 0
M  V30 6155 C 582.593 -3.3281 -0.628915 0
M  V30 6156 C 581.639 -4.26172 0.167278 0
M  V30 6157 S 582.472 -5.12797 1.54272 0
M  V30 6158 C 583.628 -6.22438 0.657427 0
M  V30 6159 H 583.861 -2.77478 1.0674 0
M  V30 6160 H 581.394 -1.39414 0.663555 0
M  V30 6161 H 583.352 -3.94426 -1.13747 0
M  V30 6162 H 582.013 -2.80782 -1.40785 0
M  V30 6163 H 581.206 -5.01392 -0.51203 0
M  V30 6164 H 580.808 -3.69029 0.607777 0
M  V30 6165 H 583.1 -6.77368 -0.133925 0
M  V30 6166 H 584.043 -6.9451 1.38061 0
M  V30 6167 H 584.451 -5.64043 0.227044 0
M  V30 6168 N 583.85 -0.624285 -1.44708 0
M  V30 6169 C 584.797 0.0847135 -2.30644 0
M  V30 6170 C 585.767 0.843575 -1.43084 0
M  V30 6171 O 586.952 0.825982 -1.71995 0
M  V30 6172 C 584.091 1.06495 -3.28257 0
M  V30 6173 C 583.205 0.305224 -4.3092 0
M  V30 6174 C 582.34 1.27667 -5.1563 0
M  V30 6175 C 581.379 0.505706 -6.10007 0
M  V30 6176 N 580.516 1.42727 -6.8744 0
M  V30 6177 H 585.356 -0.654068 -2.90733 0
M  V30 6178 H 582.893 -0.334334 -1.4325 0
M  V30 6179 H 584.851 1.64658 -3.83332 0
M  V30 6180 H 583.481 1.77094 -2.69884 0
M  V30 6181 H 582.533 -0.392207 -3.78373 0
M  V30 6182 H 583.845 -0.295553 -4.97924 0
M  V30 6183 H 582.999 1.92984 -5.75189 0
M  V30 6184 H 581.738 1.91137 -4.48685 0
M  V30 6185 H 580.743 -0.160999 -5.49564 0
M  V30 6186 H 581.968 -0.124183 -6.78986 0
M  V30 6187 H 579.913 2.04931 -6.23169 0
M  V30 6188 H 579.831 0.880345 -7.50857 0
M  V30 6189 H 581.099 2.0695 -7.51526 0
M  V30 6190 N 585.328 1.53329 -0.364422 0
M  V30 6191 C 586.574 2.01537 0.225969 0
M  V30 6192 C 586.907 1.25128 1.48515 0
M  V30 6193 O 586.182 0.344653 1.91422 0
M  V30 6194 C 586.465 3.56339 0.519092 0
M  V30 6195 C 586.318 4.43441 -0.753639 0
M  V30 6196 C 587.637 4.19833 1.32015 0
M  V30 6197 H 584.756 0.732573 0.0806548 0
M  V30 6198 H 587.398 1.83597 -0.489084 0
M  V30 6199 H 585.548 3.71756 1.12825 0
M  V30 6200 H 587.22 4.39823 -1.39116 0
M  V30 6201 H 585.463 4.11457 -1.37424 0
M  V30 6202 H 586.134 5.49699 -0.503517 0
M  V30 6203 H 588.61 4.08242 0.804859 0
M  V30 6204 H 587.486 5.28177 1.49399 0
M  V30 6205 H 587.747 3.75821 2.32832 0
M  V30 6206 N 586.806 0.0935595 1.57322 0
M  V30 6207 C 587.738 -0.895923 2.10964 0
M  V30 6208 C 588.751 -1.24705 1.04654 0
M  V30 6209 O 589.94 -1.20044 1.32105 0
M  V30 6210 C 587.04 -2.20546 2.57318 0
M  V30 6211 C 586.213 -2.0299 3.87445 0
M  V30 6212 C 585.272 -3.17443 4.19662 0
M  V30 6213 O 584.298 -2.91474 4.88909 0
M  V30 6214 N 585.5 -4.43168 3.74943 0
M  V30 6215 H 588.265 -0.437788 2.96485 0
M  V30 6216 H 585.826 -0.0915863 1.61641 0
M  V30 6217 H 587.818 -2.9606 2.75917 0
M  V30 6218 H 586.388 -2.57789 1.76816 0
M  V30 6219 H 585.608 -1.11815 3.78009 0
M  V30 6220 H 586.896 -1.88535 4.7258 0
M  V30 6221 H 586.294 -4.67149 3.19043 0
M  V30 6222 H 584.851 -5.15637 3.987 0
M  V30 6223 N 588.284 -1.56567 -0.180126 0
M  V30 6224 C 589.247 -1.94852 -1.20686 0
M  V30 6225 C 590.247 -0.831212 -1.3765 0
M  V30 6226 O 591.437 -1.09841 -1.35206 0
M  V30 6227 C 588.569 -2.23565 -2.57355 0
M  V30 6228 H 589.762 -2.86722 -0.879225 0
M  V30 6229 H 587.315 -1.50489 -0.422237 0
M  V30 6230 H 588.05 -1.34381 -2.95148 0
M  V30 6231 H 587.835 -3.04999 -2.46411 0
M  V30 6232 H 589.325 -2.54137 -3.31367 0
M  V30 6233 N 589.762 0.448376 -1.51087 0
M  V30 6234 C 590.692 1.55102 -1.74544 0
M  V30 6235 C 591.673 1.59357 -0.594932 0
M  V30 6236 O 592.858 1.75261 -0.836491 0
M  V30 6237 C 589.988 2.93268 -1.86041 0
M  V30 6238 C 588.942 3.03877 -3.01402 0
M  V30 6239 C 588.268 4.43914 -2.98068 0
M  V30 6240 C 589.568 2.7898 -4.41551 0
M  V30 6241 H 591.262 1.35724 -2.66869 0
M  V30 6242 H 588.808 0.651498 -1.28419 0
M  V30 6243 H 590.761 3.70356 -2.01034 0
M  V30 6244 H 589.485 3.13853 -0.903548 0
M  V30 6245 H 588.144 2.29227 -2.86096 0
M  V30 6246 H 587.792 4.6145 -2.00182 0
M  V30 6247 H 587.492 4.51944 -3.75527 0
M  V30 6248 H 589.016 5.22991 -3.1514 0
M  V30 6249 H 590.43 3.45805 -4.57265 0
M  V30 6250 H 588.827 2.98431 -5.20633 0
M  V30 6251 H 589.897 1.74663 -4.5235 0
M  V30 6252 N 591.24 1.41047 0.703093 0
M  V30 6253 C 592.15 1.44645 1.84703 0
M  V30 6254 C 593.166 0.337778 1.7069 0
M  V30 6255 O 594.342 0.584327 1.92737 0
M  V30 6256 C 591.407 1.31928 3.20618 0
M  V30 6257 C 590.468 2.53047 3.46794 0
M  V30 6258 C 589.701 2.40927 4.76224 0
M  V30 6259 O 589.924 1.42978 5.5219 0
M  V30 6260 O 588.858 3.30543 5.03016 0
M  V30 6261 H 592.684 2.41139 1.84624 0
M  V30 6262 H 590.269 1.22504 0.855167 0
M  V30 6263 H 592.151 1.27092 4.01778 0
M  V30 6264 H 590.826 0.385469 3.21397 0
M  V30 6265 H 589.733 2.6346 2.65593 0
M  V30 6266 H 591.066 3.45231 3.50822 0
M  V30 6267 N 592.718 -0.936591 1.26751 0
M  V30 6268 C 593.665 -2.03597 1.08706 0
M  V30 6269 C 594.635 -1.66097 -0.00926542 0
M  V30 6270 O 595.82 -1.90199 0.151377 0
M  V30 6271 C 592.96 -3.3727 0.73094 0
M  V30 6272 C 592.073 -3.87778 1.90399 0
M  V30 6273 C 591.208 -5.09859 1.49056 0
M  V30 6274 C 590.247 -5.5264 2.63164 0
M  V30 6275 N 589.384 -6.65921 2.22471 0
M  V30 6276 H 594.224 -2.18364 2.02784 0
M  V30 6277 H 591.761 -1.06985 1.00958 0
M  V30 6278 H 593.719 -4.14128 0.505328 0
M  V30 6279 H 592.349 -3.22337 -0.172868 0
M  V30 6280 H 591.401 -3.07279 2.2424 0
M  V30 6281 H 592.713 -4.15464 2.76028 0
M  V30 6282 H 591.867 -5.9419 1.22567 0
M  V30 6283 H 590.606 -4.8393 0.60524 0
M  V30 6284 H 589.611 -4.66863 2.90377 0
M  V30 6285 H 590.836 -5.80568 3.52303 0
M  V30 6286 H 588.782 -6.41667 1.36379 0
M  V30 6287 H 588.699 -6.93216 3.01641 0
M  V30 6288 H 589.967 -7.53616 1.99205 0
M  V30 6289 N 594.196 -1.08629 -1.14182 0
M  V30 6290 C 595.442 -0.818556 -1.85546 0
M  V30 6291 C 595.775 0.654076 -1.82854 0
M  V30 6292 O 595.05 1.48099 -1.26083 0
M  V30 6293 C 595.333 -1.34397 -3.3408 0
M  V30 6294 C 595.186 -2.8821 -3.45333 0
M  V30 6295 C 596.505 -0.971069 -4.29253 0
M  V30 6296 H 593.624 -0.298821 -0.673702 0
M  V30 6297 H 596.266 -1.34629 -1.34071 0
M  V30 6298 H 594.416 -0.895064 -3.78049 0
M  V30 6299 H 596.088 -3.41488 -3.10134 0
M  V30 6300 H 594.331 -3.25756 -2.86471 0
M  V30 6301 H 595.002 -3.20047 -4.49749 0
M  V30 6302 H 597.478 -1.35809 -3.93313 0
M  V30 6303 H 596.354 -1.36586 -5.31635 0
M  V30 6304 H 596.615 0.121659 -4.41933 0
M  V30 6305 N 595.674 1.31259 -0.872281 0
M  V30 6306 C 596.621 2.28459 -0.327857 0
M  V30 6307 C 597.591 1.55831 0.574957 0
M  V30 6308 O 598.776 1.83965 0.506101 0
M  V30 6309 C 595.916 3.41985 0.462644 0
M  V30 6310 C 595.029 4.29458 -0.467949 0
M  V30 6311 C 594.164 5.30131 0.336903 0
M  V30 6312 C 593.203 6.0925 -0.58997 0
M  V30 6313 N 592.34 7.01872 0.178775 0
M  V30 6314 H 597.18 2.74414 -1.16193 0
M  V30 6315 H 594.717 1.34994 -0.584376 0
M  V30 6316 H 596.675 4.06547 0.936759 0
M  V30 6317 H 595.305 2.97134 1.2614 0
M  V30 6318 H 594.357 3.65318 -1.06052 0
M  V30 6319 H 595.669 4.84677 -1.17856 0
M  V30 6320 H 594.823 6.0038 0.873427 0
M  V30 6321 H 593.562 4.75573 1.08079 0
M  V30 6322 H 592.567 5.37889 -1.13823 0
M  V30 6323 H 593.792 6.65894 -1.33275 0
M  V30 6324 H 591.738 6.49721 0.905435 0
M  V30 6325 H 591.655 7.54522 -0.472452 0
M  V30 6326 H 592.923 7.76382 0.696454 0
M  V30 6327 N 597.152 0.631951 1.44375 0
M  V30 6328 C 598.4 0.136497 2.01639 0
M  V30 6329 C 598.721 -1.24637 1.49969 0
M  V30 6330 O 597.991 -1.82827 0.70363 0
M  V30 6331 H 596.571 0.0474703 0.74549 0
M  V30 6332 H 599.233 0.818837 1.76865 0
M  V30 6333 H 598.329 0.104817 3.11924 0
M  V30 6334 N 598.631 -1.53133 0.372548 0
M  V30 6335 C 599.594 -2.24569 -0.458389 0
M  V30 6336 C 600.594 -1.25603 -1.00402 0
M  V30 6337 O 601.784 -1.49827 -0.888672 0
M  V30 6338 C 598.916 -2.98783 -1.6414 0
M  V30 6339 H 600.109 -2.99436 0.166799 0
M  V30 6340 H 597.662 -1.55805 0.124357 0
M  V30 6341 H 598.397 -2.28176 -2.30448 0
M  V30 6342 H 598.182 -3.71404 -1.25704 0
M  V30 6343 H 599.672 -3.53068 -2.23008 0
M  V30 6344 N 600.109 -0.101901 -1.5727 0
M  V30 6345 C 601.386 0.602832 -1.86079 0
M  V30 6346 C 601.766 1.85912 -1 0
M  V30 6347 O 601.114 2.28379 -0.0742488 0
M  V30 6348 C 601.324 0.911694 -3.36881 0
M  V30 6349 C 602.672 1.2722 -4.05093 0
M  V30 6350 O 603.696 1.0025 -3.41802 0
M  V30 6351 O 602.555 1.7776 -5.16782 0
M  V30 6352 H 599.649 0.302366 -0.769743 0
M  V30 6353 H 602.195 -0.135113 -1.69161 0
M  V30 6354 H 600.967 0.0207256 -3.91295 0
M  V30 6355 H 600.59 1.70538 -3.59169 0
M  V30 6356 N 601.587 1.56661 0.17182 0
M  V30 6357 C 602.836 1.81158 0.886831 0
M  V30 6358 C 603.149 0.679072 1.83434 0
M  V30 6359 O 604.355 0.808964 2.59168 0
M  V30 6360 C 602.811 3.20999 1.6275 0
M  V30 6361 C 602.419 4.42117 0.723652 0
M  V30 6362 C 604.163 3.5479 2.33076 0
M  V30 6363 C 602.07 5.7298 1.46452 0
M  V30 6364 H 601 0.675543 0.334899 0
M  V30 6365 H 603.651 1.82967 0.139765 0
M  V30 6366 H 602.033 3.13506 2.4193 0
M  V30 6367 H 603.207 4.60789 -0.0311485 0
M  V30 6368 H 601.522 4.16197 0.130063 0
M  V30 6369 H 604.119 4.49806 2.89099 0
M  V30 6370 H 604.462 2.79646 3.08389 0
M  V30 6371 H 604.995 3.63834 1.6084 0
M  V30 6372 H 601.734 6.51152 0.753729 0
M  V30 6373 H 601.254 5.58285 2.19266 0
M  V30 6374 H 602.933 6.14916 2.01214 0
M  V30 6375 N 603.065 -0.440357 1.51323 0
M  V30 6376 C 604.013 -1.55492 1.72988 0
M  V30 6377 C 605.007 -1.58564 0.596138 0
M  V30 6378 O 606.213 -1.62345 0.777443 0
M  V30 6379 H 602.588 -0.516532 0.546533 0
M  V30 6380 H 604.559 -1.34392 2.66423 0
M  V30 6381 C 603.308 -2.93176 1.86931 0
M  V30 6382 H 602.631 -2.91543 2.73574 0
M  V30 6383 H 604.071 -3.70537 2.06103 0
M  V30 6384 C 602.53 -3.30988 0.628365 0
M  V30 6385 O 603.06 -4.01106 -0.218367 0
M  V30 6386 N 601.266 -2.86719 0.473339 0
M  V30 6387 H 600.813 -2.2983 1.16345 0
M  V30 6388 H 600.771 -3.12381 -0.355727 0
M  V30 6389 N 604.543 -1.41418 -0.695603 0
M  V30 6390 C 605.506 -1.42988 -1.79129 0
M  V30 6391 C 606.506 -0.320514 -1.57573 0
M  V30 6392 O 607.696 -0.58039 -1.64247 0
M  V30 6393 C 604.828 -1.24122 -3.175 0
M  V30 6394 H 606.021 -2.40526 -1.7913 0
M  V30 6395 H 603.574 -1.2756 -0.903225 0
M  V30 6396 H 604.309 -0.274253 -3.23138 0
M  V30 6397 H 604.094 -2.045 -3.34547 0
M  V30 6398 H 605.584 -1.28056 -3.97481 0
M  V30 6399 N 606.021 0.929856 -1.27246 0
M  V30 6400 C 606.931 2.0636 -1.11592 0
M  V30 6401 C 607.947 1.73938 -0.046496 0
M  V30 6402 O 609.123 1.9981 -0.252544 0
M  V30 6403 C 606.188 3.38213 -0.762437 0
M  V30 6404 C 605.249 3.84346 -1.9125 0
M  V30 6405 C 604.482 5.09906 -1.57579 0
M  V30 6406 O 604.705 5.68354 -0.482694 0
M  V30 6407 O 603.639 5.51359 -2.41426 0
M  V30 6408 H 607.465 2.22478 -2.0673 0
M  V30 6409 H 605.05 1.04865 -1.06413 0
M  V30 6410 H 606.932 4.1741 -0.57854 0
M  V30 6411 H 605.607 3.23307 0.159439 0
M  V30 6412 H 604.514 3.06045 -2.15144 0
M  V30 6413 H 605.847 4.0379 -2.81451 0
M  V30 6414 N 607.499 1.09233 1.13605 0
M  V30 6415 C 608.409 0.741939 2.22559 0
M  V30 6416 C 609.425 -0.255236 1.72118 0
M  V30 6417 O 610.601 -0.0970747 2.01166 0
M  V30 6418 C 607.666 0.165595 3.46304 0
M  V30 6419 C 606.727 1.21846 4.11645 0
M  V30 6420 C 605.96 0.669526 5.29484 0
M  V30 6421 O 606.183 -0.508228 5.68131 0
M  V30 6422 O 605.117 1.42361 5.84822 0
M  V30 6423 H 608.943 1.65107 2.54899 0
M  V30 6424 H 606.528 0.866584 1.21699 0
M  V30 6425 H 608.41 -0.152592 4.21124 0
M  V30 6426 H 607.085 -0.716573 3.15669 0
M  V30 6427 H 605.992 1.58931 3.38662 0
M  V30 6428 H 607.325 2.07321 4.46407 0
M  V30 6429 N 608.977 -1.30795 0.87923 0
M  V30 6430 C 609.94 -2.26563 0.346676 0
M  V30 6431 C 610.94 -1.52578 -0.507597 0
M  V30 6432 O 612.13 -1.71318 -0.315575 0
M  V30 6433 C 609.262 -3.37115 -0.506611 0
M  V30 6434 H 610.455 -2.75183 1.19223 0
M  V30 6435 H 608.008 -1.41886 0.655598 0
M  V30 6436 H 608.743 -2.93802 -1.37299 0
M  V30 6437 H 608.528 -3.91959 0.105218 0
M  V30 6438 H 610.018 -4.08412 -0.871192 0
M  V30 6439 N 610.455 -0.639598 -1.44038 0
M  V30 6440 C 611.866 -0.228866 -1.85292 0
M  V30 6441 C 612.217 1.22161 -1.53529 0
M  V30 6442 O 611.342 1.93064 -0.977518 0
M  V30 6443 C 611.937 -0.408592 -3.36327 0
M  V30 6444 C 610.496 -0.0522953 -3.76364 0
M  V30 6445 C 609.643 -0.717959 -2.67844 0
M  V30 6446 H 612.594 -0.844194 -1.34384 0
M  V30 6447 H 612.615 0.349968 -3.78887 0
M  V30 6448 H 612.127 -1.46435 -3.59414 0
M  V30 6449 H 610.228 1.0014 -3.58891 0
M  V30 6450 H 610.341 -0.468261 -4.76806 0
M  V30 6451 H 608.705 -0.152459 -2.54243 0
M  V30 6452 H 609.488 -1.77648 -2.93762 0
M  V30 6453 N 611.933 1.52934 -0.380664 0
M  V30 6454 C 612.88 2.26197 0.458641 0
M  V30 6455 C 613.85 1.27462 1.06502 0
M  V30 6456 O 615.035 1.56274 1.09467 0
M  V30 6457 C 612.175 3.06571 1.58456 0
M  V30 6458 C 611.288 4.20222 1.00189 0
M  V30 6459 C 610.423 4.88007 2.09815 0
M  V30 6460 C 609.462 5.93665 1.49092 0
M  V30 6461 N 608.599 6.55081 2.52613 0
M  V30 6462 H 613.439 2.975 -0.172595 0
M  V30 6463 H 610.976 1.4678 -0.0969426 0
M  V30 6464 H 612.934 3.51455 2.24801 0
M  V30 6465 H 611.564 2.37494 2.18624 0
M  V30 6466 H 610.616 3.79714 0.228292 0
M  V30 6467 H 611.928 4.96102 0.518064 0
M  V30 6468 H 611.082 5.36151 2.83948 0
M  V30 6469 H 609.821 4.11632 2.61555 0
M  V30 6470 H 608.826 5.44868 0.7348 0
M  V30 6471 H 610.051 6.71969 0.981582 0
M  V30 6472 H 607.997 5.8155 3.03538 0
M  V30 6473 H 607.914 7.26548 2.08961 0
M  V30 6474 H 609.182 7.07871 3.26402 0
M  V30 6475 N 613.412 0.11024 1.57214 0
M  V30 6476 C 614.345 -0.880224 2.1054 0
M  V30 6477 C 615.323 -1.26658 1.01964 0
M  V30 6478 O 616.507 -1.36917 1.29561 0
M  V30 6479 C 613.634 -2.17676 2.59489 0
M  V30 6480 C 612.68 -1.93914 3.79868 0
M  V30 6481 S 613.513 -1.16336 5.2271 0
M  V30 6482 C 614.669 -2.47188 5.75021 0
M  V30 6483 H 614.902 -0.426614 2.94223 0
M  V30 6484 H 612.435 -0.10336 1.54054 0
M  V30 6485 H 614.393 -2.92175 2.88347 0
M  V30 6486 H 613.054 -2.60156 1.76005 0
M  V30 6487 H 612.247 -2.8996 4.12236 0
M  V30 6488 H 611.849 -1.27539 3.51582 0
M  V30 6489 H 614.141 -3.43079 5.84211 0
M  V30 6490 H 615.084 -2.19377 6.7326 0
M  V30 6491 H 615.492 -2.56154 5.03036 0
M  V30 6492 N 614.89 -1.56749 -0.16351 0
M  V30 6493 C 616.136 -1.82704 -0.880168 0
M  V30 6494 C 616.469 -0.689311 -1.81555 0
M  V30 6495 O 615.744 0.308224 -1.92042 0
M  V30 6496 C 616.027 -3.19084 -1.66905 0
M  V30 6497 C 615.88 -4.43397 -0.756269 0
M  V30 6498 C 617.199 -3.52493 -2.63509 0
M  V30 6499 H 614.318 -0.664608 -0.318535 0
M  V30 6500 H 616.96 -1.89438 -0.146036 0
M  V30 6501 H 615.11 -3.13475 -2.2949 0
M  V30 6502 H 616.782 -4.61079 -0.14269 0
M  V30 6503 H 615.025 -4.33752 -0.0647944 0
M  V30 6504 H 615.696 -5.3539 -1.34393 0
M  V30 6505 H 618.172 -3.58606 -2.11047 0
M  V30 6506 H 617.048 -4.48979 -3.15767 0
M  V30 6507 H 617.309 -2.77597 -3.44082 0
M  V30 6508 N 616.368 0.432326 -1.51554 0
M  V30 6509 C 617.779 1.01202 -1.56892 0
M  V30 6510 C 618.13 1.92175 -0.395394 0
M  V30 6511 O 617.255 2.10844 0.487198 0
M  V30 6512 C 617.85 1.84217 -2.8434 0
M  V30 6513 C 616.409 2.37228 -2.92233 0
M  V30 6514 C 615.556 1.16576 -2.51606 0
M  V30 6515 H 618.507 0.213407 -1.57259 0
M  V30 6516 H 618.528 2.69721 -2.68385 0
M  V30 6517 H 618.04 1.17979 -3.69733 0
M  V30 6518 H 616.141 3.06905 -2.11282 0
M  V30 6519 H 616.254 2.69682 -3.95991 0
M  V30 6520 H 614.618 1.51263 -2.04919 0
M  V30 6521 H 615.401 0.519404 -3.39348 0
M  V30 6522 N 617.846 1.41785 0.688094 0
M  V30 6523 C 618.793 1.44221 1.80191 0
M  V30 6524 C 619.763 0.295688 1.63447 0
M  V30 6525 O 620.948 0.49783 1.84191 0
M  V30 6526 C 618.088 1.33743 3.1813 0
M  V30 6527 C 617.201 2.58325 3.46254 0
M  V30 6528 C 616.336 2.40086 4.73848 0
M  V30 6529 C 615.375 3.60107 4.94964 0
M  V30 6530 N 614.512 3.40892 6.13789 0
M  V30 6531 H 619.352 2.39411 1.77444 0
M  V30 6532 H 616.889 1.18876 0.866423 0
M  V30 6533 H 618.847 1.25669 3.97823 0
M  V30 6534 H 617.477 0.42157 3.20035 0
M  V30 6535 H 616.529 2.7682 2.60912 0
M  V30 6536 H 617.841 3.4758 3.57756 0
M  V30 6537 H 616.995 2.29522 5.61609 0
M  V30 6538 H 615.734 1.483 4.64606 0
M  V30 6539 H 614.739 3.71118 4.05649 0
M  V30 6540 H 615.964 4.52857 5.06061 0
M  V30 6541 H 613.91 2.51812 6.05745 0
M  V30 6542 H 613.827 4.23727 6.26092 0
M  V30 6543 H 615.095 3.34114 7.04264 0
M  V30 6544 N 619.324 -0.923095 1.27737 0
M  V30 6545 C 620.287 -2.00587 1.10894 0
M  V30 6546 C 621.287 -1.60718 0.0514927 0
M  V30 6547 O 622.477 -1.71658 0.296481 0
M  V30 6548 C 619.609 -3.33829 0.690717 0
M  V30 6549 H 620.802 -2.16959 2.07048 0
M  V30 6550 H 618.355 -1.10451 1.1059 0
M  V30 6551 H 619.09 -3.23157 -0.272 0
M  V30 6552 H 618.875 -3.64125 1.45448 0
M  V30 6553 H 620.365 -4.13336 0.595252 0
M  V30 6554 N 620.802 -1.09834 -1.13024 0
M  V30 6555 C 622.048 -0.83819 -1.84668 0
M  V30 6556 C 622.381 0.634645 -1.83537 0
M  V30 6557 O 621.656 1.46753 -1.27647 0
M  V30 6558 C 621.939 -1.37933 -3.32636 0
M  V30 6559 C 621.792 -2.91857 -3.42257 0
M  V30 6560 C 623.111 -1.01654 -4.28199 0
M  V30 6561 H 620.23 -0.30595 -0.670495 0
M  V30 6562 H 622.872 -1.36044 -1.32635 0
M  V30 6563 H 621.022 -0.935111 -3.77078 0
M  V30 6564 H 622.694 -3.44759 -3.06495 0
M  V30 6565 H 620.937 -3.28776 -2.83 0
M  V30 6566 H 621.608 -3.24799 -4.46329 0
M  V30 6567 H 624.084 -1.39973 -3.9185 0
M  V30 6568 H 622.96 -1.42217 -5.30156 0
M  V30 6569 H 623.221 0.0747794 -4.42037 0
M  V30 6570 N 622.28 1.30327 -0.886154 0
M  V30 6571 C 623.19 2.31854 -0.357866 0
M  V30 6572 C 624.206 1.65392 0.540502 0
M  V30 6573 O 625.382 1.96683 0.433339 0
M  V30 6574 C 622.447 3.44171 0.417999 0
M  V30 6575 C 621.508 4.26257 -0.510263 0
M  V30 6576 C 620.741 5.3321 0.228669 0
M  V30 6577 O 620.964 5.51542 1.45458 0
M  V30 6578 O 619.898 6.0042 -0.421832 0
M  V30 6579 H 623.724 2.78995 -1.19982 0
M  V30 6580 H 621.309 1.34518 -0.650028 0
M  V30 6581 H 623.191 4.12588 0.857251 0
M  V30 6582 H 621.866 2.99164 1.23623 0
M  V30 6583 H 620.773 3.60533 -0.99835 0
M  V30 6584 H 622.106 4.74871 -1.29454 0
M  V30 6585 N 623.758 0.647228 1.43697 0
M  V30 6586 C 625.035 0.0883758 1.954 0
M  V30 6587 C 625.415 -1.39006 1.58873 0
M  V30 6588 O 624.763 -2.11255 0.87083 0
M  V30 6589 C 624.973 0.328263 3.47453 0
M  V30 6590 C 626.321 0.230009 4.23977 0
M  V30 6591 O 627.345 0.260496 3.55246 0
M  V30 6592 O 626.204 0.148615 5.46298 0
M  V30 6593 H 623.298 -0.0130683 0.826897 0
M  V30 6594 H 625.844 0.72005 1.53666 0
M  V30 6595 H 624.616 1.3535 3.67146 0
M  V30 6596 H 624.239 -0.336772 3.96171 0
M  V30 6597 N 625.236 -1.5273 0.388769 0
M  V30 6598 C 626.484 -2.01174 -0.193208 0
M  V30 6599 C 626.805 -1.27705 -1.47365 0
M  V30 6600 O 626.075 -0.396966 -1.91836 0
M  V30 6601 H 624.655 -0.743287 -0.0743871 0
M  V30 6602 H 627.317 -1.87826 0.520336 0
M  V30 6603 H 626.413 -3.09477 -0.403803 0
M  V30 6604 N 626.714 -0.118576 -1.57153 0
M  V30 6605 C 627.963 0.539339 -1.94355 0
M  V30 6606 C 628.276 1.67858 -1.00415 0
M  V30 6607 O 629.482 2.39922 -1.27081 0
M  V30 6608 C 627.938 1.01082 -3.45414 0
M  V30 6609 C 627.546 -0.0999402 -4.47889 0
M  V30 6610 C 629.29 1.64013 -3.91535 0
M  V30 6611 C 627.197 0.388212 -5.90124 0
M  V30 6612 H 626.127 0.205247 -0.725527 0
M  V30 6613 H 628.778 -0.19836 -1.82425 0
M  V30 6614 H 627.16 1.80292 -3.52577 0
M  V30 6615 H 628.334 -0.876189 -4.52393 0
M  V30 6616 H 626.649 -0.635885 -4.11516 0
M  V30 6617 H 629.246 2.01649 -4.95219 0
M  V30 6618 H 629.589 2.51836 -3.31488 0
M  V30 6619 H 630.122 0.913439 -3.87171 0
M  V30 6620 H 626.861 -0.453963 -6.53926 0
M  V30 6621 H 626.381 1.13095 -5.89041 0
M  V30 6622 H 628.06 0.849574 -6.41398 0
M  V30 6623 N 628.193 1.56834 0.155195 0
M  V30 6624 C 629.14 1.97646 1.19184 0
M  V30 6625 C 630.11 0.842788 1.4313 0
M  V30 6626 O 631.295 1.1042 1.55602 0
M  V30 6627 C 628.435 2.35527 2.52232 0
M  V30 6628 C 627.548 3.62147 2.35529 0
M  V30 6629 C 626.683 3.89167 3.61555 0
M  V30 6630 C 625.722 5.09084 3.39853 0
M  V30 6631 N 624.859 5.32156 4.5799 0
M  V30 6632 H 629.699 2.8601 0.836802 0
M  V30 6633 H 627.236 1.41507 0.401758 0
M  V30 6634 H 629.194 2.55516 3.29799 0
M  V30 6635 H 627.824 1.50253 2.85699 0
M  V30 6636 H 626.876 3.4998 1.49057 0
M  V30 6637 H 628.188 4.49871 2.15448 0
M  V30 6638 H 627.342 4.09611 4.47553 0
M  V30 6639 H 626.081 2.9985 3.84632 0
M  V30 6640 H 625.086 4.88522 2.52243 0
M  V30 6641 H 626.311 5.99947 3.18183 0
M  V30 6642 H 624.257 4.45791 4.81255 0
M  V30 6643 H 624.174 6.14133 4.40882 0
M  V30 6644 H 625.442 5.57091 5.45225 0
M  V30 6645 N 629.671 -0.424282 1.51781 0
M  V30 6646 C 630.917 -1.17434 1.6534 0
M  V30 6647 C 631.25 -1.90549 0.374806 0
M  V30 6648 O 630.525 -1.84145 -0.626179 0
M  V30 6649 C 630.808 -2.18093 2.86544 0
M  V30 6650 C 630.661 -1.48975 4.24413 0
M  V30 6651 C 631.98 -3.18934 3.03264 0
M  V30 6652 H 629.099 -0.425566 0.601716 0
M  V30 6653 H 631.741 -0.461921 1.84299 0
M  V30 6654 H 629.891 -2.78849 2.7051 0
M  V30 6655 H 631.563 -0.914551 4.52143 0
M  V30 6656 H 629.806 -0.791893 4.26511 0
M  V30 6657 H 630.477 -2.22347 5.05238 0
M  V30 6658 H 632.953 -2.68243 3.18096 0
M  V30 6659 H 631.829 -3.86645 3.89611 0
M  V30 6660 H 632.09 -3.85793 2.15908 0
M  V30 6661 N 631.149 -1.42148 -0.680565 0
M  V30 6662 C 632.112 -1.4488 -1.77602 0
M  V30 6663 C 633.112 -0.337209 -1.57224 0
M  V30 6664 O 634.302 -0.597778 -1.63622 0
M  V30 6665 C 631.434 -1.27483 -3.16166 0
M  V30 6666 H 632.627 -2.42412 -1.76568 0
M  V30 6667 H 630.18 -1.28511 -0.889645 0
M  V30 6668 H 630.915 -0.30851 -3.22829 0
M  V30 6669 H 630.7 -2.08037 -3.3236 0
M  V30 6670 H 632.19 -1.32265 -3.96101 0
M  V30 6671 N 632.627 0.916307 -1.28225 0
M  V30 6672 C 633.904 1.64429 -1.05936 0
M  V30 6673 C 634.284 2.07234 0.402139 0
M  V30 6674 O 633.632 1.81535 1.3877 0
M  V30 6675 C 633.842 2.83773 -2.03159 0
M  V30 6676 C 635.19 3.54852 -2.33164 0
M  V30 6677 O 636.214 2.93918 -2.01223 0
M  V30 6678 O 635.073 4.64663 -2.87664 0
M  V30 6679 H 632.167 0.721221 -0.404683 0
M  V30 6680 H 634.713 0.965838 -1.39534 0
M  V30 6681 H 633.485 2.49217 -3.01673 0
M  V30 6682 H 633.108 3.59333 -1.70192 0
M  V30 6683 N 634.105 1.10431 1.1244 0
M  V30 6684 C 635.035 0.775143 2.20258 0
M  V30 6685 C 636.016 -0.25186 1.68225 0
M  V30 6686 O 637.201 -0.117637 1.93843 0
M  V30 6687 C 634.331 0.206133 3.46688 0
M  V30 6688 C 633.285 1.16382 4.11873 0
M  V30 6689 C 632.611 0.456014 5.32752 0
M  V30 6690 C 633.911 2.5104 4.58013 0
M  V30 6691 H 635.605 1.67665 2.4805 0
M  V30 6692 H 633.151 0.807595 1.19222 0
M  V30 6693 H 635.104 -0.036291 4.21384 0
M  V30 6694 H 633.828 -0.730614 3.18323 0
M  V30 6695 H 632.487 1.39169 3.39157 0
M  V30 6696 H 632.135 -0.485203 5.00654 0
M  V30 6697 H 631.835 1.09466 5.77314 0
M  V30 6698 H 633.359 0.222135 6.10196 0
M  V30 6699 H 634.773 2.32401 5.24083 0
M  V30 6700 H 633.17 3.10789 5.13352 0
M  V30 6701 H 634.24 3.11039 3.71998 0
M  V30 6702 N 635.583 -1.29855 0.893053 0
M  V30 6703 C 636.493 -2.31661 0.370157 0
M  V30 6704 C 637.509 -1.65677 -0.531723 0
M  V30 6705 O 638.685 -1.9691 -0.422902 0
M  V30 6706 C 635.75 -3.44388 -0.399741 0
M  V30 6707 C 634.811 -4.2598 0.532861 0
M  V30 6708 C 634.044 -5.33324 -0.200388 0
M  V30 6709 O 634.267 -5.52305 -1.42531 0
M  V30 6710 O 633.201 -6.00188 0.453668 0
M  V30 6711 H 637.027 -2.78354 1.2146 0
M  V30 6712 H 634.612 -1.34171 0.657153 0
M  V30 6713 H 636.494 -4.13037 -0.835358 0
M  V30 6714 H 635.169 -2.99815 -1.22035 0
M  V30 6715 H 634.076 -3.59998 1.01746 0
M  V30 6716 H 635.409 -4.74178 1.3197 0
M  V30 6717 N 637.061 -0.65484 -1.43351 0
M  V30 6718 C 637.991 0.0221809 -2.33489 0
M  V30 6719 C 638.972 0.810272 -1.49561 0
M  V30 6720 O 640.157 0.771426 -1.78221 0
M  V30 6721 C 637.287 0.988117 -3.32947 0
M  V30 6722 C 636.241 0.310026 -4.26876 0
M  V30 6723 C 635.567 1.38752 -5.16384 0
M  V30 6724 C 636.867 -0.798589 -5.16159 0
M  V30 6725 H 638.561 -0.730571 -2.9035 0
M  V30 6726 H 636.107 -0.352773 -1.39612 0
M  V30 6727 H 638.06 1.47067 -3.94904 0
M  V30 6728 H 636.784 1.77205 -2.74346 0
M  V30 6729 H 635.443 -0.152097 -3.66284 0
M  V30 6730 H 635.091 2.16293 -4.54121 0
M  V30 6731 H 634.791 0.939051 -5.80048 0
M  V30 6732 H 636.315 1.87141 -5.81215 0
M  V30 6733 H 637.729 -0.398126 -5.71916 0
M  V30 6734 H 636.126 -1.17163 -5.88552 0
M  V30 6735 H 637.196 -1.65588 -4.55751 0
M  V30 6736 N 638.539 1.52521 -0.396863 0
M  V30 6737 C 639.449 2.30403 0.44178 0
M  V30 6738 C 640.465 1.37625 1.06468 0
M  V30 6739 O 641.641 1.70697 1.06886 0
M  V30 6740 C 638.706 3.1013 1.54986 0
M  V30 6741 C 637.767 4.18628 0.951279 0
M  V30 6742 C 637 4.94543 2.00655 0
M  V30 6743 O 637.223 4.70629 3.22281 0
M  V30 6744 O 636.157 5.797 1.61962 0
M  V30 6745 H 639.983 3.03087 -0.192892 0
M  V30 6746 H 637.568 1.48537 -0.16038 0
M  V30 6747 H 639.45 3.59816 2.19341 0
M  V30 6748 H 638.125 2.40251 2.16935 0
M  V30 6749 H 637.032 3.73119 0.270773 0
M  V30 6750 H 638.365 4.90763 0.375887 0
M  V30 6751 N 640.017 0.126909 1.57088 0
M  V30 6752 C 640.927 -0.833867 2.1928 0
M  V30 6753 C 641.943 -1.2868 1.17122 0
M  V30 6754 O 643.119 -1.34815 1.49622 0
M  V30 6755 C 640.184 -2.0632 2.78627 0
M  V30 6756 C 639.245 -1.66143 3.95847 0
M  V30 6757 C 638.478 -2.83217 4.52354 0
M  V30 6758 O 638.701 -3.98868 4.0775 0
M  V30 6759 O 637.635 -2.59846 5.42922 0
M  V30 6760 H 641.461 -0.334564 3.01852 0
M  V30 6761 H 639.046 -0.0991091 1.49071 0
M  V30 6762 H 640.928 -2.78304 3.16425 0
M  V30 6763 H 639.603 -2.55242 1.99082 0
M  V30 6764 H 638.51 -0.912435 3.62802 0
M  V30 6765 H 639.843 -1.21957 4.76852 0
M  V30 6766 N 641.495 -1.56914 -0.146875 0
M  V30 6767 C 642.743 -1.82994 -0.85777 0
M  V30 6768 C 643.064 -0.707814 -1.817 0
M  V30 6769 O 642.334 0.270521 -1.94023 0
M  V30 6770 H 640.914 -0.675106 -0.319751 0
M  V30 6771 H 643.576 -1.9439 -0.140849 0
M  V30 6772 H 642.672 -2.77928 -1.41994 0
M  V30 6773 N 642.974 0.416227 -1.52004 0
M  V30 6774 C 643.904 1.51365 -1.77795 0
M  V30 6775 C 644.885 1.58059 -0.628601 0
M  V30 6776 O 646.07 1.73447 -0.873478 0
M  V30 6777 C 643.2 2.89256 -1.92219 0
M  V30 6778 C 642.154 2.97415 -3.0778 0
M  V30 6779 C 641.48 4.37492 -3.07417 0
M  V30 6780 C 642.78 2.69551 -4.47369 0
M  V30 6781 H 644.474 1.30033 -2.69688 0
M  V30 6782 H 642.02 0.624112 -1.29772 0
M  V30 6783 H 643.973 3.66008 -2.08845 0
M  V30 6784 H 642.697 3.11866 -0.969917 0
M  V30 6785 H 641.356 2.23107 -2.90893 0
M  V30 6786 H 641.004 4.571 -2.09925 0
M  V30 6787 H 640.704 4.43877 -3.85029 0
M  V30 6788 H 642.228 5.16188 -3.26162 0
M  V30 6789 H 643.642 3.36028 -4.64497 0
M  V30 6790 H 642.039 2.87321 -5.26846 0
M  V30 6791 H 643.109 1.65029 -4.55953 0
M  V30 6792 N 644.452 1.42507 0.673017 0
M  V30 6793 C 645.415 1.4582 1.76831 0
M  V30 6794 C 646.415 0.345542 1.57043 0
M  V30 6795 O 647.605 0.606447 1.63303 0
M  V30 6796 C 644.737 1.29158 3.15485 0
M  V30 6797 H 645.93 2.43345 1.7528 0
M  V30 6798 H 643.483 1.28981 0.882817 0
M  V30 6799 H 644.218 0.325626 3.22661 0
M  V30 6800 H 644.003 2.09797 3.31252 0
M  V30 6801 H 645.493 1.34363 3.95394 0
M  V30 6802 N 645.93 -0.909495 1.28709 0
M  V30 6803 C 646.84 -2.04558 1.14861 0
M  V30 6804 C 647.856 -1.73842 0.0741621 0
M  V30 6805 O 649.032 -1.99383 0.2843 0
M  V30 6806 C 646.097 -3.36957 0.816148 0
M  V30 6807 C 645.158 -3.81255 1.97341 0
M  V30 6808 C 644.391 -5.07335 1.65671 0
M  V30 6809 O 644.614 -5.67514 0.573053 0
M  V30 6810 O 643.548 -5.47449 2.50167 0
M  V30 6811 H 647.374 -2.19161 2.10243 0
M  V30 6812 H 644.959 -1.03159 1.08068 0
M  V30 6813 H 646.841 -4.16436 0.644873 0
M  V30 6814 H 645.516 -3.2352 -0.107983 0
M  V30 6815 H 644.423 -3.02584 2.19986 0
M  V30 6816 H 645.756 -3.99261 2.87839 0
M  V30 6817 N 647.408 -1.11026 -1.11852 0
M  V30 6818 C 648.318 -0.777252 -2.2135 0
M  V30 6819 C 649.334 0.227821 -1.72502 0
M  V30 6820 O 650.51 0.0650587 -2.01295 0
M  V30 6821 C 647.575 -0.220668 -3.45997 0
M  V30 6822 C 646.636 -1.2838 -4.09655 0
M  V30 6823 C 645.869 -0.753678 -5.28352 0
M  V30 6824 O 646.092 0.417779 -5.68868 0
M  V30 6825 O 645.026 -1.51647 -5.82483 0
M  V30 6826 H 648.852 -1.69141 -2.5224 0
M  V30 6827 H 646.437 -0.885836 -1.20305 0
M  V30 6828 H 648.319 0.0855756 -4.21313 0
M  V30 6829 H 646.994 0.666262 -3.16769 0
M  V30 6830 H 645.901 -1.64299 -3.3609 0
M  V30 6831 H 647.234 -2.14396 -4.43052 0
M  V30 6832 N 648.886 1.2938 -0.899927 0
M  V30 6833 C 649.833 2.27713 -0.376243 0
M  V30 6834 C 650.803 1.57016 0.541774 0
M  V30 6835 O 651.988 1.84997 0.466966 0
M  V30 6836 C 649.128 3.42889 0.39 0
M  V30 6837 C 648.241 4.28369 -0.558938 0
M  V30 6838 C 647.376 5.30726 0.224379 0
M  V30 6839 C 646.415 6.07862 -0.719068 0
M  V30 6840 N 645.552 7.02094 0.0298569 0
M  V30 6841 H 650.392 2.71888 -1.21988 0
M  V30 6842 H 647.929 1.33724 -0.612879 0
M  V30 6843 H 649.887 4.08443 0.850314 0
M  V30 6844 H 648.517 2.99743 1.19809 0
M  V30 6845 H 647.569 3.62986 -1.13777 0
M  V30 6846 H 648.881 4.82068 -1.2811 0
M  V30 6847 H 648.035 6.02098 0.745881 0
M  V30 6848 H 646.774 4.77759 0.979674 0
M  V30 6849 H 645.779 5.35353 -1.25207 0
M  V30 6850 H 647.004 6.62917 -1.4737 0
M  V30 6851 H 644.95 6.51496 0.767415 0
M  V30 6852 H 644.867 7.5335 -0.632391 0
M  V30 6853 H 646.135 7.77685 0.531615 0
M  V30 6854 N 650.364 0.662433 1.43002 0
M  V30 6855 C 651.294 -0.00979809 2.33498 0
M  V30 6856 C 652.275 -0.802329 1.49989 0
M  V30 6857 O 653.46 -0.761964 1.78627 0
M  V30 6858 C 650.59 -0.970446 3.33466 0
M  V30 6859 C 649.544 -0.287383 4.27034 0
M  V30 6860 C 648.87 -1.36012 5.17112 0
M  V30 6861 C 650.17 0.82595 5.15728 0
M  V30 6862 H 651.864 0.745959 2.89958 0
M  V30 6863 H 649.41 0.360172 1.39423 0
M  V30 6864 H 651.363 -1.44971 3.95679 0
M  V30 6865 H 650.087 -1.75748 2.75282 0
M  V30 6866 H 648.746 0.17152 3.66199 0
M  V30 6867 H 648.394 -2.13882 4.55262 0
M  V30 6868 H 648.094 -0.908276 5.80538 0
M  V30 6869 H 649.618 -1.84056 5.82199 0
M  V30 6870 H 651.032 0.42845 5.71697 0
M  V30 6871 H 649.429 1.20282 5.87922 0
M  V30 6872 H 650.499 1.68003 4.54866 0
M  V30 6873 N 651.842 -1.52309 0.404946 0
M  V30 6874 C 652.789 -2.26898 -0.422597 0
M  V30 6875 C 653.759 -1.2914 -1.04461 0
M  V30 6876 O 654.944 -1.57996 -1.06967 0
M  V30 6877 C 652.084 -3.09053 -1.53559 0
M  V30 6878 C 651.197 -4.21762 -0.934908 0
M  V30 6879 C 650.332 -4.91283 -2.02025 0
M  V30 6880 C 649.371 -5.95962 -1.39628 0
M  V30 6881 N 648.508 -6.59017 -2.42159 0
M  V30 6882 H 653.348 -2.97188 0.219903 0
M  V30 6883 H 650.885 -1.46607 0.120282 0
M  V30 6884 H 652.843 -3.54987 -2.19181 0
M  V30 6885 H 651.473 -2.40942 -2.14818 0
M  V30 6886 H 650.525 -3.80029 -0.167854 0
M  V30 6887 H 651.837 -4.96864 -0.439073 0
M  V30 6888 H 650.991 -5.40601 -2.75383 0
M  V30 6889 H 649.73 -4.15741 -2.54973 0
M  V30 6890 H 648.735 -5.45968 -0.648023 0
M  V30 6891 H 649.96 -6.73445 -0.874553 0
M  V30 6892 H 647.906 -5.86306 -2.94247 0
M  V30 6893 H 647.823 -7.2978 -1.97376 0
M  V30 6894 H 649.091 -7.12974 -3.15099 0
M  V30 6895 N 653.32 -0.135238 -1.57019 0
M  V30 6896 C 654.548 0.526066 -2.001 0
M  V30 6897 C 654.963 1.59184 -1.01519 0
M  V30 6898 O 654.32 1.82497 -0.0104258 0
M  V30 6899 C 654.371 1.13744 -3.43139 0
M  V30 6900 O 654.092 0.114259 -4.37951 0
M  V30 6901 C 655.593 1.8805 -4.01438 0
M  V30 6902 H 652.813 0.137962 -0.656664 0
M  V30 6903 H 655.357 -0.226359 -2.03243 0
M  V30 6904 H 653.512 1.84056 -3.40885 0
M  V30 6905 H 653.926 0.56058 -5.21496 0
M  V30 6906 H 655.4 2.26133 -5.03555 0
M  V30 6907 H 655.877 2.76194 -3.41487 0
M  V30 6908 H 656.483 1.22464 -4.07287 0
M  V30 6909 N 654.798 1.5699 0.138552 0
M  V30 6910 C 656.044 1.84081 0.85099 0
M  V30 6911 C 656.377 0.718107 1.80435 0
M  V30 6912 O 655.652 -0.277633 1.92508 0
M  V30 6913 C 655.935 3.21699 1.61808 0
M  V30 6914 C 655.788 4.44544 0.685633 0
M  V30 6915 C 657.107 3.5664 2.57868 0
M  V30 6916 H 654.226 0.669592 0.307922 0
M  V30 6917 H 656.868 1.89646 0.11588 0
M  V30 6918 H 655.018 3.17086 2.24474 0
M  V30 6919 H 656.69 4.61248 0.0693179 0
M  V30 6920 H 654.933 4.338 -0.00421993 0
M  V30 6921 H 655.604 5.3746 1.25858 0
M  V30 6922 H 658.08 3.61918 2.05316 0
M  V30 6923 H 656.956 4.53946 3.08584 0
M  V30 6924 H 657.217 2.83036 3.39622 0
M  V30 6925 N 656.276 -0.40816 1.52223 0
M  V30 6926 C 657.186 -1.52202 1.78526 0
M  V30 6927 C 658.202 -1.60546 0.670892 0
M  V30 6928 O 659.378 -1.77242 0.956404 0
M  V30 6929 C 656.443 -2.87928 1.93128 0
M  V30 6930 C 655.504 -2.89463 3.17033 0
M  V30 6931 C 654.737 -4.18715 3.30929 0
M  V30 6932 O 654.96 -5.12662 2.50067 0
M  V30 6933 O 653.894 -4.27125 4.24084 0
M  V30 6934 H 657.72 -1.32911 2.73072 0
M  V30 6935 H 655.305 -0.594112 1.37079 0
M  V30 6936 H 657.187 -3.68426 2.04549 0
M  V30 6937 H 655.862 -3.07285 1.01772 0
M  V30 6938 H 654.769 -2.07815 3.11069 0
M  V30 6939 H 656.102 -2.75055 4.08174 0
M  V30 6940 N 657.755 -1.42862 -0.66545 0
M  V30 6941 C 658.665 -1.49491 -1.80803 0
M  V30 6942 C 659.681 -0.382914 -1.69734 0
M  V30 6943 O 660.857 -0.635223 -1.9112 0
M  V30 6944 C 657.922 -1.40383 -3.17007 0
M  V30 6945 C 656.983 -2.62152 -3.39963 0
M  V30 6946 C 656.216 -2.53469 -4.69669 0
M  V30 6947 O 656.439 -1.57568 -5.48205 0
M  V30 6948 O 655.373 -3.43763 -4.94075 0
M  V30 6949 H 659.199 -2.45949 -1.78165 0
M  V30 6950 H 656.784 -1.24728 -0.822387 0
M  V30 6951 H 658.666 -1.377 -3.98267 0
M  V30 6952 H 657.341 -0.470546 -3.20262 0
M  V30 6953 H 656.248 -2.70409 -2.58515 0
M  V30 6954 H 657.581 -3.54411 -3.41546 0
M  V30 6955 N 659.233 0.902656 -1.29189 0
M  V30 6956 C 660.196 1.98797 -1.14071 0
M  V30 6957 C 661.196 1.60615 -0.0770549 0
M  V30 6958 O 662.386 1.71165 -0.323753 0
M  V30 6959 C 659.518 3.32688 -0.743739 0
M  V30 6960 H 660.711 2.13637 -2.10473 0
M  V30 6961 H 658.264 1.08678 -1.12334 0
M  V30 6962 H 658.999 3.23549 0.220554 0
M  V30 6963 H 658.784 3.61765 -1.51223 0
M  V30 6964 H 660.274 4.12337 -0.660935 0
M  V30 6965 N 660.711 1.11618 1.11262 0
M  V30 6966 C 661.674 0.779447 2.15539 0
M  V30 6967 C 662.674 -0.202081 1.59525 0
M  V30 6968 O 663.864 0.0226356 1.74185 0
M  V30 6969 C 660.996 0.15674 3.40539 0
M  V30 6970 H 662.189 1.70324 2.4684 0
M  V30 6971 H 659.742 0.918298 1.26479 0
M  V30 6972 H 660.477 -0.777186 3.1485 0
M  V30 6973 H 660.262 0.863308 3.82478 0
M  V30 6974 H 661.752 -0.062661 4.17553 0
M  V30 6975 N 662.189 -1.289 0.906776 0
M  V30 6976 C 663.152 -2.25777 0.394656 0
M  V30 6977 C 664.152 -1.53621 -0.475119 0
M  V30 6978 O 665.342 -1.71949 -0.279165 0
M  V30 6979 C 662.474 -3.38113 -0.43499 0
M  V30 6980 H 663.667 -2.72592 1.25033 0
M  V30 6981 H 661.22 -1.40463 0.685547 0
M  V30 6982 H 661.955 -2.96648 -1.31036 0
M  V30 6983 H 661.74 -3.91647 0.188334 0
M  V30 6984 H 663.23 -4.10168 -0.784365 0
M  V30 6985 N 663.667 -0.670007 -1.42649 0
M  V30 6986 C 665.078 -0.268118 -1.84765 0
M  V30 6987 C 665.429 1.18877 -1.56086 0
M  V30 6988 O 664.554 1.90947 -1.01825 0
M  V30 6989 C 665.149 -0.47984 -3.35385 0
M  V30 6990 C 663.708 -0.132116 -3.76168 0
M  V30 6991 C 662.855 -0.774611 -2.66261 0
M  V30 6992 H 665.806 -0.872509 -1.32563 0
M  V30 6993 H 665.827 0.269522 -3.79544 0
M  V30 6994 H 665.339 -1.54026 -3.56227 0
M  V30 6995 H 663.44 0.92505 -3.60934 0
M  V30 6996 H 663.553 -0.569294 -4.75706 0
M  V30 6997 H 661.917 -0.206353 -2.53863 0
M  V30 6998 H 662.7 -1.83839 -2.89928 0
M  V30 6999 N 665.145 1.52092 -0.413018 0
M  V30 7000 C 666.561 1.59471 -0.0640836 0
M  V30 7001 C 666.761 1.42562 1.42402 0
M  V30 7002 O 665.817 1.25453 2.19129 0
M  V30 7003 C 667.13 2.95392 -0.562474 0
M  V30 7004 C 668.678 3.08637 -0.520788 0
M  V30 7005 C 669.153 4.47044 -0.995752 0
M  V30 7006 N 670.644 4.53296 -0.952732 0
M  V30 7007 C 671.379 5.58669 -1.29138 0
M  V30 7008 N 670.875 6.71576 -1.70168 0
M  V30 7009 N 672.668 5.48898 -1.2111 0
M  V30 7010 H 664.819 1.6133 -1.38153 0
M  V30 7011 H 667.082 0.75916 -0.567785 0
M  V30 7012 H 666.788 3.13059 -1.60271 0
M  V30 7013 H 666.662 3.77191 0.0257875 0
M  V30 7014 H 669.049 2.90652 0.510412 0
M  V30 7015 H 669.13 2.28735 -1.14515 0
M  V30 7016 H 668.774 4.65773 -2.0253 0
M  V30 7017 H 668.704 5.25448 -0.348162 0
M  V30 7018 H 671.195 3.72248 -0.651119 0
M  V30 7019 H 671.508 7.47973 -1.9431 0
M  V30 7020 H 669.853 6.72847 -1.74075 0
M  V30 7021 H 673.044 4.59573 -0.889396 0
M  V30 7022 H 673.217 6.30912 -1.47833 0
M  V30 7023 N 666.623 0.143563 1.56945 0
M  V30 7024 C 667.533 -0.810562 2.20152 0
M  V30 7025 C 668.549 -1.27431 1.1848 0
M  V30 7026 O 669.725 -1.33221 1.51044 0
M  V30 7027 C 666.79 -2.03353 2.80799 0
M  V30 7028 C 665.851 -1.61936 3.97587 0
M  V30 7029 C 665.084 -2.78403 4.55332 0
M  V30 7030 O 665.307 -3.94521 4.11958 0
M  V30 7031 O 664.241 -2.54073 5.45647 0
M  V30 7032 H 668.067 -0.30253 3.02189 0
M  V30 7033 H 665.652 -0.0832925 1.49168 0
M  V30 7034 H 667.534 -2.74932 3.19359 0
M  V30 7035 H 666.209 -2.53116 2.01777 0
M  V30 7036 H 665.116 -0.873904 3.6375 0
M  V30 7037 H 666.449 -1.16892 4.78118 0
M  V30 7038 N 668.101 -1.57061 -0.130224 0
M  V30 7039 C 669.349 -1.83893 -0.838313 0
M  V30 7040 C 669.67 -0.727046 -1.80939 0
M  V30 7041 O 668.94 0.249927 -1.94299 0
M  V30 7042 H 667.52 -0.67846 -0.312573 0
M  V30 7043 H 670.182 -1.94529 -0.120224 0
M  V30 7044 H 669.278 -2.79419 -1.39038 0
M  V30 7045 N 669.579 0.400081 -1.52437 0
M  V30 7046 C 670.511 1.50729 -1.72666 0
M  V30 7047 C 671.524 1.51058 -0.607075 0
M  V30 7048 O 672.713 1.5516 -0.88248 0
M  V30 7049 C 669.813 2.89604 -1.76019 0
M  V30 7050 C 668.986 3.13365 -3.05157 0
M  V30 7051 C 668.045 4.32163 -3.00203 0
M  V30 7052 O 667.071 4.29004 -3.74092 0
M  V30 7053 N 668.273 5.3776 -2.18619 0
M  V30 7054 H 671.038 1.33767 -2.68191 0
M  V30 7055 H 668.599 0.58948 -1.50787 0
M  V30 7056 H 670.591 3.67159 -1.70225 0
M  V30 7057 H 669.161 2.99979 -0.879284 0
M  V30 7058 H 668.381 2.23774 -3.24529 0
M  V30 7059 H 669.669 3.26089 -3.90568 0
M  V30 7060 H 669.067 5.43177 -1.58035 0
M  V30 7061 H 667.624 6.14023 -2.18674 0
M  V30 7062 N 671.057 1.43213 0.657864 0
M  V30 7063 C 672.305 1.44298 1.41501 0
M  V30 7064 C 672.626 0.0666478 1.94886 0
M  V30 7065 O 671.896 -0.897345 1.74139 0
M  V30 7066 H 670.476 0.531257 0.525143 0
M  V30 7067 H 673.138 1.78777 0.776195 0
M  V30 7068 H 672.234 2.1528 2.25966 0
M  V30 7069 N 672.536 -0.895792 1.29666 0
M  V30 7070 C 673.761 -1.68528 1.20885 0
M  V30 7071 C 674.186 -1.8673 -0.226595 0
M  V30 7072 O 673.544 -1.39044 -1.16347 0
M  V30 7073 C 673.592 -3.04512 1.93144 0
M  V30 7074 O 672.696 -3.92963 1.25115 0
M  V30 7075 H 672.037 -0.515371 0.418675 0
M  V30 7076 H 674.567 -1.11878 1.71302 0
M  V30 7077 H 674.577 -3.54628 2.0175 0
M  V30 7078 H 673.252 -2.90582 2.97548 0
M  V30 7079 H 671.829 -3.51399 1.24794 0
M  V30 7080 N 674.014 -1.12206 -1.10668 0
M  V30 7081 C 675.239 -0.898938 -1.86906 0
M  V30 7082 C 675.664 0.546346 -1.79991 0
M  V30 7083 O 675.022 1.38655 -1.1681 0
M  V30 7084 C 675.07 -1.37529 -3.33344 0
M  V30 7085 O 674.174 -0.55218 -4.08687 0
M  V30 7086 H 673.515 -0.323163 -0.580053 0
M  V30 7087 H 676.045 -1.49355 -1.39837 0
M  V30 7088 H 676.055 -1.3733 -3.84193 0
M  V30 7089 H 674.73 -2.42767 -3.37693 0
M  V30 7090 H 673.307 -0.620947 -3.67694 0
M  V30 7091 N 675.492 1.28418 -0.913599 0
M  V30 7092 C 676.455 2.25564 -0.406624 0
M  V30 7093 C 677.455 1.5387 0.466965 0
M  V30 7094 O 678.645 1.72094 0.270042 0
M  V30 7095 C 675.777 3.38339 0.417053 0
M  V30 7096 H 676.97 2.71926 -1.26477 0
M  V30 7097 H 674.523 1.40098 -0.692986 0
M  V30 7098 H 675.258 2.97339 1.29461 0
M  V30 7099 H 675.043 3.91542 -0.209102 0
M  V30 7100 H 676.533 4.10578 0.762602 0
M  V30 7101 N 676.97 0.677563 1.42291 0
M  V30 7102 C 678.216 0.201272 2.01799 0
M  V30 7103 C 678.549 -1.19004 1.53465 0
M  V30 7104 O 677.824 -1.79953 0.738039 0
M  V30 7105 C 678.107 0.238968 3.59306 0
M  V30 7106 C 677.96 1.66594 4.17812 0
M  V30 7107 C 679.279 -0.411287 4.38174 0
M  V30 7108 H 676.398 0.0746114 0.733214 0
M  V30 7109 H 679.04 0.862872 1.69276 0
M  V30 7110 H 677.19 -0.324368 3.87144 0
M  V30 7111 H 678.862 2.28173 4.00917 0
M  V30 7112 H 677.105 2.20576 3.73536 0
M  V30 7113 H 677.776 1.64398 5.26951 0
M  V30 7114 H 680.252 0.0682804 4.16044 0
M  V30 7115 H 679.128 -0.354286 5.47755 0
M  V30 7116 H 679.389 -1.4893 4.1626 0
M  V30 7117 N 678.448 -1.51871 0.421078 0
M  V30 7118 C 679.696 -2.01539 -0.150492 0
M  V30 7119 C 680.017 -1.30803 -1.44623 0
M  V30 7120 O 679.287 -0.437568 -1.90951 0
M  V30 7121 H 677.867 -0.744698 -0.0586041 0
M  V30 7122 H 680.529 -1.8668 0.560059 0
M  V30 7123 H 679.625 -3.10264 -0.338068 0
M  V30 7124 N 679.926 -0.151884 -1.56866 0
M  V30 7125 C 681.173 0.498004 -1.96281 0
M  V30 7126 C 681.501 1.64551 -1.03698 0
M  V30 7127 O 680.756 1.95585 -0.0671497 0
M  V30 7128 C 681.055 1.04074 -3.41911 0
M  V30 7129 C 680.721 0.0111688 -4.50899 0
M  V30 7130 C 679.383 -0.271844 -4.80432 0
M  V30 7131 C 681.735 -0.68869 -5.1663 0
M  V30 7132 C 679.063 -1.26044 -5.73001 0
M  V30 7133 C 681.415 -1.66613 -6.10264 0
M  V30 7134 C 680.079 -1.9568 -6.38174 0
M  V30 7135 H 679.349 0.182233 -0.718242 0
M  V30 7136 H 681.996 -0.239746 -1.89993 0
M  V30 7137 H 680.301 1.85592 -3.45055 0
M  V30 7138 H 681.998 1.55224 -3.69738 0
M  V30 7139 H 678.588 0.241932 -4.27917 0
M  V30 7140 H 682.772 -0.48324 -4.93942 0
M  V30 7141 H 678.028 -1.49202 -5.92915 0
M  V30 7142 H 682.202 -2.21392 -6.60272 0
M  V30 7143 H 679.829 -2.72434 -7.09707 0
M  V30 7144 N 681.404 1.57128 0.121893 0
M  V30 7145 C 682.314 2.03425 1.16857 0
M  V30 7146 C 683.33 0.954108 1.45509 0
M  V30 7147 O 684.506 1.26541 1.56682 0
M  V30 7148 C 681.571 2.42685 2.47599 0
M  V30 7149 C 680.632 3.64767 2.2637 0
M  V30 7150 C 679.865 4.02145 3.50878 0
M  V30 7151 O 680.088 3.39897 4.58068 0
M  V30 7152 O 679.022 4.95262 3.42051 0
M  V30 7153 H 682.848 2.92825 0.80544 0
M  V30 7154 H 680.433 1.45654 0.332477 0
M  V30 7155 H 682.315 2.68684 3.24634 0
M  V30 7156 H 680.99 1.56432 2.83392 0
M  V30 7157 H 679.897 3.43922 1.47203 0
M  V30 7158 H 681.23 4.51716 1.95482 0
M  V30 7159 N 682.882 -0.391992 1.52647 0
M  V30 7160 C 684.128 -1.139 1.67793 0
M  V30 7161 C 684.461 -1.89711 0.41514 0
M  V30 7162 O 683.736 -1.85431 -0.586979 0
M  V30 7163 C 684.019 -2.11966 2.91105 0
M  V30 7164 C 683.872 -1.39939 4.27478 0
M  V30 7165 C 685.191 -3.1243 3.09961 0
M  V30 7166 H 682.31 -0.412707 0.610608 0
M  V30 7167 H 684.952 -0.422725 1.85238 0
M  V30 7168 H 683.102 -2.73048 2.76364 0
M  V30 7169 H 684.774 -0.818439 4.53982 0
M  V30 7170 H 683.017 -0.701246 4.28095 0
M  V30 7171 H 683.688 -2.1158 5.09841 0
M  V30 7172 H 686.164 -2.61435 3.23714 0
M  V30 7173 H 685.04 -3.78294 3.97725 0
M  V30 7174 H 685.301 -3.81127 2.24042 0
M  V30 7175 N 684.36 -1.4356 -0.65026 0
M  V30 7176 C 685.771 -1.40324 -1.2315 0
M  V30 7177 C 686.122 -0.108812 -1.95898 0
M  V30 7178 O 685.247 0.79163 -2.01401 0
M  V30 7179 C 685.842 -2.54195 -2.23987 0
M  V30 7180 C 684.401 -2.54215 -2.77582 0
M  V30 7181 C 683.548 -2.31752 -1.5227 0
M  V30 7182 H 686.499 -1.52418 -0.442095 0
M  V30 7183 H 686.52 -2.25854 -3.0622 0
M  V30 7184 H 686.032 -3.48392 -1.71011 0
M  V30 7185 H 684.133 -1.63907 -3.34612 0
M  V30 7186 H 684.246 -3.52081 -3.24925 0
M  V30 7187 H 682.61 -1.80476 -1.79723 0
M  V30 7188 H 683.393 -3.28037 -1.01225 0
M  V30 7189 N 685.838 0.888903 -1.30139 0
M  V30 7190 C 686.77 1.99972 -1.11999 0
M  V30 7191 C 687.783 1.62673 -0.0643619 0
M  V30 7192 O 688.972 1.75788 -0.309983 0
M  V30 7193 C 686.072 3.31904 -0.685059 0
M  V30 7194 C 685.245 3.97665 -1.82158 0
M  V30 7195 C 684.304 5.07894 -1.37585 0
M  V30 7196 O 683.33 5.2974 -2.08241 0
M  V30 7197 N 684.532 5.7995 -0.252697 0
M  V30 7198 H 687.297 2.16085 -2.07671 0
M  V30 7199 H 684.858 1.06175 -1.22223 0
M  V30 7200 H 686.85 4.03005 -0.369964 0
M  V30 7201 H 685.42 3.12084 0.179507 0
M  V30 7202 H 684.64 3.19787 -2.305 0
M  V30 7203 H 685.928 4.3834 -2.58332 0
M  V30 7204 H 685.326 5.647 0.336141 0
M  V30 7205 H 683.883 6.518 0.00296813 0
M  V30 7206 N 687.317 1.12792 1.10072 0
M  V30 7207 C 688.249 0.757003 2.16338 0
M  V30 7208 C 689.262 -0.218144 1.61332 0
M  V30 7209 O 690.451 0.0010727 1.785 0
M  V30 7210 C 687.551 0.100303 3.38752 0
M  V30 7211 C 686.724 1.10586 4.2319 0
M  V30 7212 C 685.783 0.47609 5.24042 0
M  V30 7213 O 684.809 1.13418 5.57786 0
M  V30 7214 N 686.011 -0.754823 5.75572 0
M  V30 7215 H 688.776 1.6714 2.48766 0
M  V30 7216 H 686.337 1.02003 1.25726 0
M  V30 7217 H 688.329 -0.333092 4.03327 0
M  V30 7218 H 686.899 -0.716915 3.04268 0
M  V30 7219 H 686.119 1.71677 3.54853 0
M  V30 7220 H 687.407 1.78571 4.76435 0
M  V30 7221 H 686.805 -1.30838 5.50362 0
M  V30 7222 H 685.362 -1.13098 6.41913 0
M  V30 7223 N 688.795 -1.27931 0.920396 0
M  V30 7224 C 690.072 -1.89728 0.475687 0
M  V30 7225 C 690.452 -1.8337 -1.04588 0
M  V30 7226 O 689.8 -1.27404 -1.89685 0
M  V30 7227 C 690.01 -3.33959 1.01354 0
M  V30 7228 C 691.358 -4.10907 1.06963 0
M  V30 7229 O 692.382 -3.42945 0.962646 0
M  V30 7230 O 691.241 -5.32399 1.23343 0
M  V30 7231 H 688.335 -0.81294 0.151845 0
M  V30 7232 H 690.881 -1.36252 1.01161 0
M  V30 7233 H 689.653 -3.32843 2.05746 0
M  V30 7234 H 689.276 -3.94944 0.458829 0
M  V30 7235 N 690.273 -0.685099 -1.4193 0
M  V30 7236 C 691.519 -0.211971 -2.01689 0
M  V30 7237 C 691.852 1.18189 -1.54094 0
M  V30 7238 O 691.127 1.79559 -0.747572 0
M  V30 7239 C 691.41 -0.258019 -3.59174 0
M  V30 7240 C 691.263 -1.68807 -4.16922 0
M  V30 7241 C 692.582 0.388044 -4.38386 0
M  V30 7242 H 689.701 -0.0784987 -0.732808 0
M  V30 7243 H 692.343 -0.871837 -1.68816 0
M  V30 7244 H 690.493 0.303832 -3.8731 0
M  V30 7245 H 692.165 -2.30296 -3.99702 0
M  V30 7246 H 690.408 -2.22553 -3.72361 0
M  V30 7247 H 691.079 -1.6719 -5.26072 0
M  V30 7248 H 693.555 -0.0903432 -4.16002 0
M  V30 7249 H 692.431 0.325232 -5.47936 0
M  V30 7250 H 692.692 1.4672 -4.17044 0
M  V30 7251 N 691.751 1.51645 -0.429126 0
M  V30 7252 C 693 2.01203 0.141538 0
M  V30 7253 C 693.313 1.31828 1.44502 0
M  V30 7254 O 694.519 1.7231 2.09813 0
M  V30 7255 C 692.975 3.58624 0.302786 0
M  V30 7256 C 692.583 4.3693 -0.989775 0
M  V30 7257 C 694.327 4.16353 0.827661 0
M  V30 7258 C 692.234 5.86037 -0.794619 0
M  V30 7259 H 691.164 0.751867 0.05667 0
M  V30 7260 H 693.815 1.74822 -0.557633 0
M  V30 7261 H 692.197 3.81417 1.06476 0
M  V30 7262 H 693.371 4.25887 -1.75945 0
M  V30 7263 H 691.686 3.90614 -1.44256 0
M  V30 7264 H 694.283 5.25455 0.990026 0
M  V30 7265 H 694.626 3.74995 1.80787 0
M  V30 7266 H 695.159 3.97606 0.124213 0
M  V30 7267 H 691.898 6.31792 -1.74697 0
M  V30 7268 H 691.418 5.99765 -0.0645968 0
M  V30 7269 H 693.097 6.45471 -0.444591 0
M  V30 7270 N 693.229 0.160201 1.56784 0
M  V30 7271 C 694.159 -0.770264 2.2043 0
M  V30 7272 C 695.14 -1.24736 1.15651 0
M  V30 7273 O 696.325 -1.30253 1.44041 0
M  V30 7274 C 693.455 -2.00427 2.83631 0
M  V30 7275 C 692.409 -1.66345 3.94352 0
M  V30 7276 C 691.735 -2.97119 4.4455 0
M  V30 7277 C 693.035 -0.899972 5.14488 0
M  V30 7278 H 694.729 -0.239783 2.98438 0
M  V30 7279 H 692.275 -0.113891 1.43549 0
M  V30 7280 H 694.228 -2.66012 3.26827 0
M  V30 7281 H 692.952 -2.5587 2.02973 0
M  V30 7282 H 691.611 -1.03133 3.51794 0
M  V30 7283 H 691.259 -3.5058 3.60698 0
M  V30 7284 H 690.959 -2.75073 5.19238 0
M  V30 7285 H 692.483 -3.63753 4.90425 0
M  V30 7286 H 693.897 -1.45818 5.54446 0
M  V30 7287 H 692.294 -0.778968 5.95023 0
M  V30 7288 H 693.364 0.105827 4.84785 0
M  V30 7289 N 694.707 -1.5719 -0.113559 0
M  V30 7290 C 696.118 -1.74259 -0.670116 0
M  V30 7291 C 696.469 -0.779694 -1.80042 0
M  V30 7292 O 695.594 0.0461353 -2.16351 0
M  V30 7293 C 696.189 -3.15981 -1.22236 0
M  V30 7294 C 694.748 -3.34537 -1.72516 0
M  V30 7295 C 693.895 -2.70116 -0.627098 0
M  V30 7296 H 696.846 -1.58301 0.112396 0
M  V30 7297 H 696.867 -3.17832 -2.09197 0
M  V30 7298 H 696.379 -3.86038 -0.39949 0
M  V30 7299 H 694.48 -2.6953 -2.57263 0
M  V30 7300 H 694.593 -4.42737 -1.83086 0
M  V30 7301 H 692.957 -2.31501 -1.06204 0
M  V30 7302 H 693.74 -3.42802 0.184889 0
M  V30 7303 N 696.185 0.383891 -1.52853 0
M  V30 7304 C 697.095 1.49343 -1.80925 0
M  V30 7305 C 698.111 1.59458 -0.696348 0
M  V30 7306 O 699.287 1.75698 -0.984481 0
M  V30 7307 C 696.352 2.84819 -1.97684 0
M  V30 7308 C 695.413 2.84382 -3.21598 0
M  V30 7309 C 694.646 4.13397 -3.37548 0
M  V30 7310 O 694.869 5.08619 -2.58192 0
M  V30 7311 O 693.803 4.20325 -4.30826 0
M  V30 7312 H 697.629 1.2855 -2.75152 0
M  V30 7313 H 695.214 0.572229 -1.38007 0
M  V30 7314 H 697.096 3.65125 -2.10385 0
M  V30 7315 H 695.771 3.05627 -1.06647 0
M  V30 7316 H 694.678 2.0284 -3.14336 0
M  V30 7317 H 696.011 2.68526 -4.12498 0
M  V30 7318 N 697.663 1.43903 0.642637 0
M  V30 7319 C 698.893 1.49323 1.4278 0
M  V30 7320 C 699.301 0.113058 1.88862 0
M  V30 7321 O 698.644 -0.889089 1.60751 0
M  V30 7322 C 698.706 2.3861 2.68897 0
M  V30 7323 C 698.37 3.85976 2.44687 0
M  V30 7324 C 699.367 4.7681 2.07239 0
M  V30 7325 C 697.052 4.30567 2.58683 0
M  V30 7326 C 699.046 6.10234 1.841 0
M  V30 7327 C 696.733 5.64042 2.35159 0
M  V30 7328 C 697.731 6.53693 1.97925 0
M  V30 7329 O 697.419 7.84698 1.74654 0
M  V30 7330 H 697.151 0.509109 0.444729 0
M  V30 7331 H 699.705 1.89425 0.794195 0
M  V30 7332 H 697.935 1.93415 3.34855 0
M  V30 7333 H 699.624 2.35112 3.30873 0
M  V30 7334 H 700.39 4.43635 1.95993 0
M  V30 7335 H 696.269 3.61054 2.86637 0
M  V30 7336 H 699.813 6.80171 1.54962 0
M  V30 7337 H 695.71 5.96782 2.46011 0
M  V30 7338 H 696.478 7.96382 1.88993 0
M  V30 7339 O 699.18 -0.78588 1.41089 0
M  V30 7340 H 699.871 -1.43226 1.30407 0
M  V30 END ATOM
M  V30 BEGIN BOND
M  V30 END BOND
M  V30 END CTAB
M  END
$$$$
