drugbank_target|Q16558 Calcium-activated potassium channel subunit beta-1 (DB00721; DB01110; DB09089)
 OpenBabel12092121003D

  0  0  0     0  0            999 V3000
M  V30 BEGIN CTAB
M  V30 COUNTS 3096 3129 0 0 0
M  V30 BEGIN ATOM
M  V30 1 H -0.908 1.98254 -0.117106 0
M  V30 2 N 0 1.576 0 0
M  V30 3 C 0.933 2.03868 1.02534 0
M  V30 4 C 1.911 0.928543 1.3348 0
M  V30 5 O 3.095 1.19667 1.45644 0
M  V30 6 C 0.222 2.43627 2.35294 0
M  V30 7 C -0.732 3.65373 2.2001 0
M  V30 8 S 0.101 5.13292 1.52614 0
M  V30 9 C 1.257 5.56322 2.86805 0
M  V30 10 H 1.49 2.90518 0.631377 0
M  V30 11 H -0.977 1.52953 0.210867 0
M  V30 12 H 0.981 2.67203 3.11629 0
M  V30 13 H -0.358 1.57376 2.7183 0
M  V30 14 H -1.165 3.90944 3.18086 0
M  V30 15 H -1.563 3.418 1.51819 0
M  V30 16 H 0.729 5.58782 3.83104 0
M  V30 17 H 1.672 6.56266 2.65933 0
M  V30 18 H 2.08 4.83886 2.90714 0
M  V30 19 N 1.4781 -0.272755 1.55222 0
M  V30 20 C 2.7241 -1.00581 1.761 0
M  V30 21 C 3.0571 -1.85932 0.560625 0
M  V30 22 O 2.3321 -1.89416 -0.441801 0
M  V30 23 C 2.6151 -1.88816 3.06628 0
M  V30 24 C 2.4681 -1.06457 4.37021 0
M  V30 25 C 3.7871 -2.8752 3.33197 0
M  V30 26 H 0.9061 -0.364244 0.640699 0
M  V30 27 H 3.5481 -0.278189 1.87952 0
M  V30 28 H 1.6981 -2.50856 2.96654 0
M  V30 29 H 3.3701 -0.464863 4.58952 0
M  V30 30 H 1.6131 -0.368043 4.32236 0
M  V30 31 H 2.2841 -1.71514 5.24678 0
M  V30 32 H 4.7601 -2.35615 3.42965 0
M  V30 33 H 3.6361 -3.46399 4.25792 0
M  V30 34 H 3.8971 -3.62657 2.52849 0
M  V30 35 N 2.9562 -1.48159 -0.537278 0
M  V30 36 C 3.9032 -1.62138 -1.64256 0
M  V30 37 C 4.8732 -0.463668 -1.59497 0
M  V30 38 O 6.0582 -0.686241 -1.78032 0
M  V30 39 C 3.1982 -1.66028 -3.02537 0
M  V30 40 C 2.3112 -2.92855 -3.17585 0
M  V30 41 C 1.4462 -2.87952 -4.46382 0
M  V30 42 C 0.4852 -4.09516 -4.54932 0
M  V30 43 N -0.3778 -4.02733 -5.75109 0
M  V30 44 H 4.4622 -2.56529 -1.51647 0
M  V30 45 H 1.9992 -1.27224 -0.738414 0
M  V30 46 H 3.9572 -1.66265 -3.82638 0
M  V30 47 H 2.5872 -0.751331 -3.13934 0
M  V30 48 H 1.6392 -3.02395 -2.30784 0
M  V30 49 H 2.9512 -3.82822 -3.19764 0
M  V30 50 H 2.1052 -2.8655 -5.34765 0
M  V30 51 H 0.8442 -1.95702 -4.46712 0
M  V30 52 H -0.1508 -4.11201 -3.64957 0
M  V30 53 H 1.0742 -5.02917 -4.56346 0
M  V30 54 H -0.9798 -3.13299 -5.76351 0
M  V30 55 H -1.0628 -4.86397 -5.78752 0
M  V30 56 H 0.2052 -4.05379 -6.65799 0
M  V30 57 N 4.4343 0.785586 -1.36625 0
M  V30 58 C 5.3813 1.89838 -1.31264 0
M  V30 59 C 6.3513 1.65115 -0.180633 0
M  V30 60 O 7.5363 1.87222 -0.36777 0
M  V30 61 C 4.6763 3.26706 -1.11163 0
M  V30 62 C 3.7893 3.63476 -2.33472 0
M  V30 63 C 2.9243 4.89481 -2.06353 0
M  V30 64 C 1.9633 5.18941 -3.24602 0
M  V30 65 N 1.1003 6.36131 -2.97123 0
M  V30 66 H 5.9403 1.93756 -2.26413 0
M  V30 67 H 3.4773 0.947454 -1.12524 0
M  V30 68 H 5.4353 4.05639 -0.975337 0
M  V30 69 H 4.0653 3.222 -0.196674 0
M  V30 70 H 3.1173 2.79636 -2.57891 0
M  V30 71 H 4.4293 3.81193 -3.21704 0
M  V30 72 H 3.5833 5.76288 -1.89675 0
M  V30 73 H 2.3223 4.73841 -1.15437 0
M  V30 74 H 1.3273 4.30615 -3.41834 0
M  V30 75 H 2.5523 5.36498 -4.16349 0
M  V30 76 H 0.4983 6.21875 -2.08823 0
M  V30 77 H 0.4153 6.54198 -3.78894 0
M  V30 78 H 1.6833 7.2591 -2.84033 0
M  V30 79 N 5.9124 1.20967 1.01018 0
M  V30 80 C 6.8424 0.988272 2.11555 0
M  V30 81 C 7.8234 -0.0849778 1.69888 0
M  V30 82 O 9.0084 0.0738202 1.9406 0
M  V30 83 C 6.1384 0.546528 3.42973 0
M  V30 84 C 5.0924 1.56375 3.9841 0
M  V30 85 C 4.4184 0.97842 5.25672 0
M  V30 86 C 5.7184 2.94922 4.31066 0
M  V30 87 H 7.4124 1.91276 2.30334 0
M  V30 88 H 4.9584 0.921073 1.1069 0
M  V30 89 H 6.9114 0.378839 4.19694 0
M  V30 90 H 5.6354 -0.413598 3.23971 0
M  V30 91 H 4.2944 1.71891 3.23804 0
M  V30 92 H 3.9424 0.0101688 5.02999 0
M  V30 93 H 3.6424 1.65784 5.63728 0
M  V30 94 H 5.1664 0.821939 6.05043 0
M  V30 95 H 6.5804 2.8288 4.9865 0
M  V30 96 H 4.9774 3.5983 4.80253 0
M  V30 97 H 6.0474 3.4616 3.39561 0
M  V30 98 N 7.3905 -1.2043 1.01659 0
M  V30 99 C 8.6365 -1.90079 0.706963 0
M  V30 100 C 8.9695 -1.78648 -0.761474 0
M  V30 101 O 8.2445 -1.17069 -1.55323 0
M  V30 102 C 8.5275 -3.41469 1.14327 0
M  V30 103 C 8.3805 -3.61833 2.67201 0
M  V30 104 C 9.6995 -4.34261 0.714529 0
M  V30 105 H 6.8185 -0.690254 0.2583 0
M  V30 106 H 9.4605 -1.41826 1.26433 0
M  V30 107 H 7.6105 -3.82696 0.669056 0
M  V30 108 H 9.2825 -3.2986 3.22475 0
M  V30 109 H 7.5255 -3.05304 3.08175 0
M  V30 110 H 8.1965 -4.67955 2.92783 0
M  V30 111 H 10.6725 -4.00682 1.12221 0
M  V30 112 H 9.5485 -5.38806 1.04784 0
M  V30 113 H 9.8095 -4.40431 -0.383799 0
M  V30 114 N 8.8686 -0.792821 -1.36206 0
M  V30 115 C 9.8016 -0.139422 -2.27774 0
M  V30 116 C 10.7796 0.68649 -1.47398 0
M  V30 117 O 11.9636 0.656738 -1.7669 0
M  V30 118 C 9.0906 0.807947 -3.28922 0
M  V30 119 C 8.1366 0.0633999 -4.26453 0
M  V30 120 S 8.9696 -1.26319 -5.20388 0
M  V30 121 C 10.1256 -0.31991 -6.25082 0
M  V30 122 H 10.3586 -0.915809 -2.82843 0
M  V30 123 H 7.8916 -0.587203 -1.42798 0
M  V30 124 H 9.8496 1.34908 -3.87699 0
M  V30 125 H 8.5106 1.55761 -2.72759 0
M  V30 126 H 7.7036 0.782386 -4.9789 0
M  V30 127 H 7.3056 -0.407352 -3.71775 0
M  V30 128 H 9.5976 0.499985 -6.75653 0
M  V30 129 H 10.5406 -1.00307 -7.00959 0
M  V30 130 H 10.9486 0.0782694 -5.64446 0
M  V30 131 N 10.3467 1.47872 -0.545128 0
M  V30 132 C 11.3097 2.28337 0.198717 0
M  V30 133 C 12.3097 1.36255 0.853888 0
M  V30 134 O 13.4997 1.59003 0.711606 0
M  V30 135 C 10.6317 3.15585 1.28915 0
M  V30 136 H 11.8247 2.95567 -0.507941 0
M  V30 137 H 9.3777 1.53362 -0.301616 0
M  V30 138 H 10.1127 2.53019 2.02859 0
M  V30 139 H 9.8977 3.83337 0.824309 0
M  V30 140 H 11.3877 3.76243 1.81194 0
M  V30 141 N 11.8248 0.280983 1.55075 0
M  V30 142 C 12.7568 -0.637268 2.20163 0
M  V30 143 C 13.7698 -1.11298 1.18813 0
M  V30 144 O 14.9588 -1.03388 1.4551 0
M  V30 145 C 12.0588 -1.88199 2.81841 0
M  V30 146 C 11.2318 -1.55211 4.08936 0
M  V30 147 C 10.2908 -2.64991 4.54606 0
M  V30 148 O 9.3168 -2.30929 5.2025 0
M  V30 149 N 10.5188 -3.95161 4.25238 0
M  V30 150 H 13.2838 -0.0801694 2.99593 0
M  V30 151 H 10.8448 0.102329 1.61576 0
M  V30 152 H 12.8368 -2.60948 3.09335 0
M  V30 153 H 11.4068 -2.34799 2.06369 0
M  V30 154 H 10.6268 -0.658185 3.88666 0
M  V30 155 H 11.9148 -1.30681 4.91732 0
M  V30 156 H 11.3128 -4.25653 3.72607 0
M  V30 157 H 9.8698 -4.6427 4.5749 0
M  V30 158 N 13.3029 -1.57598 0.00835791 0
M  V30 159 C 14.2499 -2.08945 -0.980346 0
M  V30 160 C 15.2199 -0.986738 -1.33614 0
M  V30 161 O 16.4049 -1.25968 -1.43306 0
M  V30 162 C 13.5449 -2.60425 -2.26435 0
M  V30 163 C 12.6579 -3.84628 -1.96685 0
M  V30 164 C 11.7929 -4.24579 -3.19228 0
M  V30 165 C 10.8319 -5.41596 -2.85202 0
M  V30 166 N 9.9689 -5.768 -4.00307 0
M  V30 167 H 14.8089 -2.93148 -0.535551 0
M  V30 168 H 12.3459 -1.44912 -0.252776 0
M  V30 169 H 14.3039 -2.88354 -3.01509 0
M  V30 170 H 12.9339 -1.79083 -2.68568 0
M  V30 171 H 11.9859 -3.63556 -1.11942 0
M  V30 172 H 13.2979 -4.69796 -1.67611 0
M  V30 173 H 12.4519 -4.53834 -4.02641 0
M  V30 174 H 11.1909 -3.38137 -3.51447 0
M  V30 175 H 10.1959 -5.12056 -2.00198 0
M  V30 176 H 11.4209 -6.29721 -2.54222 0
M  V30 177 H 9.3669 -4.93316 -4.32407 0
M  V30 178 H 9.2839 -6.5656 -3.74786 0
M  V30 179 H 10.5519 -6.10652 -4.84484 0
M  V30 180 N 14.781 0.264519 -1.55364 0
M  V30 181 C 16.197 0.61215 -1.47394 0
M  V30 182 C 16.397 1.89134 -0.695018 0
M  V30 183 O 15.453 2.51563 -0.217275 0
M  V30 184 C 16.766 0.731235 -2.91674 0
M  V30 185 C 18.314 0.82473 -3.01939 0
M  V30 186 C 18.789 0.975522 -4.4749 0
M  V30 187 N 20.28 1.04083 -4.51354 0
M  V30 188 C 21.015 1.17646 -5.61201 0
M  V30 189 N 20.511 1.27874 -6.80896 0
M  V30 190 N 22.304 1.20823 -5.48961 0
M  V30 191 H 14.455 -0.575456 -2.04456 0
M  V30 192 H 16.718 -0.196099 -0.927496 0
M  V30 193 H 16.424 -0.138392 -3.51428 0
M  V30 194 H 16.298 1.60883 -3.41169 0
M  V30 195 H 18.685 1.68482 -2.42276 0
M  V30 196 H 18.766 -0.0776479 -2.55682 0
M  V30 197 H 18.41 0.120058 -5.07758 0
M  V30 198 H 18.34 1.89268 -4.91412 0
M  V30 199 H 20.831 0.973846 -3.65136 0
M  V30 200 H 21.144 1.38081 -7.60364 0
M  V30 201 H 19.489 1.24863 -6.83692 0
M  V30 202 H 22.68 1.12469 -4.54388 0
M  V30 203 H 22.853 1.31049 -6.3461 0
M  V30 204 N 16.2591 1.48442 0.529413 0
M  V30 205 C 17.5071 1.56179 1.28267 0
M  V30 206 C 17.8281 0.237721 1.93546 0
M  V30 207 O 17.0981 -0.740779 1.81354 0
M  V30 208 H 15.6781 0.575367 0.476405 0
M  V30 209 H 18.3401 1.84909 0.61602 0
M  V30 210 H 17.4361 2.34312 2.06165 0
M  V30 211 N 17.7372 -0.778329 1.37039 0
M  V30 212 C 18.6472 -1.92253 1.34446 0
M  V30 213 C 19.6632 -1.72267 0.244991 0
M  V30 214 O 20.8392 -1.95615 0.479258 0
M  V30 215 C 17.9042 -3.27282 1.144 0
M  V30 216 C 16.9652 -3.59969 2.33925 0
M  V30 217 C 16.1982 -4.88555 2.14825 0
M  V30 218 O 16.4212 -5.59113 1.12912 0
M  V30 219 O 15.3552 -5.20153 3.02861 0
M  V30 220 H 19.1812 -1.97392 2.30803 0
M  V30 221 H 16.7662 -0.920154 1.17701 0
M  V30 222 H 18.6482 -4.08062 1.05182 0
M  V30 223 H 17.3232 -3.23011 0.211124 0
M  V30 224 H 16.2302 -2.7945 2.48714 0
M  V30 225 H 17.5632 -3.68976 3.25757 0
M  V30 226 N 19.2153 -1.21501 -1.00376 0
M  V30 227 C 20.4433 -1.059 -1.77744 0
M  V30 228 C 20.8583 0.391125 -1.84704 0
M  V30 229 O 20.2153 1.27133 -1.30933 0
M  V30 230 C 20.2663 -1.65111 -3.21591 0
M  V30 231 O 19.9873 -3.0445 -3.15027 0
M  V30 232 C 21.4883 -1.54637 -4.15454 0
M  V30 233 H 18.7083 -0.371825 -0.558558 0
M  V30 234 H 21.2523 -1.60865 -1.26264 0
M  V30 235 H 19.4073 -1.14235 -3.70175 0
M  V30 236 H 19.8213 -3.3278 -4.0541 0
M  V30 237 H 21.2953 -2.00808 -5.14179 0
M  V30 238 H 21.7723 -0.501022 -4.36333 0
M  V30 239 H 22.3783 -2.04767 -3.72761 0
M  V30 240 N 20.6934 1.19889 -1.02296 0
M  V30 241 C 22.1094 1.41462 -0.738954 0
M  V30 242 C 22.3094 1.89721 0.678846 0
M  V30 243 O 21.3654 2.07016 1.4457 0
M  V30 244 C 22.6784 2.43083 -1.77005 0
M  V30 245 C 24.2264 2.5684 -1.78892 0
M  V30 246 C 24.7014 3.61709 -2.80945 0
M  V30 247 N 26.1924 3.69199 -2.79725 0
M  V30 248 C 26.9274 4.50019 -3.55345 0
M  V30 249 N 26.4234 5.34592 -4.40662 0
M  V30 250 N 28.2164 4.44612 -3.43914 0
M  V30 251 H 20.3674 0.868827 -1.93817 0
M  V30 252 H 22.6304 0.44399 -0.837602 0
M  V30 253 H 22.3364 2.14636 -2.78612 0
M  V30 254 H 22.2104 3.4217 -1.58744 0
M  V30 255 H 24.5974 2.84614 -0.779674 0
M  V30 256 H 24.6784 1.57927 -2.01228 0
M  V30 257 H 24.3224 3.34678 -3.82038 0
M  V30 258 H 24.2524 4.60259 -2.5587 0
M  V30 259 H 26.7434 3.08794 -2.17842 0
M  V30 260 H 27.0564 5.93363 -4.95116 0
M  V30 261 H 25.4014 5.34073 -4.44737 0
M  V30 262 H 28.5924 3.7758 -2.76679 0
M  V30 263 H 28.7654 5.0736 -4.031 0
M  V30 264 N 22.1715 0.800033 1.35784 0
M  V30 265 C 23.1345 0.211565 2.28221 0
M  V30 266 C 24.1345 -0.59728 1.49296 0
M  V30 267 O 25.3245 -0.416721 1.69142 0
M  V30 268 C 22.4565 -0.705846 3.33513 0
M  V30 269 H 23.6495 1.02677 2.81776 0
M  V30 270 H 21.2025 0.570211 1.45528 0
M  V30 271 H 21.9375 -1.54498 2.85133 0
M  V30 272 H 21.7225 -0.127655 3.91892 0
M  V30 273 H 23.2125 -1.11211 4.02519 0
M  V30 274 N 23.6496 -1.47581 0.552962 0
M  V30 275 C 24.5796 -2.32762 -0.185451 0
M  V30 276 C 25.5606 -1.43527 -0.912905 0
M  V30 277 O 26.7456 -1.72388 -0.894201 0
M  V30 278 C 23.8756 -3.25219 -1.21859 0
M  V30 279 C 22.8296 -4.23661 -0.607864 0
M  V30 280 C 22.1556 -5.05413 -1.74533 0
M  V30 281 C 23.4556 -5.20481 0.435582 0
M  V30 282 H 25.1496 -2.94749 0.525684 0
M  V30 283 H 22.6956 -1.41738 0.254251 0
M  V30 284 H 24.6486 -3.8365 -1.7433 0
M  V30 285 H 23.3726 -2.61279 -1.95961 0
M  V30 286 H 22.0316 -3.66451 -0.104489 0
M  V30 287 H 21.6796 -4.3788 -2.47529 0
M  V30 288 H 21.3796 -5.72059 -1.34249 0
M  V30 289 H 22.9036 -5.66701 -2.27338 0
M  V30 290 H 24.3176 -5.733 -0.00290157 0
M  V30 291 H 22.7146 -5.95305 0.757067 0
M  V30 292 H 23.7846 -4.66217 1.33303 0
M  V30 293 N 25.1277 -0.289203 -1.54924 0
M  V30 294 C 26.3677 0.324536 -2.01807 0
M  V30 295 C 26.7317 1.5199 -1.17316 0
M  V30 296 O 27.9327 2.20422 -1.53843 0
M  V30 297 C 26.2037 0.683578 -3.50802 0
M  V30 298 S 27.7627 1.28185 -4.19659 0
M  V30 299 H 24.5807 0.100236 -0.703899 0
M  V30 300 H 27.1827 -0.414325 -1.91059 0
M  V30 301 H 25.8867 -0.195073 -4.09936 0
M  V30 302 H 25.4177 1.45354 -3.65562 0
M  V30 303 H 27.4327 2.57006 -4.24456 0
M  V30 304 N 26.6058 1.57591 -0.0167156 0
M  V30 305 C 27.5358 2.12496 0.967858 0
M  V30 306 C 28.5168 1.03807 1.34752 0
M  V30 307 O 29.7018 1.31577 1.42833 0
M  V30 308 C 26.8318 2.64194 2.25431 0
M  V30 309 C 25.7858 3.77559 2.01576 0
M  V30 310 C 25.1118 4.15636 3.36379 0
M  V30 311 C 26.4118 5.04151 1.36489 0
M  V30 312 H 28.1058 2.95013 0.510643 0
M  V30 313 H 25.6518 1.41915 0.244181 0
M  V30 314 H 27.6048 3.01236 2.94678 0
M  V30 315 H 26.3288 1.78821 2.73296 0
M  V30 316 H 24.9878 3.40937 1.34751 0
M  V30 317 H 24.6358 3.27263 3.81979 0
M  V30 318 H 24.3358 4.92022 3.21229 0
M  V30 319 H 25.8598 4.5525 4.06915 0
M  V30 320 H 27.2738 5.38857 1.95718 0
M  V30 321 H 25.6708 5.85453 1.31776 0
M  V30 322 H 26.7408 4.83733 0.336219 0
M  V30 323 N 28.0839 -0.256276 1.55502 0
M  V30 324 C 29.3319 -0.983672 1.76545 0
M  V30 325 C 29.6529 -1.86206 0.578982 0
M  V30 326 O 28.9229 -1.91656 -0.405577 0
M  V30 327 H 27.5029 -0.366191 0.651086 0
M  V30 328 H 30.1649 -0.276479 1.92929 0
M  V30 329 H 29.2609 -1.61087 2.67315 0
M  V30 330 N 29.562 -1.4872 -0.521534 0
M  V30 331 C 30.808 -1.574 -1.27879 0
M  V30 332 C 31.141 -0.250817 -1.92573 0
M  V30 333 O 30.416 0.743934 -1.79711 0
M  V30 334 C 30.699 -2.71843 -2.36164 0
M  V30 335 C 30.552 -4.13893 -1.76105 0
M  V30 336 C 31.871 -2.82008 -3.37875 0
M  V30 337 H 28.99 -0.572941 -0.463581 0
M  V30 338 H 31.632 -1.80927 -0.580119 0
M  V30 339 H 29.782 -2.51914 -2.95756 0
M  V30 340 H 31.454 -4.45284 -1.20499 0
M  V30 341 H 29.697 -4.20498 -1.06601 0
M  V30 342 H 30.368 -4.89804 -2.5455 0
M  V30 343 H 32.844 -3.00086 -2.88249 0
M  V30 344 H 31.72 -3.63796 -4.11028 0
M  V30 345 H 31.981 -1.90511 -3.98946 0
M  V30 346 N 31.0401 0.771051 -1.3745 0
M  V30 347 C 32.2681 1.56015 -1.35893 0
M  V30 348 C 32.6831 1.88718 0.0555523 0
M  V30 349 O 32.0401 1.51502 1.01752 0
M  V30 350 C 32.0911 2.87001 -2.19801 0
M  V30 351 O 31.8121 2.557 -3.55738 0
M  V30 352 C 33.3131 3.81228 -2.26231 0
M  V30 353 H 30.5331 0.483317 -0.465453 0
M  V30 354 H 33.0771 0.955611 -1.80799 0
M  V30 355 H 31.2321 3.43877 -1.78402 0
M  V30 356 H 31.6461 3.39584 -3.99729 0
M  V30 357 H 33.1201 4.70139 -2.89263 0
M  V30 358 H 33.5971 4.20409 -1.27093 0
M  V30 359 H 34.2031 3.30281 -2.67945 0
M  V30 360 N 32.5182 1.22032 0.997298 0
M  V30 361 C 33.4512 0.929735 2.08401 0
M  V30 362 C 34.4292 -0.125681 1.62114 0
M  V30 363 O 35.6132 0.00495409 1.88499 0
M  V30 364 C 32.7402 0.397488 3.3636 0
M  V30 365 C 31.7862 1.4369 4.01566 0
M  V30 366 S 32.6192 3.00874 4.42984 0
M  V30 367 C 33.7752 2.49276 5.74119 0
M  V30 368 H 34.0082 1.84998 2.32729 0
M  V30 369 H 31.5412 1.0509 1.13117 0
M  V30 370 H 33.4992 0.0969846 4.10385 0
M  V30 371 H 32.1602 -0.501571 3.10069 0
M  V30 372 H 31.3532 1.01427 4.93689 0
M  V30 373 H 30.9552 1.68588 3.33847 0
M  V30 374 H 33.2472 1.90242 6.50242 0
M  V30 375 H 34.1902 3.39872 6.21203 0
M  V30 376 H 34.5982 1.90714 5.31308 0
M  V30 377 N 33.9963 -1.19345 1.0293 0
M  V30 378 C 35.2423 -1.89318 0.727083 0
M  V30 379 C 35.5753 -1.79446 -0.742483 0
M  V30 380 O 34.8503 -1.1871 -1.54072 0
M  V30 381 C 35.1333 -3.40238 1.17942 0
M  V30 382 C 34.9863 -3.58979 2.71024 0
M  V30 383 C 36.3053 -4.33479 0.760548 0
M  V30 384 H 33.4243 -0.687475 0.265606 0
M  V30 385 H 36.0663 -1.40477 1.2793 0
M  V30 386 H 34.2163 -3.81964 0.709608 0
M  V30 387 H 35.8883 -3.26421 3.25955 0
M  V30 388 H 34.1313 -3.02018 3.11396 0
M  V30 389 H 34.8023 -4.64823 2.9773 0
M  V30 390 H 37.2783 -3.99469 1.16464 0
M  V30 391 H 36.1543 -5.37664 1.10493 0
M  V30 392 H 36.4153 -4.40813 -0.337063 0
M  V30 393 N 35.4744 -0.807222 -1.35358 0
M  V30 394 C 36.7204 -0.388463 -1.99045 0
M  V30 395 C 37.0534 1.04184 -1.63888 0
M  V30 396 O 36.3284 1.72292 -0.902535 0
M  V30 397 C 36.6114 -0.572783 -3.55515 0
M  V30 398 C 36.4644 -2.04807 -4.00468 0
M  V30 399 C 37.7834 0.00114064 -4.401 0
M  V30 400 H 34.9024 -0.142619 -0.723069 0
M  V30 401 H 37.5444 -1.01687 -1.60498 0
M  V30 402 H 35.6944 -0.0378425 -3.88482 0
M  V30 403 H 37.3664 -2.64544 -3.77908 0
M  V30 404 H 35.6094 -2.54427 -3.51353 0
M  V30 405 H 36.2804 -2.12792 -5.09337 0
M  V30 406 H 38.7564 -0.455716 -4.13597 0
M  V30 407 H 37.6324 -0.157737 -5.48673 0
M  V30 408 H 37.8934 1.09488 -4.28328 0
M  V30 409 N 36.9525 1.47285 -0.560781 0
M  V30 410 C 38.1925 2.0436 -0.0404627 0
M  V30 411 C 38.5565 1.42534 1.28639 0
M  V30 412 O 39.7575 1.90677 1.89462 0
M  V30 413 C 38.0285 3.57369 0.0471856 0
M  V30 414 S 39.5875 4.3579 0.513109 0
M  V30 415 H 36.4055 0.710492 -0.0268674 0
M  V30 416 H 39.0075 1.80611 -0.748323 0
M  V30 417 H 37.7115 3.9989 -0.922817 0
M  V30 418 H 37.2425 3.8562 0.778491 0
M  V30 419 H 39.2575 4.63476 1.77212 0
M  V30 420 N 38.4306 0.297415 1.54768 0
M  V30 421 C 39.3936 -0.567375 2.22066 0
M  V30 422 C 40.3936 -1.06409 1.20556 0
M  V30 423 O 41.5836 -0.960691 1.45315 0
M  V30 424 C 38.7156 -1.78517 2.90421 0
M  V30 425 H 39.9086 0.0205534 2.99893 0
M  V30 426 H 37.4616 0.0482163 1.56226 0
M  V30 427 H 38.1966 -2.41303 2.16664 0
M  V30 428 H 37.9816 -1.43669 3.64831 0
M  V30 429 H 39.4716 -2.39964 3.41771 0
M  V30 430 N 39.9087 -1.5758 0.0250728 0
M  V30 431 C 41.1547 -1.91917 -0.655413 0
M  V30 432 C 41.4877 -0.901433 -1.72011 0
M  V30 433 O 40.7627 0.0764069 -1.9435 0
M  V30 434 C 41.0457 -3.36751 -1.27558 0
M  V30 435 C 40.8987 -4.49258 -0.220719 0
M  V30 436 C 42.2177 -3.81469 -2.19475 0
M  V30 437 H 39.3367 -0.697925 -0.23679 0
M  V30 438 H 41.9787 -1.89825 0.0815036 0
M  V30 439 H 40.1287 -3.38664 -1.90365 0
M  V30 440 H 41.8007 -4.59478 0.409601 0
M  V30 441 H 40.0437 -4.31415 0.454264 0
M  V30 442 H 40.7147 -5.47618 -0.694175 0
M  V30 443 H 43.1907 -3.81266 -1.66659 0
M  V30 444 H 42.0667 -4.83512 -2.59822 0
M  V30 445 H 42.3277 -3.16744 -3.08424 0
M  V30 446 N 41.3868 0.248026 -1.55636 0
M  V30 447 C 42.6358 0.974134 -1.76617 0
M  V30 448 C 42.9488 1.86528 -0.588796 0
M  V30 449 O 44.1548 2.62805 -0.681594 0
M  V30 450 C 42.6108 1.78213 -3.12679 0
M  V30 451 C 42.2188 0.93843 -4.38061 0
M  V30 452 C 43.9628 2.50104 -3.42999 0
M  V30 453 C 41.8698 1.74225 -5.65155 0
M  V30 454 H 40.7998 0.36745 -0.658405 0
M  V30 455 H 43.4508 0.22884 -1.82067 0
M  V30 456 H 41.8328 2.56933 -3.01333 0
M  V30 457 H 43.0068 0.193635 -4.60393 0
M  V30 458 H 41.3218 0.332905 -4.15067 0
M  V30 459 H 43.9188 3.10694 -4.3517 0
M  V30 460 H 44.2618 3.21662 -2.64271 0
M  V30 461 H 44.7948 1.78395 -3.55556 0
M  V30 462 H 41.5338 1.07043 -6.46701 0
M  V30 463 H 41.0538 2.46235 -5.46926 0
M  V30 464 H 42.7328 2.30967 -6.0437 0
M  V30 465 N 42.8649 1.48995 0.513639 0
M  V30 466 C 44.0929 1.61531 1.29288 0
M  V30 467 C 44.5079 0.281801 1.86685 0
M  V30 468 O 43.8649 -0.731111 1.67215 0
M  V30 469 C 43.9159 2.67449 2.43215 0
M  V30 470 O 43.6369 3.95626 1.88179 0
M  V30 471 C 45.1379 2.90575 3.34785 0
M  V30 472 H 42.3579 0.544165 0.392588 0
M  V30 473 H 44.9019 1.9494 0.617956 0
M  V30 474 H 43.0569 2.36853 3.0656 0
M  V30 475 H 43.4709 4.53868 2.62876 0
M  V30 476 H 44.9449 3.68449 4.11035 0
M  V30 477 H 45.4219 2.00011 3.91015 0
M  V30 478 H 46.0279 3.22538 2.77218 0
M  V30 479 N 44.343 -0.763751 1.37857 0
M  V30 480 C 45.573 -1.55067 1.3652 0
M  V30 481 C 45.981 -1.89135 -0.0494227 0
M  V30 482 O 45.324 -1.52529 -1.02375 0
M  V30 483 C 45.386 -2.8838 2.14656 0
M  V30 484 C 45.05 -2.76905 3.63555 0
M  V30 485 C 46.047 -2.4739 4.57268 0
M  V30 486 C 43.732 -2.94676 4.06781 0
M  V30 487 C 45.726 -2.35786 5.92186 0
M  V30 488 C 43.413 -2.82692 5.41782 0
M  V30 489 C 44.411 -2.53289 6.34298 0
M  V30 490 O 44.099 -2.41345 7.66817 0
M  V30 491 H 43.831 -0.486776 0.469069 0
M  V30 492 H 46.385 -0.953812 1.81911 0
M  V30 493 H 44.615 -3.50217 1.63967 0
M  V30 494 H 46.304 -3.49828 2.05852 0
M  V30 495 H 47.07 -2.33339 4.2518 0
M  V30 496 H 42.949 -3.16563 3.35126 0
M  V30 497 H 46.493 -2.12757 6.64365 0
M  V30 498 H 42.39 -2.96314 5.7347 0
M  V30 499 H 43.158 -2.56634 7.77226 0
M  V30 500 N 45.8211 -1.22559 -0.990812 0
M  V30 501 C 47.0511 -1.07623 -1.76355 0
M  V30 502 C 47.4591 0.37601 -1.85426 0
M  V30 503 O 46.8021 1.27228 -1.32509 0
M  V30 504 C 46.8641 -1.61507 -3.21179 0
M  V30 505 C 46.5281 -3.10146 -3.35646 0
M  V30 506 C 47.5251 -4.07553 -3.22796 0
M  V30 507 C 45.2101 -3.49644 -3.60631 0
M  V30 508 C 47.2041 -5.42442 -3.34716 0
M  V30 509 C 44.8911 -4.84682 -3.72192 0
M  V30 510 C 45.8891 -5.8089 -3.59243 0
M  V30 511 O 45.5771 -7.13476 -3.70415 0
M  V30 512 H 45.3091 -0.377745 -0.560611 0
M  V30 513 H 47.8631 -1.62658 -1.25425 0
M  V30 514 H 46.0931 -1.00881 -3.73309 0
M  V30 515 H 47.7821 -1.42202 -3.80175 0
M  V30 516 H 48.5481 -3.78381 -3.03403 0
M  V30 517 H 44.4271 -2.75282 -3.69785 0
M  V30 518 H 47.9711 -6.17518 -3.24526 0
M  V30 519 H 43.8681 -5.13534 -3.91092 0
M  V30 520 H 44.6361 -7.21083 -3.87275 0
M  V30 521 N 47.2992 1.18797 -1.03562 0
M  V30 522 C 48.5482 1.87978 -0.731235 0
M  V30 523 C 48.8612 1.80911 0.743671 0
M  V30 524 O 50.0672 2.45407 1.16137 0
M  V30 525 C 48.5232 3.3721 -1.25768 0
M  V30 526 C 48.1312 3.52818 -2.76085 0
M  V30 527 C 49.8752 4.11825 -1.0296 0
M  V30 528 C 47.7822 4.9598 -3.22114 0
M  V30 529 H 46.7122 0.704063 -0.269835 0
M  V30 530 H 49.3632 1.34266 -1.25079 0
M  V30 531 H 47.7452 3.90359 -0.666011 0
M  V30 532 H 48.9192 3.09965 -3.40966 0
M  V30 533 H 47.2342 2.91602 -2.97249 0
M  V30 534 H 49.8312 5.17411 -1.34869 0
M  V30 535 H 50.1742 4.16287 0.0333546 0
M  V30 536 H 50.7072 3.64833 -1.58562 0
M  V30 537 H 47.4462 4.96684 -4.27768 0
M  V30 538 H 46.9662 5.39569 -2.61965 0
M  V30 539 H 48.6452 5.6467 -3.15844 0
M  V30 540 N 48.7773 0.814389 1.34928 0
M  V30 541 C 49.7073 0.244827 2.32213 0
M  V30 542 C 50.6883 -0.634024 1.57842 0
M  V30 543 O 51.8733 -0.562676 1.8587 0
M  V30 544 C 49.0033 -0.601106 3.42058 0
M  V30 545 C 47.9573 0.179896 4.27622 0
M  V30 546 C 47.2833 -0.788237 5.28858 0
M  V30 547 C 48.5833 1.38329 5.03649 0
M  V30 548 H 50.2773 1.05763 2.80097 0
M  V30 549 H 47.8233 0.510029 1.34665 0
M  V30 550 H 49.7763 -1.00968 4.09125 0
M  V30 551 H 48.5003 -1.44688 2.92802 0
M  V30 552 H 47.1593 0.569739 3.62146 0
M  V30 553 H 46.8073 -1.62973 4.75866 0
M  V30 554 H 46.5073 -0.269942 5.8698 0
M  V30 555 H 48.0313 -1.19485 5.98795 0
M  V30 556 H 49.4453 1.04918 5.63618 0
M  V30 557 H 47.8423 1.83662 5.71304 0
M  V30 558 H 48.9123 2.16592 4.33839 0
M  V30 559 N 50.2554 -1.46986 0.568584 0
M  V30 560 C 51.5014 -2.02741 0.0488709 0
M  V30 561 C 51.8344 -1.44077 -1.30214 0
M  V30 562 O 51.1094 -0.600552 -1.84996 0
M  V30 563 C 51.3924 -3.60086 -0.032047 0
M  V30 564 C 51.2454 -4.29162 1.34686 0
M  V30 565 C 52.5644 -4.33838 -0.739798 0
M  V30 566 H 49.6834 -0.736749 0.0192338 0
M  V30 567 H 52.3254 -1.75289 0.733065 0
M  V30 568 H 50.4754 -3.83606 -0.61473 0
M  V30 569 H 52.1474 -4.16948 1.97362 0
M  V30 570 H 50.3904 -3.89073 1.91846 0
M  V30 571 H 51.0614 -5.37826 1.24285 0
M  V30 572 H 53.5374 -4.15378 -0.244939 0
M  V30 573 H 52.4134 -5.43537 -0.765406 0
M  V30 574 H 52.6744 -4.03875 -1.79827 0
M  V30 575 N 51.7335 -0.305618 -1.54608 0
M  V30 576 C 52.9615 0.304775 -2.04643 0
M  V30 577 C 53.3765 1.47167 -1.18268 0
M  V30 578 O 52.7335 1.81296 -0.209328 0
M  V30 579 C 52.7845 0.756564 -3.53495 0
M  V30 580 O 52.5055 -0.36389 -4.36586 0
M  V30 581 C 54.0065 1.43163 -4.19546 0
M  V30 582 H 51.2265 0.0655481 -0.667791 0
M  V30 583 H 53.7705 -0.446592 -1.99564 0
M  V30 584 H 51.9255 1.45794 -3.58919 0
M  V30 585 H 52.3395 -0.0113121 -5.24499 0
M  V30 586 H 53.8135 1.69886 -5.25207 0
M  V30 587 H 54.2905 2.37318 -3.69563 0
M  V30 588 H 54.8965 0.773307 -4.18211 0
M  V30 589 N 53.2116 1.57565 -0.0334293 0
M  V30 590 C 54.4396 1.9628 0.654347 0
M  V30 591 C 54.8546 0.910138 1.65414 0
M  V30 592 O 54.2116 -0.107595 1.82183 0
M  V30 593 C 54.2626 3.35067 1.35693 0
M  V30 594 O 53.9836 4.36296 0.397191 0
M  V30 595 C 55.4846 3.88439 2.13613 0
M  V30 596 H 52.7046 0.646369 0.180132 0
M  V30 597 H 55.2486 2.04282 -0.0944721 0
M  V30 598 H 53.4036 3.2827 2.05712 0
M  V30 599 H 53.8176 5.1678 0.896597 0
M  V30 600 H 55.2916 4.8788 2.58219 0
M  V30 601 H 55.7686 3.22914 2.97696 0
M  V30 602 H 56.3746 3.98516 1.48543 0
M  V30 603 N 54.6897 -0.239769 1.55765 0
M  V30 604 C 55.9357 -0.968234 1.78194 0
M  V30 605 C 56.2687 -1.84701 0.599938 0
M  V30 606 O 55.5437 -1.9031 -0.401524 0
M  V30 607 C 55.8267 -1.8227 3.10564 0
M  V30 608 C 55.6797 -0.971633 4.3918 0
M  V30 609 C 56.9987 -2.80388 3.39221 0
M  V30 610 H 54.1177 -0.350572 0.648281 0
M  V30 611 H 56.7597 -0.238259 1.885 0
M  V30 612 H 54.9097 -2.44507 3.01908 0
M  V30 613 H 56.5817 -0.367408 4.59835 0
M  V30 614 H 54.8247 -0.276276 4.32919 0
M  V30 615 H 55.4957 -1.60346 5.28198 0
M  V30 616 H 57.9717 -2.28287 3.47885 0
M  V30 617 H 56.8477 -3.3729 4.33044 0
M  V30 618 H 57.1087 -3.57212 2.60484 0
M  V30 619 N 56.1678 -1.49265 -0.50573 0
M  V30 620 C 57.0978 -1.68495 -1.61653 0
M  V30 621 C 58.0788 -0.53366 -1.61512 0
M  V30 622 O 59.2638 -0.76897 -1.78327 0
M  V30 623 C 56.3938 -1.74709 -3.00157 0
M  V30 624 C 55.3478 -2.89581 -3.15162 0
M  V30 625 C 54.6738 -2.80903 -4.5497 0
M  V30 626 C 55.9738 -4.30578 -2.95634 0
M  V30 627 H 57.6678 -2.61493 -1.45814 0
M  V30 628 H 55.2138 -1.25838 -0.70005 0
M  V30 629 H 57.1668 -1.86748 -3.77761 0
M  V30 630 H 55.8908 -0.783067 -3.17074 0
M  V30 631 H 54.5498 -2.77136 -2.39982 0
M  V30 632 H 54.1978 -1.82419 -4.68756 0
M  V30 633 H 53.8978 -3.57999 -4.65951 0
M  V30 634 H 55.4218 -2.94944 -5.34641 0
M  V30 635 H 56.8358 -4.4373 -3.63011 0
M  V30 636 H 55.2328 -5.0886 -3.18091 0
M  V30 637 H 56.3028 -4.45352 -1.91806 0
M  V30 638 N 57.6459 0.756429 -1.3826 0
M  V30 639 C 59.0569 1.33359 -1.30661 0
M  V30 640 C 59.4079 1.96161 0.0388875 0
M  V30 641 O 58.5329 1.94874 0.940918 0
M  V30 642 C 59.1279 2.42477 -2.36622 0
M  V30 643 C 57.6869 2.95922 -2.3261 0
M  V30 644 C 56.8339 1.69275 -2.19639 0
M  V30 645 H 59.7849 0.55552 -1.4866 0
M  V30 646 H 59.8059 3.22345 -2.02174 0
M  V30 647 H 59.3179 1.96739 -3.34538 0
M  V30 648 H 57.4189 3.45996 -1.38267 0
M  V30 649 H 57.5319 3.50494 -3.26636 0
M  V30 650 H 55.8959 1.92793 -1.66442 0
M  V30 651 H 56.6789 1.25619 -3.19491 0
M  V30 652 N 59.124 1.23083 0.984299 0
M  V30 653 C 60.054 1.03292 2.09411 0
M  V30 654 C 61.035 -0.048923 1.7003 0
M  V30 655 O 62.22 0.114967 1.93859 0
M  V30 656 C 59.35 0.619155 3.41736 0
M  V30 657 C 58.304 1.64791 3.95004 0
M  V30 658 C 57.63 1.0897 5.23478 0
M  V30 659 C 58.93 3.03999 4.24714 0
M  V30 660 H 60.624 1.96119 2.26225 0
M  V30 661 H 58.17 0.944344 1.08711 0
M  V30 662 H 60.123 0.467777 4.18796 0
M  V30 663 H 58.847 -0.344786 3.24775 0
M  V30 664 H 57.506 1.78721 3.20085 0
M  V30 665 H 57.154 0.11686 5.02864 0
M  V30 666 H 56.854 1.77704 5.60085 0
M  V30 667 H 58.378 0.950093 6.03163 0
M  V30 668 H 59.792 2.93393 4.92538 0
M  V30 669 H 58.189 3.69936 4.72512 0
M  V30 670 H 59.259 3.53285 3.32142 0
M  V30 671 N 60.6021 -1.18246 1.0419 0
M  V30 672 C 61.8321 -1.91916 0.764961 0
M  V30 673 C 62.2401 -1.76485 -0.681898 0
M  V30 674 O 61.5831 -1.09275 -1.47664 0
M  V30 675 C 61.6451 -3.4373 1.05309 0
M  V30 676 C 61.3091 -3.8294 2.4941 0
M  V30 677 C 62.3061 -3.86621 3.47592 0
M  V30 678 C 59.9911 -4.142 2.84155 0
M  V30 679 C 61.9851 -4.21013 4.78568 0
M  V30 680 C 59.6721 -4.48262 4.15337 0
M  V30 681 C 60.6701 -4.51645 5.12353 0
M  V30 682 O 60.3581 -4.84911 6.41183 0
M  V30 683 H 60.0901 -0.61606 0.278292 0
M  V30 684 H 62.6441 -1.50947 1.39299 0
M  V30 685 H 60.8741 -3.84946 0.367933 0
M  V30 686 H 62.5631 -3.9865 0.763752 0
M  V30 687 H 63.3291 -3.62607 3.22089 0
M  V30 688 H 59.2081 -4.10743 2.09311 0
M  V30 689 H 62.7521 -4.23568 5.54289 0
M  V30 690 H 58.6491 -4.71737 4.40607 0
M  V30 691 H 59.4171 -5.02809 6.45852 0
M  V30 692 N 62.0802 -0.821533 -1.34494 0
M  V30 693 C 63.0122 -0.199946 -2.28326 0
M  V30 694 C 64.0252 0.609377 -1.50965 0
M  V30 695 O 65.2142 0.439285 -1.7301 0
M  V30 696 C 62.3142 0.738431 -3.30757 0
M  V30 697 C 61.4872 -0.0277632 -4.37391 0
M  V30 698 C 60.5462 0.831332 -5.19591 0
M  V30 699 O 59.5722 0.276822 -5.68526 0
M  V30 700 N 60.7742 2.15132 -5.39165 0
M  V30 701 H 63.5392 -1.00609 -2.82308 0
M  V30 702 H 61.1002 -0.678366 -1.47003 0
M  V30 703 H 63.0922 1.31773 -3.82646 0
M  V30 704 H 61.6622 1.44533 -2.7718 0
M  V30 705 H 60.8822 -0.788359 -3.86236 0
M  V30 706 H 62.1702 -0.555251 -5.05761 0
M  V30 707 H 61.5682 2.62559 -5.01078 0
M  V30 708 H 60.1252 2.6795 -5.94177 0
M  V30 709 N 63.5583 1.46682 -0.576371 0
M  V30 710 C 64.5053 2.30241 0.160499 0
M  V30 711 C 65.4753 1.40233 0.890162 0
M  V30 712 O 66.6603 1.69186 0.882084 0
M  V30 713 C 63.8003 3.24578 1.1723 0
M  V30 714 C 62.9133 4.29684 0.446736 0
M  V30 715 C 62.0483 5.11154 1.44551 0
M  V30 716 C 61.0873 6.08015 0.70599 0
M  V30 717 N 60.2243 6.82376 1.65251 0
M  V30 718 H 65.0643 2.92727 -0.558127 0
M  V30 719 H 62.6013 1.44272 -0.287056 0
M  V30 720 H 64.5593 3.77711 1.77172 0
M  V30 721 H 63.1893 2.63916 1.85872 0
M  V30 722 H 62.2413 3.79458 -0.267594 0
M  V30 723 H 63.5533 4.98626 -0.131686 0
M  V30 724 H 62.7073 5.68533 2.11791 0
M  V30 725 H 61.4463 4.42158 2.05786 0
M  V30 726 H 60.4513 5.49796 0.0197725 0
M  V30 727 H 61.6763 6.79028 0.09912 0
M  V30 728 H 59.6223 6.16094 2.25308 0
M  V30 729 H 59.5393 7.47556 1.12673 0
M  V30 730 H 60.8073 7.44316 2.31546 0
M  V30 731 N 65.0364 0.313813 1.54444 0
M  V30 732 C 66.2614 -0.296681 2.05267 0
M  V30 733 C 66.6864 -1.45757 1.18897 0
M  V30 734 O 66.0444 -1.80239 0.195886 0
M  V30 735 C 66.0924 -0.71831 3.53373 0
M  V30 736 O 65.1964 -1.82175 3.69981 0
M  V30 737 H 64.5374 -0.0554061 0.661684 0
M  V30 738 H 67.0674 0.459387 1.99376 0
M  V30 739 H 67.0774 -1.00364 3.95463 0
M  V30 740 H 65.7524 0.130821 4.15694 0
M  V30 741 H 64.3294 -1.53598 3.39797 0
M  V30 742 N 66.5145 -1.57545 0.0417849 0
M  V30 743 C 67.7605 -1.92601 -0.635021 0
M  V30 744 C 68.0935 -0.919627 -1.71045 0
M  V30 745 O 67.3685 0.0557892 -1.9442 0
M  V30 746 C 67.6515 -3.38085 -1.23979 0
M  V30 747 C 67.5045 -4.49467 -0.173057 0
M  V30 748 C 68.8235 -3.83776 -2.15416 0
M  V30 749 H 65.9425 -0.700397 -0.229374 0
M  V30 750 H 68.5845 -1.89728 0.101633 0
M  V30 751 H 66.7345 -3.40664 -1.86762 0
M  V30 752 H 68.4065 -4.59018 0.458312 0
M  V30 753 H 66.6495 -4.30909 0.499996 0
M  V30 754 H 67.3205 -5.48323 -0.636054 0
M  V30 755 H 69.7965 -3.83013 -1.62605 0
M  V30 756 H 68.6725 -4.8624 -2.54679 0
M  V30 757 H 68.9335 -3.19998 -3.05047 0
M  V30 758 N 67.9926 0.231505 -1.5589 0
M  V30 759 C 69.2386 0.954429 -1.79617 0
M  V30 760 C 69.5936 1.82367 -0.613199 0
M  V30 761 O 68.8866 1.87524 0.393094 0
M  V30 762 C 69.0806 1.83577 -3.0665 0
M  V30 763 C 68.9096 1.05334 -4.3719 0
M  V30 764 C 67.6796 0.75225 -4.99669 0
M  V30 765 C 69.8776 0.423444 -5.12554 0
M  V30 766 N 67.8596 -0.052627 -6.13877 0
M  V30 767 C 69.2306 -0.245287 -6.19515 0
M  V30 768 C 71.2856 0.335466 -4.96769 0
M  V30 769 C 69.9886 -0.993566 -7.12405 0
M  V30 770 C 72.0146 -0.399321 -5.9005 0
M  V30 771 C 71.3766 -1.05663 -6.9643 0
M  V30 772 H 67.4756 0.329846 -0.709031 0
M  V30 773 H 70.0596 0.226172 -1.93382 0
M  V30 774 H 68.2306 2.53592 -2.94186 0
M  V30 775 H 69.9626 2.49541 -3.18608 0
M  V30 776 H 66.7176 1.06783 -4.61405 0
M  V30 777 H 67.1416 -0.443609 -6.75545 0
M  V30 778 H 71.7836 0.829311 -4.14587 0
M  V30 779 H 69.5016 -1.49896 -7.94076 0
M  V30 780 H 73.0876 -0.468265 -5.79913 0
M  V30 781 H 71.9676 -1.61612 -7.67366 0
M  V30 782 N 69.4707 1.49531 0.497807 0
M  V30 783 C 70.6987 1.62893 1.27567 0
M  V30 784 C 71.1137 0.301585 1.86376 0
M  V30 785 O 70.4707 -0.713335 1.67982 0
M  V30 786 C 70.5217 2.70013 2.40364 0
M  V30 787 O 70.2427 3.976 1.83972 0
M  V30 788 C 71.7437 2.94109 3.31685 0
M  V30 789 H 68.9637 0.548298 0.386794 0
M  V30 790 H 71.5077 1.95584 0.597245 0
M  V30 791 H 69.6627 2.40092 3.04031 0
M  V30 792 H 70.0767 4.56631 2.58047 0
M  V30 793 H 71.5507 3.72788 4.07104 0
M  V30 794 H 72.0277 2.04147 3.88871 0
M  V30 795 H 72.6337 3.2546 2.73781 0
M  V30 796 N 70.9488 -0.749086 1.3866 0
M  V30 797 C 71.8808 -1.87273 1.32142 0
M  V30 798 C 72.8938 -1.61127 0.232787 0
M  V30 799 O 74.0828 -1.71623 0.49069 0
M  V30 800 C 71.1828 -3.23005 1.02571 0
M  V30 801 C 70.3558 -3.7662 2.22433 0
M  V30 802 C 69.4148 -4.90879 1.89537 0
M  V30 803 O 68.4408 -5.05276 2.62078 0
M  V30 804 N 69.6428 -5.74198 0.853031 0
M  V30 805 H 72.4078 -1.93373 2.28969 0
M  V30 806 H 69.9688 -0.929216 1.32579 0
M  V30 807 H 71.9608 -3.96992 0.786085 0
M  V30 808 H 70.5308 -3.12262 0.145249 0
M  V30 809 H 69.7508 -2.94147 2.62434 0
M  V30 810 H 71.0388 -4.09173 3.02415 0
M  V30 811 H 70.4368 -5.6514 0.25155 0
M  V30 812 H 68.9938 -6.48313 0.67329 0
M  V30 813 N 72.4269 -1.23603 -0.977757 0
M  V30 814 C 73.3369 -1.03632 -2.1047 0
M  V30 815 C 74.3529 0.0199435 -1.73989 0
M  V30 816 O 75.5289 -0.176076 -2.00629 0
M  V30 817 C 72.5939 -0.63276 -3.40877 0
M  V30 818 C 71.6549 -1.76437 -3.91367 0
M  V30 819 C 70.8879 -1.37997 -5.15551 0
M  V30 820 O 71.1109 -0.265357 -5.69782 0
M  V30 821 O 70.0449 -2.20201 -5.60174 0
M  V30 822 H 73.8709 -1.98086 -2.30208 0
M  V30 823 H 71.4559 -1.02332 -1.08851 0
M  V30 824 H 73.3379 -0.418761 -4.19314 0
M  V30 825 H 72.0129 0.282754 -3.22463 0
M  V30 826 H 70.9199 -2.03304 -3.14036 0
M  V30 827 H 72.2529 -2.6583 -4.14241 0
M  V30 828 N 73.905 1.17692 -1.04816 0
M  V30 829 C 75.13 1.92327 -0.776207 0
M  V30 830 C 75.555 1.76082 0.661581 0
M  V30 831 O 74.913 1.076 1.45917 0
M  V30 832 C 74.961 3.41539 -1.15687 0
M  V30 833 O 74.065 4.11402 -0.286775 0
M  V30 834 H 73.406 0.599735 -0.284981 0
M  V30 835 H 75.936 1.49201 -1.4 0
M  V30 836 H 75.946 3.92269 -1.12202 0
M  V30 837 H 74.621 3.52684 -2.20425 0
M  V30 838 H 73.198 3.70939 -0.381903 0
M  V30 839 N 75.3831 0.828654 1.34056 0
M  V30 840 C 76.3301 0.252567 2.29414 0
M  V30 841 C 77.3001 -0.62588 1.53857 0
M  V30 842 O 78.4851 -0.566312 1.82202 0
M  V30 843 C 75.6251 -0.574831 3.40279 0
M  V30 844 C 74.7381 0.326499 4.30764 0
M  V30 845 C 73.8731 -0.511016 5.28736 0
M  V30 846 C 72.9121 0.389342 6.1086 0
M  V30 847 N 72.0491 -0.409439 7.00905 0
M  V30 848 H 76.8891 1.07108 2.78086 0
M  V30 849 H 74.4261 0.539677 1.36843 0
M  V30 850 H 76.3841 -1.06992 4.03248 0
M  V30 851 H 75.0141 -1.35841 2.92826 0
M  V30 852 H 74.0661 0.939837 3.68607 0
M  V30 853 H 75.3781 1.01857 4.88289 0
M  V30 854 H 74.5321 -1.07035 5.97184 0
M  V30 855 H 73.2711 -1.23657 4.71763 0
M  V30 856 H 72.2761 0.960769 5.4134 0
M  V30 857 H 73.5011 1.1131 6.69916 0
M  V30 858 H 71.4471 -1.11856 6.46393 0
M  V30 859 H 71.3641 0.224126 7.55668 0
M  V30 860 H 72.6321 -0.951336 7.73673 0
M  V30 861 N 76.8612 -1.46375 0.584142 0
M  V30 862 C 78.1012 -2.0427 0.0729695 0
M  V30 863 C 78.4652 -1.44563 -1.26355 0
M  V30 864 O 79.6662 -1.93667 -1.86405 0
M  V30 865 C 77.9372 -3.57399 0.00967464 0
M  V30 866 S 79.4962 -4.36551 -0.443714 0
M  V30 867 H 76.3142 -0.709975 0.0381673 0
M  V30 868 H 78.9162 -1.79398 0.776962 0
M  V30 869 H 77.6202 -3.98372 0.986319 0
M  V30 870 H 77.1512 -3.8681 -0.717044 0
M  V30 871 H 79.1662 -4.66237 -1.69816 0
M  V30 872 N 78.3393 -0.321999 -1.54275 0
M  V30 873 C 79.2893 0.560185 -2.21011 0
M  V30 874 C 80.2733 1.08283 -1.19011 0
M  V30 875 O 81.4653 1.02011 -1.44647 0
M  V30 876 C 78.5943 1.72137 -2.97025 0
M  V30 877 C 77.6803 1.21369 -4.06363 0
M  V30 878 N 78.0713 0.425566 -5.04007 0
M  V30 879 C 76.3693 1.49255 -4.20284 0
M  V30 880 C 77.0703 0.152601 -5.815 0
M  V30 881 N 76.0463 0.738294 -5.38563 0
M  V30 882 H 79.8483 -0.049265 -2.93859 0
M  V30 883 H 77.3623 -0.127779 -1.61897 0
M  V30 884 H 79.3593 2.36512 -3.43319 0
M  V30 885 H 78.0193 2.33431 -2.25699 0
M  V30 886 H 79.0303 0.068551 -5.17855 0
M  V30 887 H 75.7073 2.11145 -3.60172 0
M  V30 888 H 77.0973 -0.481764 -6.70171 0
M  V30 889 N 79.8174 1.5752 -0.0501392 0
M  V30 890 C 80.7474 2.14502 0.922566 0
M  V30 891 C 81.7284 1.06642 1.3252 0
M  V30 892 O 82.9134 1.34577 1.4001 0
M  V30 893 C 80.0434 2.68916 2.19776 0
M  V30 894 C 78.9974 3.8175 1.93523 0
M  V30 895 C 78.3234 4.22677 3.27487 0
M  V30 896 C 79.6234 5.06932 1.25765 0
M  V30 897 H 81.3174 2.9603 0.447952 0
M  V30 898 H 78.8634 1.42401 0.214024 0
M  V30 899 H 80.8164 3.07419 2.88222 0
M  V30 900 H 79.5404 1.84578 2.69441 0
M  V30 901 H 78.1994 3.43718 1.27489 0
M  V30 902 H 77.8474 3.35291 3.74952 0
M  V30 903 H 77.5474 4.98725 3.1072 0
M  V30 904 H 79.0714 4.63779 3.97166 0
M  V30 905 H 80.4854 5.42888 1.84244 0
M  V30 906 H 78.8824 5.88116 1.19328 0
M  V30 907 H 79.9524 4.84337 0.233536 0
M  V30 908 N 81.2955 -0.223234 1.56011 0
M  V30 909 C 82.5445 -0.945912 1.78144 0
M  V30 910 C 82.8575 -1.85567 0.618396 0
M  V30 911 O 84.0635 -2.61688 0.723318 0
M  V30 912 C 82.5195 -1.73216 3.15475 0
M  V30 913 C 82.1275 -0.868619 4.39499 0
M  V30 914 C 83.8715 -2.44615 3.46935 0
M  V30 915 C 81.7785 -1.65212 5.67855 0
M  V30 916 H 80.7085 -0.356929 0.664167 0
M  V30 917 H 83.3595 -0.199845 1.82409 0
M  V30 918 H 81.7415 -2.52107 3.05382 0
M  V30 919 H 82.9155 -0.120366 4.60643 0
M  V30 920 H 81.2305 -0.26683 4.15544 0
M  V30 921 H 83.8275 -3.03732 4.40058 0
M  V30 922 H 84.1705 -3.17417 2.69355 0
M  V30 923 H 84.7035 -1.72715 3.58349 0
M  V30 924 H 81.4425 -0.967407 6.48322 0
M  V30 925 H 80.9625 -2.37503 5.50774 0
M  V30 926 H 82.6415 -2.21322 6.07968 0
M  V30 927 N 82.7736 -1.49793 -0.48987 0
M  V30 928 C 83.6836 -1.70036 -1.61632 0
M  V30 929 C 84.6996 -0.583102 -1.63939 0
M  V30 930 O 85.8756 -0.859169 -1.82154 0
M  V30 931 C 82.9406 -1.77277 -2.97949 0
M  V30 932 C 82.0016 -3.00918 -3.06181 0
M  V30 933 C 81.2346 -3.07804 -4.35996 0
M  V30 934 O 81.4576 -2.21982 -5.25433 0
M  V30 935 O 80.3916 -4.00369 -4.49431 0
M  V30 936 H 84.2176 -2.65486 -1.47482 0
M  V30 937 H 81.8026 -1.33666 -0.667362 0
M  V30 938 H 83.6846 -1.84329 -3.78947 0
M  V30 939 H 82.3596 -0.850076 -3.12339 0
M  V30 940 H 81.2666 -2.99377 -2.2433 0
M  V30 941 H 82.5996 -3.92704 -2.96723 0
M  V30 942 N 84.2517 0.741722 -1.39055 0
M  V30 943 C 85.4797 1.53098 -1.39171 0
M  V30 944 C 85.8947 1.88794 0.0155099 0
M  V30 945 O 85.2517 1.53626 0.985159 0
M  V30 946 C 85.3027 2.82274 -2.2584 0
M  V30 947 O 85.0237 2.48097 -3.61081 0
M  V30 948 C 86.5247 3.76343 -2.34266 0
M  V30 949 H 83.7447 0.473335 -0.4756 0
M  V30 950 H 86.2887 0.917045 -1.82785 0
M  V30 951 H 84.4437 3.40015 -1.85656 0
M  V30 952 H 84.8577 3.31029 -4.06842 0
M  V30 953 H 86.3317 4.63898 -2.9917 0
M  V30 954 H 86.8087 4.17619 -1.35982 0
M  V30 955 H 87.4147 3.24523 -2.74891 0
M  V30 956 N 85.7298 1.2412 0.971189 0
M  V30 957 C 86.6778 1.02812 2.08644 0
M  V30 958 C 87.6718 -0.0358403 1.69362 0
M  V30 959 O 88.8778 0.118429 1.7961 0
M  V30 960 H 85.2528 0.315428 0.682649 0
M  V30 961 H 87.2238 1.97397 2.23779 0
M  V30 962 C 85.9728 0.645874 3.41649 0
M  V30 963 H 85.2958 1.45632 3.72332 0
M  V30 964 H 86.7358 0.536366 4.20594 0
M  V30 965 C 85.1948 -0.646713 3.30635 0
M  V30 966 O 85.7248 -1.69338 3.64263 0
M  V30 967 N 83.9308 -0.626115 2.83775 0
M  V30 968 H 83.4778 0.225988 2.56607 0
M  V30 969 H 83.4358 -1.49117 2.76788 0
M  V30 970 N 87.2079 -1.17134 1.05439 0
M  V30 971 C 88.4569 -1.86791 0.761049 0
M  V30 972 C 88.7699 -1.82072 -0.714795 0
M  V30 973 O 89.9759 -2.47223 -1.12218 0
M  V30 974 C 88.4319 -3.35166 1.31117 0
M  V30 975 C 88.0399 -3.48381 2.81664 0
M  V30 976 C 89.7839 -4.10134 1.09499 0
M  V30 977 C 87.6909 -4.90793 3.29964 0
M  V30 978 H 86.6209 -0.699681 0.281002 0
M  V30 979 H 89.2719 -1.3226 1.27199 0
M  V30 980 H 87.6539 -3.8925 0.72803 0
M  V30 981 H 88.8279 -3.04502 3.45855 0
M  V30 982 H 87.1429 -2.86836 3.01851 0
M  V30 983 H 89.7399 -5.152 1.43084 0
M  V30 984 H 90.0829 -4.16287 0.0328772 0
M  V30 985 H 90.6159 -3.62264 1.64346 0
M  V30 986 H 87.3549 -4.89816 4.35616 0
M  V30 987 H 86.8749 -5.35333 2.70516 0
M  V30 988 H 88.5539 -5.59573 3.24787 0
M  V30 989 N 88.686 -0.835752 -1.33615 0
M  V30 990 C 90.102 -0.523139 -1.50783 0
M  V30 991 C 90.302 0.950171 -1.77691 0
M  V30 992 O 89.358 1.73411 -1.83534 0
M  V30 993 C 90.671 -1.39378 -2.66448 0
M  V30 994 C 92.219 -1.39223 -2.80332 0
M  V30 995 C 92.694 -2.24765 -3.99055 0
M  V30 996 N 94.185 -2.22458 -4.06284 0
M  V30 997 C 94.92 -2.85386 -4.97336 0
M  V30 998 N 94.416 -3.57354 -5.93523 0
M  V30 999 N 96.209 -2.74872 -4.90308 0
M  V30 1000 H 88.36 -1.78952 -1.14411 0
M  V30 1001 H 90.623 -0.763297 -0.562212 0
M  V30 1002 H 90.329 -2.44061 -2.53234 0
M  V30 1003 H 90.203 -1.0676 -3.61776 0
M  V30 1004 H 92.59 -0.353136 -2.92979 0
M  V30 1005 H 92.671 -1.75846 -1.85773 0
M  V30 1006 H 92.315 -3.28732 -3.87167 0
M  V30 1007 H 92.245 -1.85485 -4.92852 0
M  V30 1008 H 94.736 -1.70119 -3.37443 0
M  V30 1009 H 95.049 -4.02584 -6.59656 0
M  V30 1010 H 93.394 -3.61461 -5.93608 0
M  V30 1011 H 96.585 -2.18213 -4.14126 0
M  V30 1012 H 96.758 -3.24199 -5.61069 0
M  V30 1013 N 90.1641 1.46063 -0.591896 0
M  V30 1014 C 91.4411 1.95595 -0.0137119 0
M  V30 1015 C 91.8211 1.5345 1.4497 0
M  V30 1016 O 91.1691 0.789543 2.14426 0
M  V30 1017 C 91.3791 3.48453 -0.195373 0
M  V30 1018 C 92.7271 4.24546 -0.0679765 0
M  V30 1019 O 93.7511 3.55982 -0.124681 0
M  V30 1020 O 92.6101 5.46467 0.0600579 0
M  V30 1021 H 89.7041 0.825795 0.0446279 0
M  V30 1022 H 92.2501 1.56303 -0.660859 0
M  V30 1023 H 91.0221 3.72045 -1.21235 0
M  V30 1024 H 90.6451 3.94597 0.487775 0
M  V30 1025 N 91.6422 0.330177 1.54103 0
M  V30 1026 C 92.5742 -0.566902 2.22079 0
M  V30 1027 C 93.5872 -1.07462 1.22294 0
M  V30 1028 O 94.7762 -0.987065 1.48726 0
M  V30 1029 C 91.8762 -1.79138 2.87685 0
M  V30 1030 C 91.0492 -1.42123 4.13666 0
M  V30 1031 C 90.1082 -2.50394 4.62806 0
M  V30 1032 O 89.1342 -2.14261 5.27334 0
M  V30 1033 N 90.3362 -3.81433 4.37595 0
M  V30 1034 H 93.1012 0.0151844 2.99696 0
M  V30 1035 H 90.6622 0.153681 1.61169 0
M  V30 1036 H 92.6542 -2.50975 3.1748 0
M  V30 1037 H 91.2242 -2.28115 2.13734 0
M  V30 1038 H 90.4442 -0.534201 3.90564 0
M  V30 1039 H 91.7322 -1.14971 4.9564 0
M  V30 1040 H 91.1302 -4.13584 3.8596 0
M  V30 1041 H 89.6872 -4.4948 4.72029 0
M  V30 1042 N 93.1203 -1.57491 0.0584922 0
M  V30 1043 C 94.0303 -2.15448 -0.928414 0
M  V30 1044 C 95.0463 -1.11416 -1.3365 0
M  V30 1045 O 96.2223 -1.4362 -1.41193 0
M  V30 1046 C 93.2873 -2.69393 -2.18239 0
M  V30 1047 C 92.3483 -3.88249 -1.83196 0
M  V30 1048 C 91.5813 -4.39613 -3.02616 0
M  V30 1049 O 91.8043 -3.90023 -4.16219 0
M  V30 1050 O 90.7383 -5.31111 -2.83204 0
M  V30 1051 H 94.5643 -3.00112 -0.465483 0
M  V30 1052 H 92.1493 -1.48499 -0.163826 0
M  V30 1053 H 94.0313 -3.04026 -2.91798 0
M  V30 1054 H 92.7063 -1.87796 -2.63656 0
M  V30 1055 H 91.6133 -3.58492 -1.06931 0
M  V30 1056 H 92.9463 -4.71098 -1.42573 0
M  V30 1057 N 94.5984 0.214957 -1.56127 0
M  V30 1058 C 95.5084 1.28727 -1.96129 0
M  V30 1059 C 96.5244 1.50916 -0.866044 0
M  V30 1060 O 97.7004 1.63918 -1.17016 0
M  V30 1061 C 94.7654 2.61569 -2.27558 0
M  V30 1062 C 93.8264 2.47625 -3.50685 0
M  V30 1063 C 93.0594 3.74132 -3.80606 0
M  V30 1064 O 93.2824 4.77438 -3.12104 0
M  V30 1065 O 92.2164 3.70849 -4.74083 0
M  V30 1066 H 96.0424 0.977855 -2.87527 0
M  V30 1067 H 93.6274 0.418358 -1.43423 0
M  V30 1068 H 95.5094 3.40012 -2.48938 0
M  V30 1069 H 94.1844 2.92178 -1.39332 0
M  V30 1070 H 93.0914 1.67361 -3.34576 0
M  V30 1071 H 94.4244 2.21954 -4.39315 0
M  V30 1072 N 96.0765 1.50051 0.48192 0
M  V30 1073 C 97.0065 1.71046 1.58951 0
M  V30 1074 C 97.9875 0.559288 1.60642 0
M  V30 1075 O 99.1725 0.797243 1.77081 0
M  V30 1076 C 96.3025 1.79462 2.97339 0
M  V30 1077 C 95.2565 2.94558 3.10515 0
M  V30 1078 C 94.5825 2.88105 4.50444 0
M  V30 1079 C 95.8825 4.35227 2.88747 0
M  V30 1080 H 97.5765 2.6378 1.41635 0
M  V30 1081 H 95.1225 1.26936 0.679942 0
M  V30 1082 H 97.0755 1.92734 3.74742 0
M  V30 1083 H 95.7995 0.833412 3.15788 0
M  V30 1084 H 94.4585 2.80918 2.35543 0
M  V30 1085 H 94.1065 1.89853 4.65795 0
M  V30 1086 H 93.8065 3.65366 4.60197 0
M  V30 1087 H 95.3305 3.03412 5.29881 0
M  V30 1088 H 96.7445 4.49449 3.55905 0
M  V30 1089 H 95.1415 5.13856 3.09955 0
M  V30 1090 H 96.2115 4.48347 1.84696 0
M  V30 1091 N 97.5546 -0.734337 1.39446 0
M  V30 1092 C 98.5016 -1.84835 1.38219 0
M  V30 1093 C 99.4716 -1.64331 0.24179 0
M  V30 1094 O 100.657 -1.85728 0.437002 0
M  V30 1095 C 97.7966 -3.22355 1.23212 0
M  V30 1096 C 96.9096 -3.5456 2.46801 0
M  V30 1097 C 96.0446 -4.81485 2.24377 0
M  V30 1098 C 95.0836 -5.06536 3.43639 0
M  V30 1099 N 94.2206 -6.24665 3.20528 0
M  V30 1100 H 99.0606 -1.85219 2.33448 0
M  V30 1101 H 96.5976 -0.905039 1.15963 0
M  V30 1102 H 98.5556 -4.0174 1.12522 0
M  V30 1103 H 97.1856 -3.21248 0.316121 0
M  V30 1104 H 96.2376 -2.69872 2.68092 0
M  V30 1105 H 97.5496 -3.6899 3.3563 0
M  V30 1106 H 96.7036 -5.68852 2.10933 0
M  V30 1107 H 95.4426 -4.6923 1.32944 0
M  V30 1108 H 94.4476 -4.17632 3.5758 0
M  V30 1109 H 95.6726 -5.20676 4.35974 0
M  V30 1110 H 93.6186 -6.13696 2.3176 0
M  V30 1111 H 93.5356 -6.39685 4.02913 0
M  V30 1112 H 94.8036 -7.14868 3.10779 0
M  V30 1113 N 99.0327 -1.24633 -0.964593 0
M  V30 1114 C 100.281 -1.08573 -1.70459 0
M  V30 1115 C 100.602 0.375655 -1.91347 0
M  V30 1116 O 99.8717 1.26779 -1.49345 0
M  V30 1117 H 98.4517 -0.398784 -0.631649 0
M  V30 1118 H 101.114 -1.56601 -1.16026 0
M  V30 1119 H 100.21 -1.58623 -2.68785 0
M  V30 1120 N 100.511 1.16574 -1.06058 0
M  V30 1121 C 101.458 2.20883 -0.669263 0
M  V30 1122 C 102.428 1.62729 0.332918 0
M  V30 1123 O 103.613 1.895 0.222346 0
M  V30 1124 C 100.753 3.45049 -0.0593572 0
M  V30 1125 C 99.8658 4.17458 -1.11143 0
M  V30 1126 C 99.0008 5.29135 -0.467916 0
M  V30 1127 C 98.0398 5.93343 -1.50369 0
M  V30 1128 N 97.1768 6.96516 -0.883706 0
M  V30 1129 H 102.017 2.53709 -1.5632 0
M  V30 1130 H 99.5538 1.24616 -0.781625 0
M  V30 1131 H 101.512 4.16033 0.311771 0
M  V30 1132 H 100.142 3.12781 0.797992 0
M  V30 1133 H 99.1938 3.45101 -1.60029 0
M  V30 1134 H 100.506 4.61307 -1.89731 0
M  V30 1135 H 99.6598 6.06684 -0.0436871 0
M  V30 1136 H 98.3988 4.86443 0.349864 0
M  V30 1137 H 97.4038 5.14517 -1.93784 0
M  V30 1138 H 98.6288 6.38114 -2.32352 0
M  V30 1139 H 96.5748 6.55943 -0.086595 0
M  V30 1140 H 96.4918 7.38723 -1.607 0
M  V30 1141 H 97.7598 7.77993 -0.484543 0
M  V30 1142 N 101.989 0.842826 1.3317 0
M  V30 1143 C 102.936 0.276885 2.29133 0
M  V30 1144 C 103.906 -0.609527 1.54512 0
M  V30 1145 O 105.091 -0.546955 1.82792 0
M  V30 1146 C 102.231 -0.538707 3.40869 0
M  V30 1147 C 101.344 0.372169 4.30394 0
M  V30 1148 C 100.479 -0.454908 5.29249 0
M  V30 1149 C 99.5179 0.45411 6.10413 0
M  V30 1150 N 98.6549 -0.335075 7.013 0
M  V30 1151 H 103.495 1.10052 2.76934 0
M  V30 1152 H 101.032 0.554161 1.36262 0
M  V30 1153 H 102.99 -1.02709 4.0436 0
M  V30 1154 H 101.62 -1.32727 2.9425 0
M  V30 1155 H 100.672 0.97888 3.6759 0
M  V30 1156 H 101.984 1.0703 4.87182 0
M  V30 1157 H 101.138 -1.00695 5.98285 0
M  V30 1158 H 99.8769 -1.18646 4.73048 0
M  V30 1159 H 98.8819 1.01813 5.40291 0
M  V30 1160 H 100.107 1.18409 6.68697 0
M  V30 1161 H 98.0529 -1.04994 6.47543 0
M  V30 1162 H 97.9699 0.304262 7.55387 0
M  V30 1163 H 99.2379 -0.869224 7.74638 0
M  V30 1164 N 103.467 -1.45747 0.599634 0
M  V30 1165 C 104.713 -2.02592 0.0918643 0
M  V30 1166 C 105.046 -1.46806 -1.27128 0
M  V30 1167 O 104.321 -0.639658 -1.83681 0
M  V30 1168 C 104.604 -3.60073 0.0443398 0
M  V30 1169 C 104.457 -4.26208 1.43759 0
M  V30 1170 C 105.776 -4.35309 -0.647608 0
M  V30 1171 H 102.895 -0.736175 0.034857 0
M  V30 1172 H 105.537 -1.73694 0.770081 0
M  V30 1173 H 103.687 -3.84823 -0.533224 0
M  V30 1174 H 105.359 -4.12668 2.06162 0
M  V30 1175 H 103.602 -3.84916 2.00056 0
M  V30 1176 H 104.273 -5.35069 1.35665 0
M  V30 1177 H 106.749 -4.15805 -0.156776 0
M  V30 1178 H 105.625 -5.45038 -0.649942 0
M  V30 1179 H 105.886 -4.07598 -1.71219 0
M  V30 1180 N 104.945 -0.338344 -1.53925 0
M  V30 1181 C 106.356 0.146651 -1.86123 0
M  V30 1182 C 106.707 1.5042 -1.2597 0
M  V30 1183 O 105.832 2.08723 -0.571294 0
M  V30 1184 C 106.427 0.272879 -3.37699 0
M  V30 1185 C 104.986 0.702103 -3.69794 0
M  V30 1186 C 104.133 -0.167304 -2.76795 0
M  V30 1187 H 107.084 -0.558123 -1.48562 0
M  V30 1188 H 107.105 1.10128 -3.64214 0
M  V30 1189 H 106.617 -0.715307 -3.81451 0
M  V30 1190 H 104.718 1.6995 -3.31584 0
M  V30 1191 H 104.831 0.495604 -4.7653 0
M  V30 1192 H 103.195 0.359527 -2.5215 0
M  V30 1193 H 103.978 -1.15253 -3.23375 0
M  V30 1194 N 106.423 1.57458 -0.0668435 0
M  V30 1195 C 107.355 2.09413 0.931601 0
M  V30 1196 C 108.368 1.02522 1.26464 0
M  V30 1197 O 109.557 1.30049 1.22269 0
M  V30 1198 C 106.657 2.53537 2.24882 0
M  V30 1199 C 105.83 3.83944 2.09537 0
M  V30 1200 C 104.889 4.14214 3.2452 0
M  V30 1201 O 103.915 4.83891 2.9973 0
M  V30 1202 N 105.117 3.67367 4.49469 0
M  V30 1203 H 107.882 2.95699 0.488048 0
M  V30 1204 H 105.443 1.61462 0.119009 0
M  V30 1205 H 107.435 2.70853 3.00701 0
M  V30 1206 H 106.005 1.72415 2.60753 0
M  V30 1207 H 105.225 3.76057 1.18215 0
M  V30 1208 H 106.513 4.69312 1.96529 0
M  V30 1209 H 105.911 3.11068 4.72497 0
M  V30 1210 H 104.468 3.89891 5.2233 0
M  V30 1211 N 107.901 -0.206675 1.56239 0
M  V30 1212 C 109.131 -0.943975 1.83773 0
M  V30 1213 C 109.539 -1.77841 0.645703 0
M  V30 1214 O 108.882 -1.79403 -0.395008 0
M  V30 1215 C 108.944 -1.899 3.05251 0
M  V30 1216 C 108.608 -1.24764 4.39639 0
M  V30 1217 C 109.605 -0.630216 5.16066 0
M  V30 1218 C 107.29 -1.25496 4.8637 0
M  V30 1219 C 109.284 -0.0287946 6.37393 0
M  V30 1220 C 106.971 -0.649698 6.07637 0
M  V30 1221 C 107.969 -0.0376845 6.8299 0
M  V30 1222 O 107.657 0.55812 8.0196 0
M  V30 1223 H 107.389 -0.281508 0.614597 0
M  V30 1224 H 109.943 -0.222458 2.04192 0
M  V30 1225 H 108.173 -2.6599 2.80689 0
M  V30 1226 H 109.862 -2.5031 3.1953 0
M  V30 1227 H 110.628 -0.616785 4.81062 0
M  V30 1228 H 106.507 -1.72072 4.27683 0
M  V30 1229 H 110.051 0.449518 6.9615 0
M  V30 1230 H 105.948 -0.660592 6.42111 0
M  V30 1231 H 106.716 0.453891 8.17241 0
M  V30 1232 N 109.379 -1.50304 -0.473955 0
M  V30 1233 C 110.79 -1.54042 -1.0549 0
M  V30 1234 C 111.141 -0.342248 -1.93192 0
M  V30 1235 O 110.266 0.545157 -2.09421 0
M  V30 1236 C 110.861 -2.79152 -1.91989 0
M  V30 1237 C 109.42 -2.8558 -2.45196 0
M  V30 1238 C 108.567 -2.48295 -1.2347 0
M  V30 1239 H 111.518 -1.5661 -0.256693 0
M  V30 1240 H 111.539 -2.60845 -2.7702 0
M  V30 1241 H 111.051 -3.66339 -1.28131 0
M  V30 1242 H 109.152 -2.02738 -3.12615 0
M  V30 1243 H 109.265 -3.88403 -2.80499 0
M  V30 1244 H 107.629 -2.00669 -1.56856 0
M  V30 1245 H 108.412 -3.37787 -0.612789 0
M  V30 1246 N 110.857 0.726932 -1.39834 0
M  V30 1247 C 112.097 1.4992 -1.38936 0
M  V30 1248 C 112.461 1.91996 0.0126883 0
M  V30 1249 O 113.662 2.68399 0.146715 0
M  V30 1250 C 111.933 2.70013 -2.34153 0
M  V30 1251 S 113.492 3.59563 -2.51515 0
M  V30 1252 H 110.31 0.51271 -0.492595 0
M  V30 1253 H 112.912 0.85107 -1.76003 0
M  V30 1254 H 111.616 2.37254 -3.34871 0
M  V30 1255 H 111.147 3.39748 -1.98331 0
M  V30 1256 H 113.162 4.63973 -1.75909 0
M  V30 1257 N 112.336 1.25143 0.95797 0
M  V30 1258 C 113.266 1.07711 2.07173 0
M  V30 1259 C 114.247 -0.0128462 1.70095 0
M  V30 1260 O 115.432 0.156061 1.93572 0
M  V30 1261 C 112.562 0.691503 3.40346 0
M  V30 1262 C 111.516 1.73132 3.9142 0
M  V30 1263 C 110.842 1.20049 5.21049 0
M  V30 1264 C 112.142 3.1294 4.1817 0
M  V30 1265 H 113.836 2.00873 2.22014 0
M  V30 1266 H 111.382 0.967191 1.06684 0
M  V30 1267 H 113.335 0.556505 4.17709 0
M  V30 1268 H 112.059 -0.275819 3.25433 0
M  V30 1269 H 110.718 1.8547 3.16222 0
M  V30 1270 H 110.366 0.223499 5.02503 0
M  V30 1271 H 110.066 1.89545 5.56189 0
M  V30 1272 H 111.59 1.07782 6.01012 0
M  V30 1273 H 113.004 3.03775 4.86203 0
M  V30 1274 H 111.401 3.79875 4.64559 0
M  V30 1275 H 112.471 3.6025 3.24573 0
M  V30 1276 N 113.814 -1.1601 1.06675 0
M  V30 1277 C 115.06 -1.87145 0.796766 0
M  V30 1278 C 115.415 -1.8037 -0.669658 0
M  V30 1279 O 114.708 -1.21116 -1.48463 0
M  V30 1280 C 114.902 -3.35547 1.23057 0
M  V30 1281 C 114.731 -3.56769 2.73762 0
M  V30 1282 C 113.501 -3.72635 3.41279 0
M  V30 1283 C 115.699 -3.55166 3.7197 0
M  V30 1284 N 113.681 -3.81845 4.80695 0
M  V30 1285 C 115.052 -3.70406 4.97191 0
M  V30 1286 C 117.107 -3.384 3.65226 0
M  V30 1287 C 115.81 -3.70615 6.16471 0
M  V30 1288 C 117.836 -3.39904 4.83962 0
M  V30 1289 C 117.198 -3.55667 6.08013 0
M  V30 1290 H 113.297 -0.702267 0.344014 0
M  V30 1291 H 115.881 -1.39165 1.36166 0
M  V30 1292 H 114.052 -3.82159 0.693456 0
M  V30 1293 H 115.784 -3.94363 0.908844 0
M  V30 1294 H 112.539 -3.73121 2.91681 0
M  V30 1295 H 112.963 -3.90209 5.53232 0
M  V30 1296 H 117.605 -3.25138 2.70269 0
M  V30 1297 H 115.323 -3.82658 7.11757 0
M  V30 1298 H 118.909 -3.28169 4.80413 0
M  V30 1299 H 117.789 -3.56755 6.98352 0
M  V30 1300 N 115.292 -0.849877 -1.32721 0
M  V30 1301 C 116.538 -0.451591 -1.97708 0
M  V30 1302 C 116.871 0.989175 -1.6712 0
M  V30 1303 O 116.146 1.69334 -0.956891 0
M  V30 1304 C 116.429 -0.685598 -3.53513 0
M  V30 1305 C 116.282 -2.17444 -3.93749 0
M  V30 1306 C 117.601 -0.138874 -4.39881 0
M  V30 1307 H 114.72 -0.16555 -0.718166 0
M  V30 1308 H 117.362 -1.06742 -1.57182 0
M  V30 1309 H 115.512 -0.161416 -3.88165 0
M  V30 1310 H 117.184 -2.76433 -3.693 0
M  V30 1311 H 115.427 -2.65476 -3.43081 0
M  V30 1312 H 116.098 -2.28888 -5.02309 0
M  V30 1313 H 118.574 -0.587068 -4.11938 0
M  V30 1314 H 117.45 -0.332213 -5.47894 0
M  V30 1315 H 117.711 0.95806 -4.31594 0
M  V30 1316 N 116.77 1.45427 -0.607355 0
M  V30 1317 C 117.718 2.32269 0.12411 0
M  V30 1318 C 118.712 1.45955 0.859854 0
M  V30 1319 O 119.918 1.6244 0.775447 0
M  V30 1320 H 116.293 0.749691 0.0588839 0
M  V30 1321 H 118.264 2.91743 -0.626762 0
M  V30 1322 C 117.013 3.29567 1.1082 0
M  V30 1323 H 116.336 3.95978 0.551492 0
M  V30 1324 H 117.776 3.93061 1.58995 0
M  V30 1325 C 116.235 2.56722 2.18164 0
M  V30 1326 O 116.765 2.34842 3.25902 0
M  V30 1327 N 114.971 2.16861 1.93442 0
M  V30 1328 H 114.518 2.34855 1.05834 0
M  V30 1329 H 114.476 1.68444 2.65469 0
M  V30 1330 N 118.248 0.346503 1.53744 0
M  V30 1331 C 119.494 -0.249473 2.0126 0
M  V30 1332 C 119.827 -1.49965 1.23386 0
M  V30 1333 O 119.102 -1.91811 0.32229 0
M  V30 1334 C 119.385 -0.560643 3.55709 0
M  V30 1335 C 119.238 0.701836 4.44291 0
M  V30 1336 C 120.557 -1.36905 4.18264 0
M  V30 1337 H 117.676 -0.0891987 0.731582 0
M  V30 1338 H 120.318 0.467624 1.84156 0
M  V30 1339 H 118.468 -1.17156 3.70414 0
M  V30 1340 H 120.14 1.33974 4.41417 0
M  V30 1341 H 118.383 1.32612 4.13033 0
M  V30 1342 H 119.054 0.43933 5.50249 0
M  V30 1343 H 121.53 -0.852448 4.07275 0
M  V30 1344 H 120.406 -1.55553 5.26398 0
M  V30 1345 H 120.667 -2.37203 3.73078 0
M  V30 1346 N 119.726 -1.57421 0.075193 0
M  V30 1347 C 120.951 -1.98364 -0.605515 0
M  V30 1348 C 121.376 -0.953383 -1.62149 0
M  V30 1349 O 120.734 0.0806053 -1.81121 0
M  V30 1350 C 120.782 -3.38332 -1.24756 0
M  V30 1351 O 119.886 -3.37959 -2.36342 0
M  V30 1352 H 119.227 -0.645553 -0.155428 0
M  V30 1353 H 121.757 -2.04044 0.150714 0
M  V30 1354 H 121.767 -3.75591 -1.5936 0
M  V30 1355 H 120.442 -4.12846 -0.503129 0
M  V30 1356 H 119.019 -3.12474 -2.03506 0
M  V30 1357 N 121.204 0.198386 -1.56346 0
M  V30 1358 C 122.167 1.22952 -1.93431 0
M  V30 1359 C 123.167 1.38611 -0.815092 0
M  V30 1360 O 124.357 1.36479 -1.08255 0
M  V30 1361 C 121.489 2.59946 -2.20546 0
M  V30 1362 H 122.682 0.912626 -2.85677 0
M  V30 1363 H 120.235 0.43977 -1.49986 0
M  V30 1364 H 120.97 2.96696 -1.30927 0
M  V30 1365 H 120.755 2.49953 -3.02102 0
M  V30 1366 H 122.245 3.3431 -2.50253 0
M  V30 1367 N 122.682 1.50554 0.465978 0
M  V30 1368 C 123.645 1.69233 1.54574 0
M  V30 1369 C 124.645 0.562901 1.50626 0
M  V30 1370 O 125.835 0.830016 1.53155 0
M  V30 1371 C 122.967 1.7223 2.94193 0
M  V30 1372 H 124.16 2.65571 1.39327 0
M  V30 1373 H 121.713 1.40111 0.692711 0
M  V30 1374 H 122.448 0.77603 3.14878 0
M  V30 1375 H 122.233 2.54285 2.98466 0
M  V30 1376 H 123.723 1.88618 3.72576 0
M  V30 1377 N 124.16 -0.719506 1.40217 0
M  V30 1378 C 125.408 -1.47641 1.3801 0
M  V30 1379 C 125.729 -1.94992 -0.018145 0
M  V30 1380 O 124.999 -1.70073 -0.972207 0
M  V30 1381 H 123.579 -0.547744 0.507923 0
M  V30 1382 H 126.241 -0.853187 1.75233 0
M  V30 1383 H 125.337 -2.35112 2.05253 0
M  V30 1384 N 125.638 -1.25649 -0.95132 0
M  V30 1385 C 127.054 -1.02542 -1.223 0
M  V30 1386 C 127.254 0.255715 -1.99871 0
M  V30 1387 O 126.31 0.967558 -2.33226 0
M  V30 1388 C 127.623 -2.25065 -1.99415 0
M  V30 1389 C 129.171 -2.29861 -2.12446 0
M  V30 1390 C 129.646 -3.52048 -2.92961 0
M  V30 1391 N 131.137 -3.52465 -3.00538 0
M  V30 1392 C 131.872 -4.43672 -3.63239 0
M  V30 1393 N 131.368 -5.45157 -4.27523 0
M  V30 1394 N 133.161 -4.31346 -3.60412 0
M  V30 1395 H 125.312 -2.07951 -0.432471 0
M  V30 1396 H 127.575 -0.91339 -0.253816 0
M  V30 1397 H 127.281 -3.18194 -1.49817 0
M  V30 1398 H 127.155 -2.28502 -3.00111 0
M  V30 1399 H 129.542 -1.37252 -2.61239 0
M  V30 1400 H 129.623 -2.3044 -1.11044 0
M  V30 1401 H 129.267 -4.44981 -2.44856 0
M  V30 1402 H 129.197 -3.48715 -3.94596 0
M  V30 1403 H 131.688 -2.79056 -2.54826 0
M  V30 1404 H 132.001 -6.10958 -4.73234 0
M  V30 1405 H 130.346 -5.49025 -4.26141 0
M  V30 1406 H 133.537 -3.51288 -3.09377 0
M  V30 1407 H 133.71 -5.02624 -4.0899 0
M  V30 1408 N 127.117 1.15442 -1.07289 0
M  V30 1409 C 128.363 1.8672 -0.806679 0
M  V30 1410 C 128.718 1.80723 0.660084 0
M  V30 1411 O 128.011 1.21902 1.47819 0
M  V30 1412 C 128.205 3.3489 -1.24834 0
M  V30 1413 C 128.034 3.55313 -2.7565 0
M  V30 1414 C 126.804 3.7082 -3.4325 0
M  V30 1415 C 129.002 3.53188 -3.73848 0
M  V30 1416 N 126.984 3.7929 -4.82713 0
M  V30 1417 C 128.355 3.67765 -4.99149 0
M  V30 1418 C 130.41 3.36459 -3.67015 0
M  V30 1419 C 129.113 3.6734 -6.18428 0
M  V30 1420 C 131.139 3.37333 -4.85758 0
M  V30 1421 C 130.501 3.52438 -6.09891 0
M  V30 1422 H 126.6 0.700433 -0.347733 0
M  V30 1423 H 129.184 1.38441 -1.36902 0
M  V30 1424 H 127.355 3.81786 -0.713713 0
M  V30 1425 H 129.087 3.93875 -0.929745 0
M  V30 1426 H 125.842 3.71568 -2.93656 0
M  V30 1427 H 126.266 3.8727 -5.55294 0
M  V30 1428 H 130.908 3.237 -2.71989 0
M  V30 1429 H 128.626 3.78878 -7.13777 0
M  V30 1430 H 132.212 3.25617 -4.82146 0
M  V30 1431 H 131.092 3.53047 -7.00234 0
M  V30 1432 N 128.595 0.856903 1.32268 0
M  V30 1433 C 129.558 0.308171 2.27119 0
M  V30 1434 C 130.558 -0.533421 1.51695 0
M  V30 1435 O 131.748 -0.344607 1.70757 0
M  V30 1436 C 128.88 -0.563757 3.36206 0
M  V30 1437 H 130.073 1.14535 2.77167 0
M  V30 1438 H 127.626 0.631421 1.42978 0
M  V30 1439 H 128.361 -1.42266 2.91429 0
M  V30 1440 H 128.146 0.0386749 3.92081 0
M  V30 1441 H 129.636 -0.940386 4.06874 0
M  V30 1442 N 130.073 -1.45103 0.615059 0
M  V30 1443 C 131.319 -2.02483 0.113347 0
M  V30 1444 C 131.652 -1.48146 -1.25564 0
M  V30 1445 O 130.927 -0.659104 -1.82992 0
M  V30 1446 C 131.21 -3.60005 0.0825278 0
M  V30 1447 C 131.063 -4.2466 1.48271 0
M  V30 1448 C 132.382 -4.35972 -0.601401 0
M  V30 1449 H 129.501 -0.735764 0.0426632 0
M  V30 1450 H 132.143 -1.72868 0.788461 0
M  V30 1451 H 130.293 -3.85367 -0.492378 0
M  V30 1452 H 131.965 -4.10458 2.10527 0
M  V30 1453 H 130.208 -3.82772 2.04127 0
M  V30 1454 H 130.879 -5.336 1.41332 0
M  V30 1455 H 133.355 -4.15947 -0.112666 0
M  V30 1456 H 132.231 -5.45697 -0.592097 0
M  V30 1457 H 132.492 -4.09391 -1.66887 0
M  V30 1458 N 131.551 -0.354651 -1.53558 0
M  V30 1459 C 132.481 0.489091 -2.2832 0
M  V30 1460 C 133.462 1.09324 -1.30316 0
M  V30 1461 O 134.647 1.11255 -1.59173 0
M  V30 1462 C 131.777 1.63456 -3.0643 0
M  V30 1463 C 130.731 1.1582 -4.12031 0
M  V30 1464 C 130.057 2.39305 -4.7816 0
M  V30 1465 C 131.357 0.250731 -5.21698 0
M  V30 1466 H 133.051 -0.134614 -2.99097 0
M  V30 1467 H 130.597 -0.0661826 -1.43848 0
M  V30 1468 H 132.55 2.23136 -3.57475 0
M  V30 1469 H 131.274 2.28533 -2.33325 0
M  V30 1470 H 129.933 0.584146 -3.61916 0
M  V30 1471 H 129.581 3.02814 -4.01637 0
M  V30 1472 H 129.281 2.08109 -5.49513 0
M  V30 1473 H 130.805 2.99691 -5.31994 0
M  V30 1474 H 132.219 0.754695 -5.68311 0
M  V30 1475 H 130.616 0.0301468 -6.00092 0
M  V30 1476 H 131.686 -0.710125 -4.79672 0
M  V30 1477 N 133.029 1.57378 -0.0835403 0
M  V30 1478 C 134.259 1.97975 0.590713 0
M  V30 1479 C 134.667 0.961083 1.62972 0
M  V30 1480 O 134.01 -0.0590879 1.83605 0
M  V30 1481 C 134.072 3.34915 1.3066 0
M  V30 1482 C 133.736 4.55069 0.419698 0
M  V30 1483 C 134.733 5.18868 -0.32749 0
M  V30 1484 C 132.418 5.0114 0.341137 0
M  V30 1485 C 134.412 6.27098 -1.14134 0
M  V30 1486 C 132.099 6.0924 -0.476374 0
M  V30 1487 C 133.097 6.72083 -1.21627 0
M  V30 1488 O 132.785 7.781 -2.02028 0
M  V30 1489 H 132.517 0.655818 0.163947 0
M  V30 1490 H 135.071 2.04807 -0.156021 0
M  V30 1491 H 133.301 3.24733 2.09966 0
M  V30 1492 H 134.99 3.60037 1.87424 0
M  V30 1493 H 135.756 4.84211 -0.276459 0
M  V30 1494 H 131.635 4.51996 0.90668 0
M  V30 1495 H 135.179 6.7608 -1.71935 0
M  V30 1496 H 131.076 6.43329 -0.528927 0
M  V30 1497 H 131.844 7.95034 -1.94586 0
M  V30 1498 N 134.507 -0.190092 1.56449 0
M  V30 1499 C 135.457 -1.23977 1.91347 0
M  V30 1500 C 136.441 -1.40747 0.779693 0
M  V30 1501 O 137.633 -1.43033 1.04262 0
M  V30 1502 C 134.762 -2.58347 2.26079 0
M  V30 1503 C 133.848 -2.4535 3.45925 0
M  V30 1504 N 134.239 -2.02039 4.63696 0
M  V30 1505 C 132.537 -2.76229 3.50162 0
M  V30 1506 C 133.238 -2.01053 5.4585 0
M  V30 1507 N 132.214 -2.42747 4.8639 0
M  V30 1508 H 136.016 -0.896318 2.79899 0
M  V30 1509 H 133.53 -0.398496 1.57435 0
M  V30 1510 H 135.527 -3.34173 2.49267 0
M  V30 1511 H 134.187 -2.93512 1.38856 0
M  V30 1512 H 135.198 -1.7267 4.88268 0
M  V30 1513 H 131.875 -3.15556 2.73369 0
M  V30 1514 H 133.265 -1.69426 6.50188 0
M  V30 1515 N 135.985 -1.50799 -0.457987 0
M  V30 1516 C 137.213 -1.66218 -1.23203 0
M  V30 1517 C 137.628 -0.350894 -1.85511 0
M  V30 1518 O 136.985 0.668546 -1.69814 0
M  V30 1519 C 137.036 -2.76291 -2.33121 0
M  V30 1520 O 136.757 -4.02338 -1.73366 0
M  V30 1521 C 138.258 -3.028 -3.2377 0
M  V30 1522 H 135.478 -0.558361 -0.372121 0
M  V30 1523 H 138.022 -1.97099 -0.545179 0
M  V30 1524 H 136.177 -2.48068 -2.97558 0
M  V30 1525 H 136.591 -4.63312 -2.4585 0
M  V30 1526 H 138.065 -3.8345 -3.97077 0
M  V30 1527 H 138.542 -2.14385 -3.83322 0
M  V30 1528 H 139.148 -3.32604 -2.65056 0
M  V30 1529 N 137.463 0.71206 -1.40597 0
M  V30 1530 C 138.373 1.8562 -1.43466 0
M  V30 1531 C 139.389 1.70902 -0.326902 0
M  V30 1532 O 140.565 1.93105 -0.572043 0
M  V30 1533 C 137.63 3.21451 -1.29884 0
M  V30 1534 C 136.691 3.48398 -2.50833 0
M  V30 1535 C 135.924 4.77749 -2.3789 0
M  V30 1536 O 136.147 5.53089 -1.39459 0
M  V30 1537 O 135.081 5.05111 -3.27333 0
M  V30 1538 H 138.907 1.86155 -2.39958 0
M  V30 1539 H 136.492 0.86295 -1.21957 0
M  V30 1540 H 138.374 4.02579 -1.24531 0
M  V30 1541 H 137.049 3.21636 -0.364997 0
M  V30 1542 H 135.956 2.67265 -2.61763 0
M  V30 1543 H 137.289 3.53014 -3.4299 0
M  V30 1544 N 138.941 1.26152 0.944643 0
M  V30 1545 C 140.218 1.02247 1.66748 0
M  V30 1546 C 140.598 -0.448202 2.06287 0
M  V30 1547 O 139.946 -1.42779 1.78399 0
M  V30 1548 C 140.156 1.96788 2.88228 0
M  V30 1549 C 141.504 2.25201 3.59958 0
M  V30 1550 O 142.528 1.94626 2.98327 0
M  V30 1551 O 141.387 2.77242 4.70956 0
M  V30 1552 H 138.481 0.388517 0.730057 0
M  V30 1553 H 141.027 1.37348 0.99668 0
M  V30 1554 H 139.799 2.96047 2.55875 0
M  V30 1555 H 139.422 1.62145 3.63035 0
M  V30 1556 N 140.419 -1.14872 1.07899 0
M  V30 1557 C 141.647 -1.89661 0.82683 0
M  V30 1558 C 142.062 -1.78312 -0.620519 0
M  V30 1559 O 141.419 -1.13888 -1.42604 0
M  V30 1560 C 141.47 -3.39817 1.23316 0
M  V30 1561 O 141.191 -3.50845 2.62372 0
M  V30 1562 C 142.692 -4.31615 1.0111 0
M  V30 1563 H 139.912 -0.60092 0.298557 0
M  V30 1564 H 142.456 -1.4551 1.43691 0
M  V30 1565 H 140.611 -3.8161 0.667286 0
M  V30 1566 H 141.025 -4.44076 2.79101 0
M  V30 1567 H 142.499 -5.35367 1.34486 0
M  V30 1568 H 142.976 -4.39169 -0.0522168 0
M  V30 1569 H 143.582 -3.95572 1.56215 0
M  V30 1570 N 141.898 -0.863906 -1.31812 0
M  V30 1571 C 143.314 -0.555004 -1.49639 0
M  V30 1572 C 143.514 0.912266 -1.79666 0
M  V30 1573 O 142.57 1.69479 -1.87171 0
M  V30 1574 C 143.883 -1.44998 -2.63431 0
M  V30 1575 C 145.431 -1.45138 -2.77316 0
M  V30 1576 C 145.906 -2.33179 -3.94197 0
M  V30 1577 N 147.397 -2.31025 -4.01474 0
M  V30 1578 C 148.132 -2.95871 -4.9117 0
M  V30 1579 N 147.628 -3.69863 -5.8581 0
M  V30 1580 N 149.421 -2.85211 -4.84367 0
M  V30 1581 H 141.572 -1.81339 -1.10589 0
M  V30 1582 H 143.835 -0.77505 -0.545895 0
M  V30 1583 H 143.541 -2.49377 -2.48 0
M  V30 1584 H 143.415 -1.14409 -3.59431 0
M  V30 1585 H 145.802 -0.415201 -2.92164 0
M  V30 1586 H 145.883 -1.79747 -1.82001 0
M  V30 1587 H 145.527 -3.3687 -3.80107 0
M  V30 1588 H 145.457 -1.95897 -4.88807 0
M  V30 1589 H 147.948 -1.77238 -3.33759 0
M  V30 1590 H 148.261 -4.16486 -6.50968 0
M  V30 1591 H 146.606 -3.73971 -5.85808 0
M  V30 1592 H 149.797 -2.26948 -4.09405 0
M  V30 1593 H 149.97 -3.36027 -5.54066 0
M  V30 1594 N 143.376 1.44774 -0.622745 0
M  V30 1595 C 144.653 1.95522 -0.0551974 0
M  V30 1596 C 145.033 1.5649 1.41683 0
M  V30 1597 O 144.381 0.834848 2.12703 0
M  V30 1598 C 144.591 3.4796 -0.269242 0
M  V30 1599 C 145.939 4.24306 -0.158014 0
M  V30 1600 O 146.963 3.55637 -0.200162 0
M  V30 1601 O 145.822 5.46471 -0.0558693 0
M  V30 1602 H 142.916 0.826556 0.0271015 0
M  V30 1603 H 145.462 1.54866 -0.693864 0
M  V30 1604 H 144.234 3.6939 -1.29099 0
M  V30 1605 H 143.857 3.95543 0.403966 0
M  V30 1606 N 144.854 0.36279 1.53368 0
M  V30 1607 C 145.786 -0.519668 2.23231 0
M  V30 1608 C 146.799 -1.04844 1.24546 0
M  V30 1609 O 147.988 -0.955296 1.50786 0
M  V30 1610 C 145.088 -1.72995 2.9142 0
M  V30 1611 C 144.261 -1.33316 4.16588 0
M  V30 1612 C 143.32 -2.40521 4.68013 0
M  V30 1613 O 142.346 -2.03027 5.3176 0
M  V30 1614 N 143.548 -3.72065 4.45587 0
M  V30 1615 H 146.313 0.078751 2.99597 0
M  V30 1616 H 143.874 0.187833 1.60807 0
M  V30 1617 H 145.866 -2.44184 3.22733 0
M  V30 1618 H 144.436 -2.2353 2.18525 0
M  V30 1619 H 143.656 -0.451236 3.91609 0
M  V30 1620 H 144.944 -1.04432 4.97967 0
M  V30 1621 H 144.342 -4.05304 3.94646 0
M  V30 1622 H 142.899 -4.39366 4.81457 0
M  V30 1623 N 146.332 -1.57332 0.0918853 0
M  V30 1624 C 147.28 -2.15075 -0.885747 0
M  V30 1625 C 148.274 -1.09277 -1.29441 0
M  V30 1626 O 149.48 -1.27627 -1.26931 0
M  V30 1627 H 145.855 -0.687966 -0.303656 0
M  V30 1628 H 147.826 -2.96047 -0.373995 0
M  V30 1629 C 146.575 -2.74325 -2.13638 0
M  V30 1630 H 145.898 -3.55418 -1.8308 0
M  V30 1631 H 147.338 -3.183 -2.80109 0
M  V30 1632 C 145.797 -1.70062 -2.90827 0
M  V30 1633 O 146.327 -1.13763 -3.85254 0
M  V30 1634 N 144.533 -1.40628 -2.54307 0
M  V30 1635 H 144.08 -1.866 -1.7759 0
M  V30 1636 H 144.038 -0.711043 -3.06254 0
M  V30 1637 N 147.81 0.181792 -1.56548 0
M  V30 1638 C 148.742 1.24956 -1.92142 0
M  V30 1639 C 149.755 1.41022 -0.813422 0
M  V30 1640 O 150.944 1.41212 -1.09186 0
M  V30 1641 C 148.044 2.61981 -2.14987 0
M  V30 1642 C 147.217 2.6735 -3.46183 0
M  V30 1643 C 146.276 3.85664 -3.5798 0
M  V30 1644 O 145.302 3.72148 -4.30691 0
M  V30 1645 N 146.504 5.01683 -2.92053 0
M  V30 1646 H 149.269 0.947329 -2.84334 0
M  V30 1647 H 146.83 0.371629 -1.57577 0
M  V30 1648 H 148.822 3.3958 -2.20154 0
M  V30 1649 H 147.392 2.84637 -1.2923 0
M  V30 1650 H 146.612 1.75925 -3.52766 0
M  V30 1651 H 147.9 2.67939 -4.32534 0
M  V30 1652 H 147.298 5.15564 -2.32832 0
M  V30 1653 H 145.855 5.77181 -3.0283 0
M  V30 1654 N 149.288 1.51039 0.449983 0
M  V30 1655 C 150.22 1.67617 1.56324 0
M  V30 1656 C 151.233 0.557083 1.52972 0
M  V30 1657 O 152.422 0.830989 1.57977 0
M  V30 1658 C 149.522 1.66402 2.95235 0
M  V30 1659 C 148.695 2.9469 3.23229 0
M  V30 1660 C 147.754 2.85832 4.41799 0
M  V30 1661 O 146.78 3.59785 4.41071 0
M  V30 1662 N 147.982 2.00821 5.44657 0
M  V30 1663 H 150.747 2.63648 1.42512 0
M  V30 1664 H 148.308 1.48767 0.638737 0
M  V30 1665 H 150.3 1.58062 3.72557 0
M  V30 1666 H 148.87 0.780182 3.02708 0
M  V30 1667 H 148.09 3.16996 2.34323 0
M  V30 1668 H 149.378 3.79636 3.38754 0
M  V30 1669 H 148.776 1.40091 5.48079 0
M  V30 1670 H 147.333 1.98368 6.20881 0
M  V30 1671 N 150.766 -0.704594 1.40972 0
M  V30 1672 C 152.006 -1.47691 1.41304 0
M  V30 1673 C 152.37 -1.91992 0.0178582 0
M  V30 1674 O 153.571 -2.68599 -0.103996 0
M  V30 1675 C 151.842 -2.66254 2.38419 0
M  V30 1676 S 153.401 -3.55516 2.57204 0
M  V30 1677 H 150.219 -0.504808 0.500689 0
M  V30 1678 H 152.821 -0.822962 1.77335 0
M  V30 1679 H 151.525 -2.31897 3.38603 0
M  V30 1680 H 151.056 -3.3655 2.03711 0
M  V30 1681 H 153.071 -4.61115 1.83268 0
M  V30 1682 N 152.244 -1.26651 -0.937939 0
M  V30 1683 C 153.469 -1.15279 -1.72411 0
M  V30 1684 C 153.894 0.287866 -1.85884 0
M  V30 1685 O 153.252 1.20855 -1.35143 0
M  V30 1686 C 153.3 -1.83028 -3.10698 0
M  V30 1687 O 152.404 -1.12128 -3.96864 0
M  V30 1688 H 151.745 -0.401504 -0.528858 0
M  V30 1689 H 154.275 -1.67531 -1.1745 0
M  V30 1690 H 154.285 -1.89981 -3.6107 0
M  V30 1691 H 152.96 -2.87833 -3.00208 0
M  V30 1692 H 151.537 -1.13173 -3.55312 0
M  V30 1693 N 153.722 1.14298 -1.08507 0
M  V30 1694 C 154.952 1.88945 -0.835663 0
M  V30 1695 C 155.36 1.78894 0.615928 0
M  V30 1696 O 154.703 1.1468 1.43506 0
M  V30 1697 C 154.765 3.39585 -1.17994 0
M  V30 1698 C 154.429 3.7342 -2.63451 0
M  V30 1699 C 155.426 3.73454 -3.61702 0
M  V30 1700 C 153.111 4.03368 -2.99332 0
M  V30 1701 C 155.105 4.02961 -4.93864 0
M  V30 1702 C 152.792 4.32538 -4.31687 0
M  V30 1703 C 153.79 4.32318 -5.28763 0
M  V30 1704 O 153.478 4.6078 -6.58739 0
M  V30 1705 H 153.21 0.605307 -0.300965 0
M  V30 1706 H 155.764 1.45673 -1.44806 0
M  V30 1707 H 153.994 3.83315 -0.51055 0
M  V30 1708 H 155.683 3.9554 -0.911182 0
M  V30 1709 H 156.449 3.50403 -3.35325 0
M  V30 1710 H 152.328 4.02692 -2.24411 0
M  V30 1711 H 155.872 4.02704 -5.69627 0
M  V30 1712 H 151.769 4.55059 -4.57812 0
M  V30 1713 H 152.537 4.78492 -6.64069 0
M  V30 1714 N 155.201 0.870884 1.31352 0
M  V30 1715 C 156.45 0.478408 1.95944 0
M  V30 1716 C 156.763 -0.974493 1.69597 0
M  V30 1717 O 157.969 -1.47316 2.28058 0
M  V30 1718 C 156.425 0.804609 3.50791 0
M  V30 1719 C 156.033 2.27433 3.85977 0
M  V30 1720 C 157.777 0.480648 4.2177 0
M  V30 1721 C 155.684 2.5429 5.33939 0
M  V30 1722 H 154.614 0.175175 0.733369 0
M  V30 1723 H 157.265 1.06391 1.4951 0
M  V30 1724 H 155.647 0.148347 3.95722 0
M  V30 1725 H 156.821 2.97373 3.52002 0
M  V30 1726 H 155.136 2.56442 3.28065 0
M  V30 1727 H 157.733 0.658519 5.30629 0
M  V30 1728 H 158.076 -0.578979 4.12254 0
M  V30 1729 H 158.609 1.09349 3.82476 0
M  V30 1730 H 155.348 3.58939 5.48491 0
M  V30 1731 H 154.868 1.88945 5.69263 0
M  V30 1732 H 156.547 2.39066 6.01212 0
M  V30 1733 N 156.679 -1.44442 0.630414 0
M  V30 1734 C 158.09 -1.85434 0.217063 0
M  V30 1735 C 158.441 -1.52748 -1.23136 0
M  V30 1736 O 157.566 -0.965205 -1.93682 0
M  V30 1737 C 158.161 -3.36581 0.387168 0
M  V30 1738 C 156.72 -3.76389 0.0283297 0
M  V30 1739 C 155.867 -2.68296 0.700889 0
M  V30 1740 H 158.818 -1.34919 0.83562 0
M  V30 1741 H 158.839 -3.78657 -0.374086 0
M  V30 1742 H 158.351 -3.60339 1.44144 0
M  V30 1743 H 156.452 -3.58246 -1.02423 0
M  V30 1744 H 156.565 -4.77095 0.437892 0
M  V30 1745 H 154.929 -2.54335 0.136267 0
M  V30 1746 H 155.712 -2.94887 1.75774 0
M  V30 1747 N 158.157 -0.370918 -1.53173 0
M  V30 1748 C 159.405 0.216673 -2.00935 0
M  V30 1749 C 159.726 1.48845 -1.25977 0
M  V30 1750 O 158.996 1.92286 -0.374551 0
M  V30 1751 H 157.576 0.0830565 -0.742368 0
M  V30 1752 H 160.238 -0.49838 -1.8842 0
M  V30 1753 H 159.334 0.439893 -3.08984 0
M  V30 1754 N 159.635 1.57281 -0.100228 0
M  V30 1755 C 160.86 1.99302 0.573881 0
M  V30 1756 C 161.285 0.979059 1.60611 0
M  V30 1757 O 160.643 -0.0517803 1.81226 0
M  V30 1758 C 160.691 3.40274 1.19358 0
M  V30 1759 O 159.795 3.41676 2.30935 0
M  V30 1760 H 159.136 0.647944 0.145138 0
M  V30 1761 H 161.666 2.03779 -0.183156 0
M  V30 1762 H 161.676 3.78078 1.53365 0
M  V30 1763 H 160.351 4.13594 0.437385 0
M  V30 1764 H 158.928 3.15672 1.98509 0
M  V30 1765 N 161.113 -0.173488 1.56642 0
M  V30 1766 C 162.359 -0.891784 1.8214 0
M  V30 1767 C 162.692 -1.8199 0.677736 0
M  V30 1768 O 161.967 -1.91842 -0.320446 0
M  V30 1769 C 162.25 -1.68933 3.18015 0
M  V30 1770 C 162.103 -0.784487 4.42906 0
M  V30 1771 C 163.422 -2.65748 3.50808 0
M  V30 1772 H 160.541 -0.322761 0.662567 0
M  V30 1773 H 163.183 -0.158095 1.89341 0
M  V30 1774 H 161.333 -2.31482 3.12007 0
M  V30 1775 H 163.005 -0.172046 4.60979 0
M  V30 1776 H 161.248 -0.0924117 4.33702 0
M  V30 1777 H 161.919 -1.37799 5.34524 0
M  V30 1778 H 164.395 -2.13327 3.57255 0
M  V30 1779 H 163.271 -3.18619 4.4696 0
M  V30 1780 H 163.532 -3.45842 2.75401 0
M  V30 1781 N 162.591 -1.51276 -0.441967 0
M  V30 1782 C 163.868 -1.54252 -1.20273 0
M  V30 1783 C 164.248 -0.30408 -2.08898 0
M  V30 1784 O 163.596 0.711084 -2.17154 0
M  V30 1785 C 163.806 -2.85406 -2.00859 0
M  V30 1786 C 165.154 -3.37181 -2.58059 0
M  V30 1787 O 166.178 -2.86925 -2.11074 0
M  V30 1788 O 165.037 -4.24858 -3.43741 0
M  V30 1789 H 162.131 -0.619969 -0.547328 0
M  V30 1790 H 164.677 -1.63586 -0.451413 0
M  V30 1791 H 163.449 -3.67003 -1.35736 0
M  V30 1792 H 163.072 -2.79213 -2.83065 0
M  V30 1793 N 164.069 0.697108 -1.41344 0
M  V30 1794 C 165.017 1.83237 -1.43272 0
M  V30 1795 C 166.011 1.66522 -0.310947 0
M  V30 1796 O 167.217 1.73402 -0.482899 0
M  V30 1797 H 163.592 0.603802 -0.448249 0
M  V30 1798 H 165.563 1.78727 -2.38954 0
M  V30 1799 C 164.312 3.21245 -1.33029 0
M  V30 1800 H 163.635 3.34723 -2.18633 0
M  V30 1801 H 165.075 4.00763 -1.38439 0
M  V30 1802 C 163.534 3.36873 -0.0424635 0
M  V30 1803 O 164.064 3.91177 0.913421 0
M  V30 1804 N 162.27 2.90581 0.0331145 0
M  V30 1805 H 161.817 2.46577 -0.745506 0
M  V30 1806 H 161.775 3.01416 0.894199 0
M  V30 1807 N 165.547 1.27147 0.931209 0
M  V30 1808 C 166.777 1.15914 1.71019 0
M  V30 1809 C 167.185 -0.287112 1.87009 0
M  V30 1810 O 166.528 -1.20761 1.38429 0
M  V30 1811 C 166.59 1.76647 3.13107 0
M  V30 1812 C 166.254 3.25807 3.20467 0
M  V30 1813 C 167.251 4.22489 3.02983 0
M  V30 1814 C 164.936 3.66452 3.43538 0
M  V30 1815 C 166.93 5.57794 3.08454 0
M  V30 1816 C 164.617 5.01888 3.48643 0
M  V30 1817 C 165.615 5.97369 3.31119 0
M  V30 1818 O 165.303 7.30337 3.35952 0
M  V30 1819 H 165.035 0.404062 0.54195 0
M  V30 1820 H 167.589 1.68457 1.17521 0
M  V30 1821 H 165.819 1.18578 3.68071 0
M  V30 1822 H 167.508 1.60179 3.72958 0
M  V30 1823 H 168.274 3.92425 2.85004 0
M  V30 1824 H 164.153 2.92611 3.5623 0
M  V30 1825 H 167.697 6.32298 2.94694 0
M  V30 1826 H 163.594 5.31609 3.66145 0
M  V30 1827 H 164.362 7.38739 3.5243 0
M  V30 1828 N 167.025 -1.13721 1.09112 0
M  V30 1829 C 167.957 -2.1871 0.685467 0
M  V30 1830 C 168.97 -1.60527 -0.271068 0
M  V30 1831 O 170.159 -1.78407 -0.0576148 0
M  V30 1832 C 167.259 -3.38898 -0.0111255 0
M  V30 1833 C 166.432 -4.26597 0.966131 0
M  V30 1834 C 165.491 -5.25324 0.303539 0
M  V30 1835 O 164.517 -5.61213 0.950177 0
M  V30 1836 N 165.719 -5.72779 -0.943651 0
M  V30 1837 H 168.484 -2.54126 1.58871 0
M  V30 1838 H 166.045 -1.29012 0.978143 0
M  V30 1839 H 168.037 -4.02014 -0.465517 0
M  V30 1840 H 166.607 -3.01747 -0.816565 0
M  V30 1841 H 165.827 -3.60306 1.59917 0
M  V30 1842 H 167.115 -4.82048 1.6281 0
M  V30 1843 H 166.513 -5.45762 -1.48862 0
M  V30 1844 H 165.07 -6.37847 -1.34142 0
M  V30 1845 N 168.503 -0.877838 -1.30888 0
M  V30 1846 C 169.731 -0.507414 -2.00581 0
M  V30 1847 C 170.146 0.902216 -1.65848 0
M  V30 1848 O 169.503 1.59225 -0.891831 0
M  V30 1849 C 169.554 -0.664162 -3.55347 0
M  V30 1850 O 169.275 -2.01829 -3.8884 0
M  V30 1851 C 170.776 -0.295787 -4.42312 0
M  V30 1852 H 167.996 -0.196866 -0.641471 0
M  V30 1853 H 170.54 -1.18117 -1.66939 0
M  V30 1854 H 168.695 -0.0378619 -3.87381 0
M  V30 1855 H 169.109 -2.03174 -4.8355 0
M  V30 1856 H 170.583 -0.456388 -5.5011 0
M  V30 1857 H 171.06 0.765663 -4.32475 0
M  V30 1858 H 171.666 -0.898113 -4.15709 0
M  V30 1859 N 169.982 1.44106 -0.638065 0
M  V30 1860 C 170.945 2.29138 0.0531013 0
M  V30 1861 C 171.945 1.41409 0.765506 0
M  V30 1862 O 173.135 1.63206 0.609046 0
M  V30 1863 C 170.267 3.23144 1.08584 0
M  V30 1864 H 171.46 2.91739 -0.694883 0
M  V30 1865 H 169.013 1.51134 -0.398538 0
M  V30 1866 H 169.748 2.65408 1.86357 0
M  V30 1867 H 169.533 3.87804 0.578852 0
M  V30 1868 H 171.023 3.87004 1.56899 0
M  V30 1869 N 171.46 0.379036 1.52974 0
M  V30 1870 C 172.876 0.0285448 1.59574 0
M  V30 1871 C 173.076 -1.45542 1.39355 0
M  V30 1872 O 172.132 -2.2187 1.20541 0
M  V30 1873 C 173.445 0.496535 2.96572 0
M  V30 1874 C 174.993 0.451909 3.0972 0
M  V30 1875 C 175.468 0.895924 4.49152 0
M  V30 1876 N 176.959 0.851522 4.55306 0
M  V30 1877 C 177.694 1.16661 5.61407 0
M  V30 1878 N 177.19 1.55166 6.752 0
M  V30 1879 N 178.983 1.08853 5.51459 0
M  V30 1880 H 171.134 1.34525 1.64367 0
M  V30 1881 H 173.397 0.550733 0.771619 0
M  V30 1882 H 173.103 1.53258 3.16552 0
M  V30 1883 H 172.977 -0.109802 3.7704 0
M  V30 1884 H 175.364 -0.575029 2.89443 0
M  V30 1885 H 175.445 1.09392 2.3123 0
M  V30 1886 H 175.089 1.92104 4.70168 0
M  V30 1887 H 175.019 0.23103 5.26093 0
M  V30 1888 H 177.51 0.568038 3.73606 0
M  V30 1889 H 177.823 1.776 7.52116 0
M  V30 1890 H 176.168 1.59044 6.76557 0
M  V30 1891 H 179.359 0.786803 4.6144 0
M  V30 1892 H 179.532 1.33742 6.34048 0
M  V30 1893 N 172.938 -1.57226 0.108567 0
M  V30 1894 C 173.901 -2.13602 -0.831082 0
M  V30 1895 C 174.901 -1.06841 -1.20173 0
M  V30 1896 O 176.091 -1.32666 -1.12895 0
M  V30 1897 C 173.223 -2.66769 -2.12243 0
M  V30 1898 H 174.416 -2.97951 -0.341317 0
M  V30 1899 H 171.969 -1.55667 -0.14057 0
M  V30 1900 H 172.704 -1.85977 -2.65675 0
M  V30 1901 H 172.489 -3.44839 -1.86625 0
M  V30 1902 H 173.979 -3.10332 -2.79435 0
M  V30 1903 N 174.416 0.165178 -1.56732 0
M  V30 1904 C 175.693 0.908443 -1.73224 0
M  V30 1905 C 176.073 2.0013 -0.67165 0
M  V30 1906 O 175.421 2.26353 0.31253 0
M  V30 1907 C 175.631 1.46756 -3.16644 0
M  V30 1908 C 176.979 1.93809 -3.77787 0
M  V30 1909 O 178.003 1.56537 -3.1996 0
M  V30 1910 O 176.862 2.62486 -4.79336 0
M  V30 1911 H 173.956 0.428025 -0.707618 0
M  V30 1912 H 176.502 0.152526 -1.69013 0
M  V30 1913 H 175.274 0.68129 -3.85323 0
M  V30 1914 H 174.897 2.28749 -3.25207 0
M  V30 1915 N 175.894 1.51508 0.433938 0
M  V30 1916 C 177.14 1.64588 1.18484 0
M  V30 1917 C 177.473 0.362666 1.90784 0
M  V30 1918 O 176.748 -0.637892 1.83742 0
M  V30 1919 C 177.031 2.85149 2.19913 0
M  V30 1920 C 176.884 4.23456 1.51674 0
M  V30 1921 C 178.203 3.01227 3.20858 0
M  V30 1922 H 175.322 0.598994 0.429389 0
M  V30 1923 H 177.964 1.84002 0.473647 0
M  V30 1924 H 176.114 2.68729 2.80566 0
M  V30 1925 H 177.786 4.51552 0.943322 0
M  V30 1926 H 176.029 4.25998 0.819035 0
M  V30 1927 H 176.7 5.03812 2.2556 0
M  V30 1928 H 179.176 3.16382 2.70263 0
M  V30 1929 H 178.052 3.87141 3.89118 0
M  V30 1930 H 178.313 2.13447 3.8716 0
M  V30 1931 N 177.372 -0.689602 1.41712 0
M  V30 1932 C 178.282 -1.83314 1.46401 0
M  V30 1933 C 179.298 -1.7036 0.35405 0
M  V30 1934 O 180.474 -1.92171 0.602692 0
M  V30 1935 C 177.539 -3.19344 1.34982 0
M  V30 1936 C 176.6 -3.44363 2.56344 0
M  V30 1937 C 175.833 -4.73904 2.45461 0
M  V30 1938 O 176.056 -5.508 1.48241 0
M  V30 1939 O 174.99 -4.99839 3.35328 0
M  V30 1940 H 178.816 -1.82314 2.42889 0
M  V30 1941 H 176.401 -0.843438 1.23315 0
M  V30 1942 H 178.283 -4.00547 1.3092 0
M  V30 1943 H 176.958 -3.21014 0.41612 0
M  V30 1944 H 175.865 -2.63067 2.65982 0
M  V30 1945 H 177.198 -3.47512 3.48563 0
M  V30 1946 N 178.85 -1.27639 -0.924453 0
M  V30 1947 C 179.797 -1.10644 -2.0255 0
M  V30 1948 C 180.767 -0.00658438 -1.66099 0
M  V30 1949 O 181.952 -0.16952 -1.90045 0
M  V30 1950 C 179.092 -0.76309 -3.36557 0
M  V30 1951 C 178.205 -1.94091 -3.85944 0
M  V30 1952 C 177.34 -1.53914 -5.08413 0
M  V30 1953 C 176.379 -2.68425 -5.50104 0
M  V30 1954 N 175.516 -2.28815 -6.63768 0
M  V30 1955 H 180.356 -2.04858 -2.16419 0
M  V30 1956 H 177.893 -1.01974 -1.06017 0
M  V30 1957 H 179.851 -0.544822 -4.13627 0
M  V30 1958 H 178.481 0.142102 -3.22487 0
M  V30 1959 H 177.533 -2.27162 -3.05125 0
M  V30 1960 H 178.845 -2.7998 -4.12811 0
M  V30 1961 H 177.999 -1.28231 -5.92994 0
M  V30 1962 H 176.738 -0.651391 -4.8333 0
M  V30 1963 H 175.743 -2.94819 -4.64071 0
M  V30 1964 H 176.968 -3.57826 -5.7718 0
M  V30 1965 H 174.914 -1.42495 -6.40337 0
M  V30 1966 H 174.831 -3.08242 -6.90306 0
M  V30 1967 H 176.099 -2.06387 -7.51681 0
M  V30 1968 N 180.328 1.1314 -1.09713 0
M  V30 1969 C 181.574 1.84757 -0.836224 0
M  V30 1970 C 181.907 1.8347 0.636598 0
M  V30 1971 O 181.182 1.27491 1.46889 0
M  V30 1972 C 181.465 3.32782 -1.37578 0
M  V30 1973 C 181.318 3.42567 -2.91493 0
M  V30 1974 C 182.637 4.28307 -1.01198 0
M  V30 1975 H 179.756 0.67082 -0.305236 0
M  V30 1976 H 182.398 1.3278 -1.35903 0
M  V30 1977 H 180.548 3.77177 -0.931097 0
M  V30 1978 H 182.22 3.06862 -3.44432 0
M  V30 1979 H 180.463 2.83349 -3.28475 0
M  V30 1980 H 181.134 4.46674 -3.24324 0
M  V30 1981 H 183.61 3.91999 -1.39556 0
M  V30 1982 H 182.486 5.30307 -1.41653 0
M  V30 1983 H 182.747 4.42029 0.0794833 0
M  V30 1984 N 181.806 0.884767 1.30421 0
M  V30 1985 C 183.222 0.57874 1.48737 0
M  V30 1986 C 183.422 -0.883567 1.81095 0
M  V30 1987 O 182.478 -1.6648 1.89844 0
M  V30 1988 C 183.791 1.49171 2.61091 0
M  V30 1989 C 185.339 1.49532 2.74971 0
M  V30 1990 C 185.814 2.39421 3.90438 0
M  V30 1991 N 187.305 2.37383 3.97748 0
M  V30 1992 C 188.04 3.03647 4.86401 0
M  V30 1993 N 187.536 3.79136 5.79852 0
M  V30 1994 N 189.329 2.9288 4.79768 0
M  V30 1995 H 181.48 1.83075 1.0769 0
M  V30 1996 H 183.743 0.783637 0.533495 0
M  V30 1997 H 183.449 2.53291 2.44001 0
M  V30 1998 H 183.323 1.20113 3.57565 0
M  V30 1999 H 185.71 0.46163 2.91467 0
M  V30 2000 H 185.791 1.8262 1.79119 0
M  V30 2001 H 185.435 3.42874 3.74699 0
M  V30 2002 H 185.365 2.03649 4.85628 0
M  V30 2003 H 187.856 1.82525 3.30897 0
M  V30 2004 H 188.169 4.26789 6.4426 0
M  V30 2005 H 186.514 3.83243 5.79784 0
M  V30 2006 H 189.705 2.33433 4.05742 0
M  V30 2007 H 189.878 3.448 5.4865 0
M  V30 2008 N 183.284 -1.43765 0.645699 0
M  V30 2009 C 184.247 -2.29163 -0.0409488 0
M  V30 2010 C 185.247 -1.41813 -0.757996 0
M  V30 2011 O 186.437 -1.63527 -0.600382 0
M  V30 2012 C 183.569 -3.23716 -1.06869 0
M  V30 2013 H 184.762 -2.91366 0.710345 0
M  V30 2014 H 182.315 -1.5092 0.406547 0
M  V30 2015 H 183.05 -2.66393 -1.84947 0
M  V30 2016 H 182.835 -3.88105 -0.558277 0
M  V30 2017 H 184.325 -3.87831 -1.54845 0
M  V30 2018 N 184.763 -0.387143 -1.52771 0
M  V30 2019 C 185.71 0.449048 -2.26389 0
M  V30 2020 C 186.68 1.05961 -1.27912 0
M  V30 2021 O 187.865 1.08804 -1.56737 0
M  V30 2022 C 185.005 1.57155 -3.0724 0
M  V30 2023 C 184.118 0.984066 -4.20643 0
M  V30 2024 C 183.253 2.07745 -4.88892 0
M  V30 2025 C 182.292 1.46574 -5.94292 0
M  V30 2026 N 181.429 2.49834 -6.56146 0
M  V30 2027 H 186.269 -0.185205 -2.97424 0
M  V30 2028 H 183.806 -0.103164 -1.46738 0
M  V30 2029 H 185.764 2.23309 -3.52405 0
M  V30 2030 H 184.394 2.17615 -2.38419 0
M  V30 2031 H 183.446 0.212193 -3.79808 0
M  V30 2032 H 184.758 0.497029 -4.96318 0
M  V30 2033 H 183.912 2.81673 -5.3735 0
M  V30 2034 H 182.651 2.59807 -4.12737 0
M  V30 2035 H 181.656 0.711696 -5.45174 0
M  V30 2036 H 182.881 0.953088 -6.72379 0
M  V30 2037 H 180.827 3.0107 -5.82832 0
M  V30 2038 H 180.744 2.05879 -7.27427 0
M  V30 2039 H 182.012 3.23399 -7.09249 0
M  V30 2040 N 186.241 1.57166 -0.116904 0
M  V30 2041 C 187.488 1.95123 0.541603 0
M  V30 2042 C 187.816 1.00006 1.6682 0
M  V30 2043 O 187.071 0.0235658 1.95686 0
M  V30 2044 C 187.37 3.39508 1.11664 0
M  V30 2045 C 187.036 4.50762 0.111606 0
M  V30 2046 C 185.698 4.80918 -0.164758 0
M  V30 2047 C 188.05 5.18036 -0.573438 0
M  V30 2048 C 185.378 5.75666 -1.13249 0
M  V30 2049 C 187.73 6.13824 -1.52978 0
M  V30 2050 C 186.394 6.42374 -1.81415 0
M  V30 2051 H 185.664 0.714005 0.198187 0
M  V30 2052 H 188.311 1.9048 -0.197365 0
M  V30 2053 H 186.616 3.40835 1.93232 0
M  V30 2054 H 188.313 3.66189 1.63422 0
M  V30 2055 H 184.903 4.27272 0.337192 0
M  V30 2056 H 189.087 4.94896 -0.373092 0
M  V30 2057 H 184.343 5.96092 -1.35958 0
M  V30 2058 H 188.517 6.65039 -2.06629 0
M  V30 2059 H 186.144 7.15599 -2.56557 0
M  V30 2060 N 187.719 -0.156864 1.56817 0
M  V30 2061 C 188.651 -1.21883 1.94106 0
M  V30 2062 C 189.664 -1.3971 0.835754 0
M  V30 2063 O 190.853 -1.39457 1.11418 0
M  V30 2064 C 187.953 -2.58527 2.19127 0
M  V30 2065 C 187.126 -2.61809 3.50393 0
M  V30 2066 C 186.185 -3.7992 3.64071 0
M  V30 2067 O 185.211 -3.65249 4.36557 0
M  V30 2068 N 186.413 -4.96973 2.99997 0
M  V30 2069 H 189.178 -0.901974 2.85805 0
M  V30 2070 H 186.739 -0.346513 1.58148 0
M  V30 2071 H 188.731 -3.36034 2.25529 0
M  V30 2072 H 187.301 -2.82545 1.33742 0
M  V30 2073 H 186.521 -1.7029 3.5552 0
M  V30 2074 H 187.809 -2.61024 4.36742 0
M  V30 2075 H 187.207 -5.11794 2.41004 0
M  V30 2076 H 185.764 -5.7229 3.11974 0
M  V30 2077 N 189.197 -1.51736 -0.425897 0
M  V30 2078 C 190.107 -1.76738 -1.54275 0
M  V30 2079 C 191.123 -0.65211 -1.61318 0
M  V30 2080 O 192.299 -0.935654 -1.78346 0
M  V30 2081 C 189.364 -1.89755 -2.90162 0
M  V30 2082 C 188.425 -3.13633 -2.93143 0
M  V30 2083 C 187.658 -3.2602 -4.22548 0
M  V30 2084 O 187.881 -2.44067 -5.15546 0
M  V30 2085 O 186.815 -4.19071 -4.32046 0
M  V30 2086 H 190.641 -2.71502 -1.36089 0
M  V30 2087 H 188.226 -1.36376 -0.610069 0
M  V30 2088 H 190.108 -2.00236 -3.70788 0
M  V30 2089 H 188.783 -0.981785 -3.08452 0
M  V30 2090 H 187.69 -3.08622 -2.11431 0
M  V30 2091 H 189.023 -4.04936 -2.798 0
M  V30 2092 N 190.675 0.682077 -1.42076 0
M  V30 2093 C 191.607 1.80755 -1.40926 0
M  V30 2094 C 192.62 1.59833 -0.309398 0
M  V30 2095 O 193.809 1.69087 -0.572014 0
M  V30 2096 C 190.909 3.17744 -1.17865 0
M  V30 2097 C 190.082 3.65578 -2.40149 0
M  V30 2098 C 189.141 4.81277 -2.12742 0
M  V30 2099 O 188.167 4.92197 -2.85887 0
M  V30 2100 N 189.369 5.69474 -1.12602 0
M  V30 2101 H 192.134 1.82229 -2.37935 0
M  V30 2102 H 189.695 0.864903 -1.36861 0
M  V30 2103 H 191.687 3.9279 -0.9746 0
M  V30 2104 H 190.257 3.11214 -0.294068 0
M  V30 2105 H 189.477 2.81291 -2.76169 0
M  V30 2106 H 190.765 3.94278 -3.21593 0
M  V30 2107 H 190.163 5.63297 -0.520899 0
M  V30 2108 H 188.72 6.44363 -0.981842 0
M  V30 2109 N 192.153 1.28127 0.917671 0
M  V30 2110 C 193.085 1.07517 2.02417 0
M  V30 2111 C 194.098 0.0281099 1.62776 0
M  V30 2112 O 195.287 0.270748 1.76435 0
M  V30 2113 C 192.387 0.610957 3.33347 0
M  V30 2114 C 191.56 1.73255 4.01624 0
M  V30 2115 C 190.619 1.26238 5.10833 0
M  V30 2116 O 189.645 1.96389 5.34247 0
M  V30 2117 N 190.847 0.123448 5.80369 0
M  V30 2118 H 193.612 2.02806 2.20658 0
M  V30 2119 H 191.173 1.19827 1.08871 0
M  V30 2120 H 193.165 0.280101 4.0373 0
M  V30 2121 H 191.735 -0.24898 3.11607 0
M  V30 2122 H 190.955 2.23319 3.24842 0
M  V30 2123 H 192.243 2.48503 4.43986 0
M  V30 2124 H 191.641 -0.461847 5.63812 0
M  V30 2125 H 190.198 -0.148158 6.51632 0
M  V30 2126 N 193.631 -1.12557 1.10312 0
M  V30 2127 C 194.877 -1.84311 0.846011 0
M  V30 2128 C 195.21 -1.83805 -0.626859 0
M  V30 2129 O 194.485 -1.28268 -1.46211 0
M  V30 2130 C 194.768 -3.32048 1.39341 0
M  V30 2131 C 194.621 -3.41016 2.93305 0
M  V30 2132 C 195.94 -4.27764 1.03468 0
M  V30 2133 H 193.059 -0.669192 0.30879 0
M  V30 2134 H 195.701 -1.32057 1.36605 0
M  V30 2135 H 193.851 -3.76678 0.951087 0
M  V30 2136 H 195.523 -3.05031 3.46055 0
M  V30 2137 H 193.766 -2.81603 3.29973 0
M  V30 2138 H 194.437 -4.44948 3.26689 0
M  V30 2139 H 196.913 -3.91253 1.41633 0
M  V30 2140 H 195.789 -5.29549 1.44463 0
M  V30 2141 H 196.05 -4.42064 -0.0560404 0
M  V30 2142 N 195.109 -0.891671 -1.2995 0
M  V30 2143 C 196.356 -0.513501 -1.95881 0
M  V30 2144 C 196.684 0.938655 -1.70351 0
M  V30 2145 O 195.939 1.67936 -1.00478 0
M  V30 2146 C 196.238 -0.742868 -3.49594 0
M  V30 2147 C 195.904 -2.17114 -3.95186 0
M  V30 2148 C 194.566 -2.56169 -4.07346 0
M  V30 2149 C 196.918 -3.10162 -4.18866 0
M  V30 2150 C 194.246 -3.87469 -4.4055 0
M  V30 2151 C 196.598 -4.41001 -4.53542 0
M  V30 2152 C 195.262 -4.79941 -4.63911 0
M  V30 2153 H 194.532 -0.187903 -0.71678 0
M  V30 2154 H 197.179 -1.1288 -1.54694 0
M  V30 2155 H 195.484 -0.044586 -3.91775 0
M  V30 2156 H 197.181 -0.429767 -3.9869 0
M  V30 2157 H 193.771 -1.85801 -3.86233 0
M  V30 2158 H 197.955 -2.81206 -4.08946 0
M  V30 2159 H 193.211 -4.17371 -4.46779 0
M  V30 2160 H 197.385 -5.13133 -4.70815 0
M  V30 2161 H 195.012 -5.81719 -4.89395 0
M  V30 2162 N 196.587 1.43421 -0.653314 0
M  V30 2163 C 197.817 2.05864 -0.174238 0
M  V30 2164 C 198.225 1.49052 1.16534 0
M  V30 2165 O 197.568 0.616481 1.73047 0
M  V30 2166 C 197.63 3.59499 -0.00875873 0
M  V30 2167 C 197.294 4.38893 -1.27364 0
M  V30 2168 C 198.291 4.70947 -2.20239 0
M  V30 2169 C 195.976 4.789 -1.51525 0
M  V30 2170 C 197.97 5.41916 -3.35568 0
M  V30 2171 C 195.657 5.49614 -2.67147 0
M  V30 2172 C 196.655 5.81044 -3.58994 0
M  V30 2173 O 196.343 6.50313 -4.72597 0
M  V30 2174 H 196.075 0.670345 -0.0872549 0
M  V30 2175 H 198.629 1.84913 -0.894226 0
M  V30 2176 H 196.859 3.79025 0.7666 0
M  V30 2177 H 198.548 4.0364 0.427687 0
M  V30 2178 H 199.314 4.40558 -2.02815 0
M  V30 2179 H 195.193 4.53843 -0.809158 0
M  V30 2180 H 198.737 5.66365 -4.07279 0
M  V30 2181 H 194.634 5.79419 -2.84505 0
M  V30 2182 H 195.402 6.68795 -4.71864 0
M  V30 2183 N 198.065 0.39524 1.52563 0
M  V30 2184 C 199.305 -0.184744 2.03563 0
M  V30 2185 C 199.669 -1.43548 1.27507 0
M  V30 2186 O 200.87 -2.093 1.68662 0
M  V30 2187 C 199.141 -0.440294 3.54678 0
M  V30 2188 S 200.7 -0.989712 4.27493 0
M  V30 2189 H 197.518 -0.0515075 0.709132 0
M  V30 2190 H 200.12 0.544957 1.87751 0
M  V30 2191 H 198.824 0.477005 4.07618 0
M  V30 2192 H 198.355 -1.19825 3.74707 0
M  V30 2193 H 200.37 -2.27155 4.41152 0
M  V30 2194 N 199.544 -1.57102 0.125237 0
M  V30 2195 C 200.791 -1.95407 -0.531248 0
M  V30 2196 C 201.119 -1.0089 -1.66287 0
M  V30 2197 O 200.374 -0.0339431 -1.95671 0
M  V30 2198 C 200.673 -3.40096 -1.09862 0
M  V30 2199 C 200.339 -4.50815 -0.0876989 0
M  V30 2200 C 199.001 -4.80824 0.19026 0
M  V30 2201 C 201.353 -5.17724 0.600902 0
M  V30 2202 C 198.681 -5.75058 1.163 0
M  V30 2203 C 201.033 -6.13005 1.56231 0
M  V30 2204 C 199.697 -6.41403 1.8482 0
M  V30 2205 H 198.967 -0.715046 -0.194397 0
M  V30 2206 H 201.614 -1.90373 0.207463 0
M  V30 2207 H 199.919 -3.41855 -1.91422 0
M  V30 2208 H 201.616 -3.6705 -1.61478 0
M  V30 2209 H 198.206 -4.27444 -0.314528 0
M  V30 2210 H 202.39 -4.94691 0.399333 0
M  V30 2211 H 197.646 -5.95362 1.39117 0
M  V30 2212 H 201.82 -6.63934 2.10153 0
M  V30 2213 H 199.447 -7.14229 2.60349 0
M  V30 2214 N 201.022 0.148545 -1.56898 0
M  V30 2215 C 202.247 0.880385 -1.87787 0
M  V30 2216 C 202.672 1.74018 -0.714093 0
M  V30 2217 O 202.03 1.78153 0.336343 0
M  V30 2218 C 202.078 1.71422 -3.17249 0
M  V30 2219 O 201.182 2.8183 -3.01074 0
M  V30 2220 H 200.523 0.245301 -0.617028 0
M  V30 2221 H 203.053 0.139826 -2.04122 0
M  V30 2222 H 203.063 2.10954 -3.49231 0
M  V30 2223 H 201.738 1.08284 -4.01556 0
M  V30 2224 H 200.315 2.45715 -2.80497 0
M  V30 2225 N 202.5 1.5196 0.417844 0
M  V30 2226 C 203.463 1.74065 1.49111 0
M  V30 2227 C 204.463 0.610537 1.48758 0
M  V30 2228 O 205.653 0.87832 1.50437 0
M  V30 2229 C 202.785 1.81502 2.88565 0
M  V30 2230 H 203.978 2.69869 1.30807 0
M  V30 2231 H 201.531 1.42244 0.647785 0
M  V30 2232 H 202.266 0.875813 3.1225 0
M  V30 2233 H 202.051 2.63651 2.90225 0
M  V30 2234 H 203.541 2.00376 3.66387 0
M  V30 2235 N 203.978 -0.674533 1.42435 0
M  V30 2236 C 205.389 -1.25514 1.38214 0
M  V30 2237 C 205.74 -1.96055 0.0755464 0
M  V30 2238 O 204.865 -2.00028 -0.8257 0
M  V30 2239 C 205.46 -2.28269 2.50357 0
M  V30 2240 C 204.019 -2.81856 2.49467 0
M  V30 2241 C 203.166 -1.56182 2.29134 0
M  V30 2242 H 206.117 -0.467902 1.51646 0
M  V30 2243 H 206.138 -3.10009 2.20624 0
M  V30 2244 H 205.65 -1.769 3.45439 0
M  V30 2245 H 203.751 -3.37346 1.58204 0
M  V30 2246 H 203.864 -3.30854 3.46515 0
M  V30 2247 H 202.228 -1.82761 1.774 0
M  V30 2248 H 203.011 -1.06778 3.26272 0
M  V30 2249 N 205.456 -1.28612 -0.910864 0
M  V30 2250 C 206.872 -1.06381 -1.18976 0
M  V30 2251 C 207.072 0.191998 -2.00583 0
M  V30 2252 O 206.128 0.892869 -2.36187 0
M  V30 2253 C 207.441 -2.31295 -1.92154 0
M  V30 2254 C 208.989 -2.36503 -2.05025 0
M  V30 2255 C 209.464 -3.61191 -2.81612 0
M  V30 2256 N 210.955 -3.61847 -2.89172 0
M  V30 2257 C 211.69 -4.55004 -3.4894 0
M  V30 2258 N 211.186 -5.58482 -4.09963 0
M  V30 2259 N 212.979 -4.42594 -3.46506 0
M  V30 2260 H 205.13 -2.09221 -0.366094 0
M  V30 2261 H 207.393 -0.921003 -0.224629 0
M  V30 2262 H 207.099 -3.228 -1.39618 0
M  V30 2263 H 206.973 -2.37934 -2.9269 0
M  V30 2264 H 209.36 -1.45494 -2.5674 0
M  V30 2265 H 209.441 -2.33857 -1.03657 0
M  V30 2266 H 209.085 -4.52545 -2.30576 0
M  V30 2267 H 209.015 -3.61092 -3.83302 0
M  V30 2268 H 211.506 -2.87022 -2.45819 0
M  V30 2269 H 211.819 -6.25704 -4.53557 0
M  V30 2270 H 210.164 -5.62305 -4.08459 0
M  V30 2271 H 213.355 -3.60953 -2.98045 0
M  V30 2272 H 213.528 -5.15381 -3.92793 0
M  V30 2273 N 206.934 1.1197 -1.10907 0
M  V30 2274 C 208.182 1.83225 -0.852819 0
M  V30 2275 C 208.503 1.84769 0.623341 0
M  V30 2276 O 207.773 1.3143 1.45269 0
M  V30 2277 H 206.353 0.67849 -0.312507 0
M  V30 2278 H 209.015 1.3556 -1.40033 0
M  V30 2279 H 208.111 2.87265 -1.22005 0
M  V30 2280 N 208.412 0.89855 1.29475 0
M  V30 2281 C 209.36 0.365253 2.29714 0
M  V30 2282 C 210.354 -0.534993 1.6073 0
M  V30 2283 O 211.56 -0.417921 1.75081 0
M  V30 2284 H 207.935 0.0994853 0.74539 0
M  V30 2285 H 209.906 1.22406 2.72138 0
M  V30 2286 C 208.655 -0.393159 3.4547 0
M  V30 2287 H 207.978 0.290332 3.98744 0
M  V30 2288 H 209.418 -0.731189 4.17648 0
M  V30 2289 C 207.877 -1.59539 2.9673 0
M  V30 2290 O 208.407 -2.69469 2.97908 0
M  V30 2291 N 206.613 -1.43716 2.52575 0
M  V30 2292 H 206.16 -0.542828 2.51816 0
M  V30 2293 H 206.118 -2.24288 2.20323 0
M  V30 2294 N 209.89 -1.43072 0.660911 0
M  V30 2295 C 210.8 -2.34585 -0.0264163 0
M  V30 2296 C 211.816 -1.54316 -0.803898 0
M  V30 2297 O 212.992 -1.86939 -0.749391 0
M  V30 2298 C 210.057 -3.32689 -0.975639 0
M  V30 2299 C 209.118 -4.2886 -0.194236 0
M  V30 2300 C 208.351 -5.22278 -1.09825 0
M  V30 2301 O 208.574 -5.20299 -2.33763 0
M  V30 2302 O 207.508 -5.99228 -0.566513 0
M  V30 2303 H 211.334 -2.94869 0.727034 0
M  V30 2304 H 208.919 -1.43342 0.42111 0
M  V30 2305 H 210.801 -3.92995 -1.52094 0
M  V30 2306 H 209.476 -2.74898 -1.70918 0
M  V30 2307 H 208.383 -3.72011 0.394835 0
M  V30 2308 H 209.716 -4.89655 0.499899 0
M  V30 2309 N 211.368 -0.403325 -1.52352 0
M  V30 2310 C 212.596 0.174012 -2.06167 0
M  V30 2311 C 213.011 1.39347 -1.27388 0
M  V30 2312 O 212.368 1.79597 -0.324201 0
M  V30 2313 C 212.419 0.530223 -3.5759 0
M  V30 2314 O 212.14 -0.640806 -4.33388 0
M  V30 2315 C 213.641 1.16192 -4.27802 0
M  V30 2316 H 210.861 0.0229464 -0.670608 0
M  V30 2317 H 213.405 -0.572604 -1.9632 0
M  V30 2318 H 211.56 1.22673 -3.67464 0
M  V30 2319 H 211.974 -0.344851 -5.23365 0
M  V30 2320 H 213.448 1.36141 -5.34948 0
M  V30 2321 H 213.925 2.13335 -3.83907 0
M  V30 2322 H 214.531 0.505775 -4.22282 0
M  V30 2323 N 212.846 1.57033 -0.133567 0
M  V30 2324 C 214.071 2.00475 0.531477 0
M  V30 2325 C 214.496 1.01291 1.58499 0
M  V30 2326 O 213.854 -0.0133279 1.81295 0
M  V30 2327 C 213.902 3.42729 1.12113 0
M  V30 2328 O 213.006 3.46498 2.23636 0
M  V30 2329 H 212.347 0.650876 0.131362 0
M  V30 2330 H 214.877 2.03344 -0.22634 0
M  V30 2331 H 214.887 3.81246 1.4531 0
M  V30 2332 H 213.562 4.14428 0.349557 0
M  V30 2333 H 212.139 3.19811 1.91769 0
M  V30 2334 N 214.325 -0.140222 1.56975 0
M  V30 2335 C 215.571 -0.852949 1.83991 0
M  V30 2336 C 215.904 -1.80512 0.716187 0
M  V30 2337 O 215.179 -1.92479 -0.279681 0
M  V30 2338 C 215.462 -1.6215 3.21527 0
M  V30 2339 C 215.315 -0.690363 4.4447 0
M  V30 2340 C 216.634 -2.58247 3.56366 0
M  V30 2341 H 213.753 -0.308634 0.669264 0
M  V30 2342 H 216.395 -0.117898 1.89634 0
M  V30 2343 H 214.545 -2.24812 3.16847 0
M  V30 2344 H 216.217 -0.0742264 4.6124 0
M  V30 2345 H 214.46 -0.000396433 4.338 0
M  V30 2346 H 215.131 -1.2643 5.37326 0
M  V30 2347 H 217.607 -2.05701 3.61699 0
M  V30 2348 H 216.483 -3.09067 4.53617 0
M  V30 2349 H 216.744 -3.39923 2.82674 0
M  V30 2350 N 215.803 -1.52179 -0.40978 0
M  V30 2351 C 216.733 -1.78435 -1.5061 0
M  V30 2352 C 217.714 -0.635295 -1.57791 0
M  V30 2353 O 218.899 -0.880823 -1.73076 0
M  V30 2354 C 216.029 -1.93444 -2.88439 0
M  V30 2355 C 214.983 -3.09038 -2.96108 0
M  V30 2356 C 214.309 -3.09268 -4.36185 0
M  V30 2357 C 215.609 -4.48508 -2.67652 0
M  V30 2358 H 217.303 -2.70237 -1.28889 0
M  V30 2359 H 214.849 -1.30036 -0.618605 0
M  V30 2360 H 216.802 -2.10394 -3.65119 0
M  V30 2361 H 215.526 -0.983129 -3.11452 0
M  V30 2362 H 214.185 -2.91837 -2.21872 0
M  V30 2363 H 213.833 -2.11861 -4.56206 0
M  V30 2364 H 213.533 -3.86907 -4.42241 0
M  V30 2365 H 215.057 -3.28348 -5.14801 0
M  V30 2366 H 216.471 -4.65918 -3.34056 0
M  V30 2367 H 214.868 -5.28059 -2.85085 0
M  V30 2368 H 215.938 -4.56649 -1.63095 0
M  V30 2369 N 217.281 0.66697 -1.42791 0
M  V30 2370 C 218.528 1.42699 -1.43678 0
M  V30 2371 C 218.856 1.94419 -0.0560425 0
M  V30 2372 O 218.111 1.7182 0.936831 0
M  V30 2373 C 218.41 2.6349 -2.4147 0
M  V30 2374 C 218.076 2.30267 -3.8767 0
M  V30 2375 C 216.738 2.20918 -4.27491 0
M  V30 2376 C 219.09 2.03435 -4.79858 0
M  V30 2377 C 216.418 1.82873 -5.57471 0
M  V30 2378 C 218.77 1.66892 -6.10188 0
M  V30 2379 C 217.434 1.56058 -6.49001 0
M  V30 2380 H 216.704 0.522171 -0.525755 0
M  V30 2381 H 219.351 0.759785 -1.75783 0
M  V30 2382 H 217.656 3.35279 -2.0272 0
M  V30 2383 H 219.353 3.21684 -2.39417 0
M  V30 2384 H 215.943 2.38449 -3.56146 0
M  V30 2385 H 220.127 2.09586 -4.49875 0
M  V30 2386 H 215.383 1.7306 -5.86396 0
M  V30 2387 H 219.557 1.45157 -6.81104 0
M  V30 2388 H 217.184 1.26348 -7.49627 0
M  V30 2389 N 218.759 1.29093 0.90403 0
M  V30 2390 C 219.691 1.09658 2.01266 0
M  V30 2391 C 220.704 0.0453729 1.62737 0
M  V30 2392 O 221.893 0.289446 1.76138 0
M  V30 2393 C 218.993 0.646278 3.32681 0
M  V30 2394 C 218.166 1.77505 3.99763 0
M  V30 2395 C 217.225 1.31649 5.09465 0
M  V30 2396 O 216.251 2.02045 5.32134 0
M  V30 2397 N 217.453 0.184997 5.80205 0
M  V30 2398 H 220.218 2.05135 2.18494 0
M  V30 2399 H 217.779 1.20975 1.07594 0
M  V30 2400 H 219.771 0.322906 4.0341 0
M  V30 2401 H 218.341 -0.215916 3.11853 0
M  V30 2402 H 217.561 2.26752 3.22455 0
M  V30 2403 H 218.849 2.53198 4.41325 0
M  V30 2404 H 218.247 -0.402021 5.6427 0
M  V30 2405 H 216.804 -0.0790358 6.51752 0
M  V30 2406 N 220.237 -1.11381 1.11499 0
M  V30 2407 C 221.653 -1.35143 0.849031 0
M  V30 2408 C 221.853 -1.94515 -0.525938 0
M  V30 2409 O 220.909 -2.1785 -1.27662 0
M  V30 2410 C 222.222 -2.28249 1.95762 0
M  V30 2411 C 223.77 -2.41812 1.98736 0
M  V30 2412 C 224.245 -3.3824 3.088 0
M  V30 2413 N 225.736 -3.45803 3.08179 0
M  V30 2414 C 226.471 -4.20358 3.89982 0
M  V30 2415 N 225.967 -4.97884 4.8175 0
M  V30 2416 N 227.76 -4.15877 3.78157 0
M  V30 2417 H 219.911 -0.712062 2.00109 0
M  V30 2418 H 222.174 -0.376025 0.870235 0
M  V30 2419 H 221.88 -1.91817 2.94787 0
M  V30 2420 H 221.754 -3.28473 1.85433 0
M  V30 2421 H 224.141 -2.77518 1.00338 0
M  V30 2422 H 224.222 -1.41437 2.13141 0
M  V30 2423 H 223.866 -3.03261 4.07425 0
M  V30 2424 H 223.796 -4.38471 2.91635 0
M  V30 2425 H 226.287 -2.90506 2.41691 0
M  V30 2426 H 226.6 -5.52142 5.40702 0
M  V30 2427 H 224.945 -4.97043 4.85771 0
M  V30 2428 H 228.136 -3.544 3.05808 0
M  V30 2429 H 228.309 -4.73723 4.42143 0
M  V30 2430 N 221.715 -0.905404 -1.28997 0
M  V30 2431 C 222.645 -0.404212 -2.29975 0
M  V30 2432 C 223.626 0.523784 -1.61835 0
M  V30 2433 O 224.811 0.433298 -1.89304 0
M  V30 2434 C 221.941 0.364042 -3.45387 0
M  V30 2435 C 220.895 -0.474048 -4.25367 0
M  V30 2436 C 220.221 0.422045 -5.33032 0
M  V30 2437 C 221.521 -1.72696 -4.92923 0
M  V30 2438 H 223.215 -1.24807 -2.72146 0
M  V30 2439 H 220.761 -0.601585 -1.30832 0
M  V30 2440 H 222.714 0.725447 -4.15109 0
M  V30 2441 H 221.438 1.24174 -3.02074 0
M  V30 2442 H 220.097 -0.81786 -3.57361 0
M  V30 2443 H 219.745 1.29804 -4.85963 0
M  V30 2444 H 219.445 -0.135057 -5.87445 0
M  V30 2445 H 220.969 0.779517 -6.05604 0
M  V30 2446 H 222.383 -1.43495 -5.55051 0
M  V30 2447 H 220.78 -2.22582 -5.57295 0
M  V30 2448 H 221.85 -2.45964 -4.17887 0
M  V30 2449 N 223.193 1.4272 -0.668489 0
M  V30 2450 C 224.423 2.05668 -0.196063 0
M  V30 2451 C 224.831 1.5028 1.14946 0
M  V30 2452 O 224.174 0.6348 1.72383 0
M  V30 2453 C 224.236 3.59469 -0.0468879 0
M  V30 2454 C 223.9 4.37518 -1.32012 0
M  V30 2455 C 224.897 4.68584 -2.25222 0
M  V30 2456 C 222.582 4.77266 -1.56596 0
M  V30 2457 C 224.576 5.38326 -3.41297 0
M  V30 2458 C 222.263 5.4675 -2.72962 0
M  V30 2459 C 223.261 5.77204 -3.65137 0
M  V30 2460 O 222.949 6.45264 -4.79468 0
M  V30 2461 H 222.681 0.669382 -0.0943599 0
M  V30 2462 H 225.235 1.83954 -0.913788 0
M  V30 2463 H 223.465 3.79817 0.726357 0
M  V30 2464 H 225.154 4.04071 0.384852 0
M  V30 2465 H 225.92 4.38382 -2.07477 0
M  V30 2466 H 221.799 4.52959 -0.857249 0
M  V30 2467 H 225.343 5.62014 -4.13263 0
M  V30 2468 H 221.24 5.76369 -2.90635 0
M  V30 2469 H 222.008 6.63753 -4.78931 0
M  V30 2470 N 224.671 0.411399 1.52136 0
M  V30 2471 C 225.919 -0.163322 2.01439 0
M  V30 2472 C 226.24 -1.45453 1.29879 0
M  V30 2473 O 225.51 -1.91225 0.4254 0
M  V30 2474 H 224.09 -0.0633447 0.744309 0
M  V30 2475 H 226.752 0.548161 1.87033 0
M  V30 2476 H 225.848 -0.357817 3.10042 0
M  V30 2477 N 226.149 -1.5696 0.141893 0
M  V30 2478 C 227.56 -1.82797 -0.379776 0
M  V30 2479 C 227.911 -1.06033 -1.6508 0
M  V30 2480 O 227.036 -0.304011 -2.14254 0
M  V30 2481 C 227.631 -3.31578 -0.695802 0
M  V30 2482 C 226.19 -3.58014 -1.16201 0
M  V30 2483 C 225.337 -2.76699 -0.182455 0
M  V30 2484 H 228.288 -1.54406 0.366675 0
M  V30 2485 H 228.309 -3.47454 -1.55099 0
M  V30 2486 H 227.821 -3.87421 0.229449 0
M  V30 2487 H 225.922 -3.07553 -2.10338 0
M  V30 2488 H 226.035 -4.66501 -1.09151 0
M  V30 2489 H 224.399 -2.45618 -0.674072 0
M  V30 2490 H 225.182 -3.35311 0.736297 0
M  V30 2491 N 227.627 0.131896 -1.57047 0
M  V30 2492 C 228.559 1.1878 -1.9602 0
M  V30 2493 C 229.572 1.38363 -0.857875 0
M  V30 2494 O 230.761 1.37666 -1.13623 0
M  V30 2495 C 227.861 2.55008 -2.23213 0
M  V30 2496 C 227.034 2.56201 -3.54513 0
M  V30 2497 C 226.093 3.7408 -3.70069 0
M  V30 2498 O 225.119 3.58258 -4.42312 0
M  V30 2499 N 226.321 4.92137 -3.07866 0
M  V30 2500 H 229.086 0.85639 -2.87204 0
M  V30 2501 H 226.647 0.321309 -1.5868 0
M  V30 2502 H 228.639 3.32404 -2.30846 0
M  V30 2503 H 227.209 2.80382 -1.3822 0
M  V30 2504 H 226.429 1.64613 -3.58185 0
M  V30 2505 H 227.717 2.54043 -4.4084 0
M  V30 2506 H 227.115 5.07895 -2.49116 0
M  V30 2507 H 225.672 5.67254 -3.21039 0
M  V30 2508 N 229.106 1.52395 0.401703 0
M  V30 2509 C 230.069 1.75636 1.47257 0
M  V30 2510 C 231.069 0.62628 1.48103 0
M  V30 2511 O 232.259 0.894227 1.49497 0
M  V30 2512 C 229.391 1.84553 2.86624 0
M  V30 2513 H 230.584 2.71241 1.27938 0
M  V30 2514 H 228.137 1.42923 0.632662 0
M  V30 2515 H 228.872 0.908882 3.11303 0
M  V30 2516 H 228.657 2.66715 2.87412 0
M  V30 2517 H 230.147 2.04251 3.64241 0
M  V30 2518 N 230.584 -0.659388 1.43143 0
M  V30 2519 C 231.514 -1.78422 1.50625 0
M  V30 2520 C 232.495 -1.66216 0.361443 0
M  V30 2521 O 233.68 -1.85404 0.577834 0
M  V30 2522 C 230.81 -3.16815 1.42287 0
M  V30 2523 C 229.764 -3.43777 2.54954 0
M  V30 2524 C 229.09 -4.81905 2.31671 0
M  V30 2525 C 230.39 -3.39134 3.97222 0
M  V30 2526 H 232.084 -1.72417 2.44771 0
M  V30 2527 H 229.63 -0.828084 1.17808 0
M  V30 2528 H 231.583 -3.95253 1.46127 0
M  V30 2529 H 230.307 -3.23534 0.446435 0
M  V30 2530 H 228.966 -2.67707 2.50457 0
M  V30 2531 H 228.614 -4.85294 1.32284 0
M  V30 2532 H 228.314 -5.00906 3.07192 0
M  V30 2533 H 229.838 -5.62609 2.37284 0
M  V30 2534 H 231.252 -4.07518 4.03239 0
M  V30 2535 H 229.649 -3.69671 4.72719 0
M  V30 2536 H 230.719 -2.37426 4.22797 0
M  V30 2537 N 232.062 -1.29571 -0.897171 0
M  V30 2538 C 232.992 -1.17473 -2.01798 0
M  V30 2539 C 233.973 -0.068323 -1.69963 0
M  V30 2540 O 235.158 -0.248239 -1.92607 0
M  V30 2541 C 232.288 -0.853099 -3.36659 0
M  V30 2542 C 231.242 -1.9161 -3.82713 0
M  V30 2543 C 230.568 -1.44773 -5.14728 0
M  V30 2544 C 231.868 -3.32535 -4.02763 0
M  V30 2545 H 233.562 -2.11237 -2.12177 0
M  V30 2546 H 231.108 -1.01699 -1.01948 0
M  V30 2547 H 233.061 -0.755165 -4.14578 0
M  V30 2548 H 231.785 0.120236 -3.26379 0
M  V30 2549 H 230.444 -2.00346 -3.07013 0
M  V30 2550 H 230.092 -0.462995 -5.00865 0
M  V30 2551 H 229.792 -2.15865 -5.46513 0
M  V30 2552 H 231.316 -1.36334 -5.95185 0
M  V30 2553 H 232.73 -3.26626 -4.71156 0
M  V30 2554 H 231.127 -4.01607 -4.45905 0
M  V30 2555 H 232.197 -3.75326 -3.07016 0
M  V30 2556 N 233.54 1.10788 -1.12088 0
M  V30 2557 C 234.787 1.82671 -0.873931 0
M  V30 2558 C 235.115 1.85004 0.600311 0
M  V30 2559 O 234.37 1.30365 1.45957 0
M  V30 2560 C 234.669 3.29294 -1.38926 0
M  V30 2561 C 234.335 3.47113 -2.87791 0
M  V30 2562 C 232.997 3.51684 -3.28439 0
M  V30 2563 C 235.349 3.52808 -3.83635 0
M  V30 2564 C 232.677 3.59513 -4.63646 0
M  V30 2565 C 235.029 3.62169 -5.18668 0
M  V30 2566 C 233.693 3.65003 -5.58864 0
M  V30 2567 H 232.963 0.668441 -0.319794 0
M  V30 2568 H 235.61 1.30613 -1.40045 0
M  V30 2569 H 233.915 3.83894 -0.783122 0
M  V30 2570 H 235.612 3.83416 -1.17443 0
M  V30 2571 H 232.202 3.4423 -2.5535 0
M  V30 2572 H 236.386 3.4853 -3.53328 0
M  V30 2573 H 231.642 3.59987 -4.94185 0
M  V30 2574 H 235.816 3.6552 -5.92763 0
M  V30 2575 H 233.443 3.70822 -6.63623 0
M  V30 2576 N 235.018 0.912232 1.28515 0
M  V30 2577 C 236.243 0.559774 1.99703 0
M  V30 2578 C 236.668 -0.851393 1.67729 0
M  V30 2579 O 236.026 -1.56875 0.908834 0
M  V30 2580 C 236.074 0.773874 3.52198 0
M  V30 2581 O 235.178 -0.167842 4.12058 0
M  V30 2582 H 234.519 0.21723 0.627461 0
M  V30 2583 H 237.049 1.22725 1.63706 0
M  V30 2584 H 237.059 0.683386 4.02236 0
M  V30 2585 H 235.734 1.80261 3.74805 0
M  V30 2586 H 234.311 -0.0287509 3.72889 0
M  V30 2587 N 236.496 -1.42363 0.676048 0
M  V30 2588 C 237.426 -2.33497 0.0124832 0
M  V30 2589 C 238.407 -1.50748 -0.787981 0
M  V30 2590 O 239.592 -1.79346 -0.744884 0
M  V30 2591 C 236.722 -3.34377 -0.938582 0
M  V30 2592 C 235.676 -4.27289 -0.246622 0
M  V30 2593 C 235.002 -5.18386 -1.31071 0
M  V30 2594 C 236.302 -5.14916 0.875125 0
M  V30 2595 H 237.996 -2.89233 0.773593 0
M  V30 2596 H 235.542 -1.39073 0.37346 0
M  V30 2597 H 237.495 -3.97044 -1.41188 0
M  V30 2598 H 236.219 -2.76947 -1.73113 0
M  V30 2599 H 234.878 -3.66018 0.206456 0
M  V30 2600 H 234.526 -4.57282 -2.09528 0
M  V30 2601 H 234.226 -5.81378 -0.852839 0
M  V30 2602 H 235.75 -5.83929 -1.78492 0
M  V30 2603 H 237.164 -5.71262 0.482983 0
M  V30 2604 H 235.561 -5.86747 1.25887 0
M  V30 2605 H 236.631 -4.53242 1.72335 0
M  V30 2606 N 237.974 -0.419461 -1.51915 0
M  V30 2607 C 239.221 0.152939 -2.01922 0
M  V30 2608 C 239.549 1.4426 -1.30458 0
M  V30 2609 O 238.804 1.91514 -0.402593 0
M  V30 2610 C 239.103 0.437067 -3.54717 0
M  V30 2611 C 238.769 -0.764632 -4.44369 0
M  V30 2612 C 237.431 -1.09423 -4.68594 0
M  V30 2613 C 239.783 -1.56713 -4.97082 0
M  V30 2614 C 237.111 -2.22732 -5.42777 0
M  V30 2615 C 239.463 -2.69107 -5.72507 0
M  V30 2616 C 238.127 -3.02541 -5.95 0
M  V30 2617 H 237.397 0.0559644 -0.738884 0
M  V30 2618 H 240.044 -0.562998 -1.83037 0
M  V30 2619 H 238.349 1.23469 -3.71837 0
M  V30 2620 H 240.046 0.893083 -3.90928 0
M  V30 2621 H 236.636 -0.497775 -4.257 0
M  V30 2622 H 240.82 -1.32571 -4.78266 0
M  V30 2623 H 236.076 -2.48971 -5.58411 0
M  V30 2624 H 240.25 -3.31671 -6.12346 0
M  V30 2625 H 237.877 -3.90457 -6.52264 0
M  V30 2626 N 239.452 1.56882 -0.150215 0
M  V30 2627 C 240.698 1.97299 0.494427 0
M  V30 2628 C 241.053 1.0338 1.62266 0
M  V30 2629 O 240.346 0.0694497 1.91474 0
M  V30 2630 C 240.54 3.41801 1.04437 0
M  V30 2631 C 240.369 4.49691 -0.0290451 0
M  V30 2632 C 239.139 5.03095 -0.47156 0
M  V30 2633 C 241.337 5.07693 -0.821703 0
M  V30 2634 N 239.319 5.94593 -1.52749 0
M  V30 2635 C 240.69 5.95431 -1.72805 0
M  V30 2636 C 242.745 4.90256 -0.869134 0
M  V30 2637 C 241.448 6.67599 -2.67777 0
M  V30 2638 C 243.474 5.63127 -1.8067 0
M  V30 2639 C 242.836 6.50576 -2.70057 0
M  V30 2640 H 238.935 0.76755 0.149639 0
M  V30 2641 H 241.519 1.93145 -0.24556 0
M  V30 2642 H 239.69 3.46541 1.75396 0
M  V30 2643 H 241.422 3.69272 1.6559 0
M  V30 2644 H 238.177 4.73543 -0.0732101 0
M  V30 2645 H 238.601 6.45047 -2.05531 0
M  V30 2646 H 243.243 4.22363 -0.192134 0
M  V30 2647 H 240.961 7.34717 -3.36476 0
M  V30 2648 H 244.547 5.51629 -1.84924 0
M  V30 2649 H 243.427 7.05974 -3.41424 0
M  V30 2650 N 240.93 -0.123565 1.57115 0
M  V30 2651 C 242.341 -0.681198 1.73829 0
M  V30 2652 C 242.692 -1.80535 0.768214 0
M  V30 2653 O 241.817 -2.16317 -0.0599103 0
M  V30 2654 C 242.412 -1.24246 3.15196 0
M  V30 2655 C 240.971 -1.74643 3.33432 0
M  V30 2656 C 240.118 -0.644284 2.69711 0
M  V30 2657 H 243.069 0.102315 1.5837 0
M  V30 2658 H 243.09 -2.11216 3.16493 0
M  V30 2659 H 242.602 -0.424062 3.85776 0
M  V30 2660 H 240.703 -2.58974 2.67886 0
M  V30 2661 H 240.816 -1.85902 4.41562 0
M  V30 2662 H 239.18 -1.07676 2.3082 0
M  V30 2663 H 239.963 0.163058 3.42913 0
M  V30 2664 N 242.408 -1.52605 -0.393616 0
M  V30 2665 C 243.636 -1.71294 -1.16043 0
M  V30 2666 C 244.051 -0.429259 -1.83855 0
M  V30 2667 O 243.408 0.595921 -1.72496 0
M  V30 2668 C 243.459 -2.8593 -2.21193 0
M  V30 2669 O 243.18 -4.09329 -1.56146 0
M  V30 2670 C 244.681 -3.16259 -3.10636 0
M  V30 2671 H 241.901 -0.573641 -0.348104 0
M  V30 2672 H 244.445 -1.99234 -0.461092 0
M  V30 2673 H 242.6 -2.60465 -2.86769 0
M  V30 2674 H 243.014 -4.73323 -2.25978 0
M  V30 2675 H 244.488 -3.99946 -3.80456 0
M  V30 2676 H 244.965 -2.3045 -3.73884 0
M  V30 2677 H 245.571 -3.43547 -2.50711 0
M  V30 2678 N 243.887 0.651787 -1.4349 0
M  V30 2679 C 245.134 1.41167 -1.45183 0
M  V30 2680 C 245.462 1.94349 -0.0766601 0
M  V30 2681 O 244.717 1.72804 0.918555 0
M  V30 2682 C 245.016 2.60914 -2.44251 0
M  V30 2683 C 244.682 2.26142 -3.9009 0
M  V30 2684 C 243.344 2.16371 -4.2981 0
M  V30 2685 C 245.696 1.98334 -4.81989 0
M  V30 2686 C 243.024 1.7695 -5.5938 0
M  V30 2687 C 245.376 1.6041 -6.11924 0
M  V30 2688 C 244.04 1.49166 -6.5062 0
M  V30 2689 H 243.31 0.516566 -0.531263 0
M  V30 2690 H 245.957 0.741099 -1.76579 0
M  V30 2691 H 244.262 3.3311 -2.06265 0
M  V30 2692 H 245.959 3.19127 -2.42815 0
M  V30 2693 H 242.549 2.34658 -3.58655 0
M  V30 2694 H 246.733 2.04803 -4.52072 0
M  V30 2695 H 241.989 1.66831 -5.88198 0
M  V30 2696 H 246.163 1.37925 -6.82605 0
M  V30 2697 H 243.79 1.1839 -7.50925 0
M  V30 2698 N 245.365 1.30045 0.890287 0
M  V30 2699 C 246.295 1.18541 2.01172 0
M  V30 2700 C 247.276 0.0773356 1.69924 0
M  V30 2701 O 248.461 0.25845 1.92473 0
M  V30 2702 C 245.591 0.870941 3.36202 0
M  V30 2703 C 244.545 1.93637 3.81692 0
M  V30 2704 C 243.871 1.475 5.13953 0
M  V30 2705 C 245.171 3.34666 4.00994 0
M  V30 2706 H 246.865 2.12359 2.11054 0
M  V30 2707 H 244.411 1.02238 1.01407 0
M  V30 2708 H 246.364 0.777141 4.14172 0
M  V30 2709 H 245.088 -0.102926 3.26438 0
M  V30 2710 H 243.747 2.01972 3.05946 0
M  V30 2711 H 243.395 0.489551 5.00612 0
M  V30 2712 H 243.095 2.1876 5.4536 0
M  V30 2713 H 244.619 1.39489 5.94454 0
M  V30 2714 H 246.033 3.2912 4.69417 0
M  V30 2715 H 244.43 4.03966 4.43769 0
M  V30 2716 H 245.5 3.76949 3.05021 0
M  V30 2717 N 246.843 -1.10192 1.12674 0
M  V30 2718 C 247.773 -2.18652 0.819362 0
M  V30 2719 C 248.754 -1.68698 -0.217915 0
M  V30 2720 O 249.939 -1.94041 -0.0785581 0
M  V30 2721 C 247.069 -3.46202 0.27594 0
M  V30 2722 C 246.023 -4.09444 1.24656 0
M  V30 2723 C 245.349 -5.31725 0.563258 0
M  V30 2724 C 246.649 -4.52863 2.60217 0
M  V30 2725 H 248.343 -2.44622 1.72628 0
M  V30 2726 H 245.889 -1.17571 0.831451 0
M  V30 2727 H 247.842 -4.21372 0.0486149 0
M  V30 2728 H 246.566 -3.1973 -0.666331 0
M  V30 2729 H 245.225 -3.36284 1.45974 0
M  V30 2730 H 244.873 -5.0153 -0.384235 0
M  V30 2731 H 244.573 -5.74991 1.21075 0
M  V30 2732 H 246.097 -6.09624 0.34503 0
M  V30 2733 H 247.511 -5.19294 2.42913 0
M  V30 2734 H 245.908 -5.06986 3.21068 0
M  V30 2735 H 246.978 -3.65656 3.18471 0
M  V30 2736 N 248.321 -0.919034 -1.28029 0
M  V30 2737 C 249.549 -0.570971 -1.98866 0
M  V30 2738 C 249.964 0.848996 -1.68634 0
M  V30 2739 O 249.321 1.56307 -0.942036 0
M  V30 2740 C 249.372 -0.776876 -3.53054 0
M  V30 2741 O 249.093 -2.14097 -3.82222 0
M  V30 2742 C 250.594 -0.436356 -4.41147 0
M  V30 2743 H 247.814 -0.217175 -0.634883 0
M  V30 2744 H 250.358 -1.23368 -1.63097 0
M  V30 2745 H 248.513 -0.161085 -3.87065 0
M  V30 2746 H 248.927 -2.18455 -4.76841 0
M  V30 2747 H 250.401 -0.63117 -5.4838 0
M  V30 2748 H 250.878 0.627686 -4.34692 0
M  V30 2749 H 251.484 -1.02991 -4.12641 0
M  V30 2750 N 249.799 1.42003 -0.683588 0
M  V30 2751 C 251.047 2.01015 -0.209101 0
M  V30 2752 C 251.368 1.54365 1.19149 0
M  V30 2753 O 250.638 0.769083 1.80172 0
M  V30 2754 H 249.218 0.743294 -0.074315 0
M  V30 2755 H 251.88 1.73798 -0.882066 0
M  V30 2756 H 250.976 3.11343 -0.2172 0
M  V30 2757 N 251.277 0.427512 1.51691 0
M  V30 2758 C 252.525 -0.141948 2.01601 0
M  V30 2759 C 252.846 -1.44067 1.31414 0
M  V30 2760 O 252.116 -1.90763 0.445658 0
M  V30 2761 H 250.696 -0.0554468 0.744939 0
M  V30 2762 H 253.358 0.567968 1.86441 0
M  V30 2763 H 252.454 -0.324913 3.10404 0
M  V30 2764 N 252.755 -1.56801 0.158532 0
M  V30 2765 C 253.685 -2.20347 -0.772609 0
M  V30 2766 C 254.666 -1.15518 -1.24859 0
M  V30 2767 O 255.851 -1.43902 -1.30406 0
M  V30 2768 C 252.981 -2.83417 -2.00729 0
M  V30 2769 C 251.935 -3.94174 -1.66765 0
M  V30 2770 C 251.261 -4.44233 -2.97592 0
M  V30 2771 C 252.561 -5.14392 -0.905447 0
M  V30 2772 H 254.255 -2.98413 -0.242959 0
M  V30 2773 H 251.801 -1.43537 -0.115419 0
M  V30 2774 H 253.754 -3.26543 -2.6636 0
M  V30 2775 H 252.478 -2.02701 -2.56086 0
M  V30 2776 H 251.137 -3.51684 -1.03508 0
M  V30 2777 H 250.785 -3.60325 -3.50963 0
M  V30 2778 H 250.485 -5.18945 -2.75626 0
M  V30 2779 H 252.009 -4.90037 -3.64274 0
M  V30 2780 H 253.423 -5.5429 -1.46408 0
M  V30 2781 H 251.82 -5.9494 -0.7853 0
M  V30 2782 H 252.89 -4.84795 0.100668 0
M  V30 2783 N 254.233 0.115231 -1.57178 0
M  V30 2784 C 255.163 1.1423 -2.03651 0
M  V30 2785 C 256.144 1.42967 -0.921655 0
M  V30 2786 O 257.329 1.53343 -1.19162 0
M  V30 2787 C 254.459 2.4675 -2.44401 0
M  V30 2788 C 253.413 2.32467 -3.59365 0
M  V30 2789 C 252.739 3.69984 -3.86026 0
M  V30 2790 C 254.039 1.78203 -4.90959 0
M  V30 2791 H 255.733 0.755749 -2.89705 0
M  V30 2792 H 253.279 0.362093 -1.39373 0
M  V30 2793 H 255.232 3.18854 -2.75517 0
M  V30 2794 H 253.956 2.87302 -1.55322 0
M  V30 2795 H 252.615 1.62811 -3.28463 0
M  V30 2796 H 252.263 4.08028 -2.94147 0
M  V30 2797 H 251.963 3.61279 -4.63412 0
M  V30 2798 H 253.487 4.43587 -4.19599 0
M  V30 2799 H 254.901 2.40128 -5.20587 0
M  V30 2800 H 253.298 1.8031 -5.72371 0
M  V30 2801 H 254.368 0.739876 -4.79222 0
M  V30 2802 N 255.711 1.52812 0.385517 0
M  V30 2803 C 256.96 1.67249 1.12741 0
M  V30 2804 C 257.273 0.4205 1.91027 0
M  V30 2805 O 258.479 0.445064 2.67827 0
M  V30 2806 C 256.935 2.95583 2.05326 0
M  V30 2807 C 256.543 4.27974 1.32447 0
M  V30 2808 C 258.287 3.19386 2.7963 0
M  V30 2809 C 256.194 5.47412 2.23818 0
M  V30 2810 H 255.124 0.6231 0.424573 0
M  V30 2811 H 257.775 1.79309 0.389924 0
M  V30 2812 H 256.157 2.77277 2.82725 0
M  V30 2813 H 257.331 4.56844 0.602495 0
M  V30 2814 H 255.646 4.10459 0.700885 0
M  V30 2815 H 258.243 4.05801 3.48181 0
M  V30 2816 H 258.586 2.34604 3.43899 0
M  V30 2817 H 259.119 3.38274 2.09322 0
M  V30 2818 H 255.858 6.34612 1.64157 0
M  V30 2819 H 255.378 5.22849 2.93921 0
M  V30 2820 H 257.057 5.81423 2.83824 0
M  V30 2821 N 257.189 -0.644168 1.43834 0
M  V30 2822 C 258.438 -1.39985 1.45214 0
M  V30 2823 C 258.751 -1.95421 0.0835494 0
M  V30 2824 O 259.957 -2.71488 -0.0251748 0
M  V30 2825 C 258.413 -2.53384 2.55587 0
M  V30 2826 C 258.021 -2.04517 3.98594 0
M  V30 2827 C 259.765 -3.30685 2.66172 0
M  V30 2828 C 257.672 -3.1518 5.00416 0
M  V30 2829 H 256.602 -0.526005 0.540218 0
M  V30 2830 H 259.253 -0.694367 1.69855 0
M  V30 2831 H 257.635 -3.26446 2.24163 0
M  V30 2832 H 258.809 -1.38405 4.39523 0
M  V30 2833 H 257.124 -1.40068 3.92135 0
M  V30 2834 H 259.721 -4.13158 3.39418 0
M  V30 2835 H 260.064 -3.79312 1.71546 0
M  V30 2836 H 260.597 -2.64708 2.96942 0
M  V30 2837 H 257.336 -2.71511 5.96625 0
M  V30 2838 H 256.856 -3.79974 4.64091 0
M  V30 2839 H 258.535 -3.80166 5.23529 0
M  V30 2840 N 258.668 -1.30515 -0.883378 0
M  V30 2841 C 259.631 -1.1701 -1.97082 0
M  V30 2842 C 260.631 -0.10089 -1.60483 0
M  V30 2843 O 261.821 -0.349127 -1.70666 0
M  V30 2844 C 258.953 -0.793045 -3.31547 0
M  V30 2845 H 260.146 -2.13622 -2.10489 0
M  V30 2846 H 257.699 -1.13935 -1.06998 0
M  V30 2847 H 258.434 0.172499 -3.23841 0
M  V30 2848 H 258.219 -1.56576 -3.5948 0
M  V30 2849 H 259.709 -0.722073 -4.1131 0
M  V30 2850 N 260.146 1.09593 -1.13257 0
M  V30 2851 C 261.079 2.15451 -0.752061 0
M  V30 2852 C 262.057 1.60493 0.260913 0
M  V30 2853 O 263.241 1.8788 0.152819 0
M  V30 2854 C 260.368 3.38506 -0.114594 0
M  V30 2855 C 259.414 4.12183 -1.09579 0
M  V30 2856 S 260.247 4.6661 -2.62745 0
M  V30 2857 C 261.403 5.92966 -2.00354 0
M  V30 2858 H 261.636 2.47395 -1.64872 0
M  V30 2859 H 259.169 1.21515 -0.952545 0
M  V30 2860 H 261.127 4.09757 0.246808 0
M  V30 2861 H 259.788 3.04784 0.759309 0
M  V30 2862 H 258.981 5.00445 -0.597545 0
M  V30 2863 H 258.583 3.46785 -1.40057 0
M  V30 2864 H 260.875 6.63882 -1.35156 0
M  V30 2865 H 261.818 6.47467 -2.86691 0
M  V30 2866 H 262.226 5.45405 -1.4558 0
M  V30 2867 N 261.624 0.925811 1.2754 0
M  V30 2868 C 262.87 0.566092 1.94739 0
M  V30 2869 C 263.203 -0.890057 1.72603 0
M  V30 2870 O 262.478 -1.63467 1.05399 0
M  V30 2871 C 262.761 0.89054 3.48915 0
M  V30 2872 C 262.614 2.4003 3.80402 0
M  V30 2873 C 263.933 0.395101 4.38323 0
M  V30 2874 H 261.052 0.20714 0.707292 0
M  V30 2875 H 263.694 1.15725 1.50691 0
M  V30 2876 H 261.844 0.387452 3.86563 0
M  V30 2877 H 263.516 2.97494 3.52555 0
M  V30 2878 H 261.759 2.85028 3.2702 0
M  V30 2879 H 262.43 2.57785 4.8811 0
M  V30 2880 H 264.906 0.826241 4.07814 0
M  V30 2881 H 263.782 0.651086 5.45025 0
M  V30 2882 H 264.043 -0.704798 4.36446 0
M  V30 2883 N 263.102 -1.41638 0.69111 0
M  V30 2884 C 264.049 -2.30789 0.0229705 0
M  V30 2885 C 265.019 -1.46863 -0.775911 0
M  V30 2886 O 266.204 -1.75661 -0.74485 0
M  V30 2887 C 263.344 -3.32868 -0.910666 0
M  V30 2888 C 262.457 -4.31875 -0.103874 0
M  V30 2889 C 261.592 -5.21024 -1.03475 0
M  V30 2890 C 260.631 -6.11702 -0.220598 0
M  V30 2891 N 259.768 -6.93349 -1.10504 0
M  V30 2892 H 264.608 -2.87366 0.788978 0
M  V30 2893 H 262.145 -1.41535 0.400794 0
M  V30 2894 H 264.103 -3.90596 -1.46597 0
M  V30 2895 H 262.733 -2.77851 -1.64312 0
M  V30 2896 H 261.785 -3.76131 0.568285 0
M  V30 2897 H 263.097 -4.96003 0.527504 0
M  V30 2898 H 262.251 -5.83565 -1.65943 0
M  V30 2899 H 260.99 -4.57112 -1.69999 0
M  V30 2900 H 259.995 -5.48215 0.417187 0
M  V30 2901 H 261.22 -6.77668 0.440784 0
M  V30 2902 H 259.166 -6.3205 -1.75638 0
M  V30 2903 H 259.083 -7.54146 -0.529125 0
M  V30 2904 H 260.351 -7.60362 -1.71667 0
M  V30 2905 N 264.58 -0.43555 -1.51462 0
M  V30 2906 C 265.805 0.132627 -2.06976 0
M  V30 2907 C 266.23 1.35848 -1.30104 0
M  V30 2908 O 265.588 1.78112 -0.338493 0
M  V30 2909 C 265.636 0.43523 -3.57964 0
M  V30 2910 O 264.74 1.52198 -3.83288 0
M  V30 2911 H 264.081 0.00265 -0.663995 0
M  V30 2912 H 266.611 -0.616369 -1.95095 0
M  V30 2913 H 266.621 0.686206 -4.02188 0
M  V30 2914 H 265.296 -0.460739 -4.1334 0
M  V30 2915 H 263.873 1.2611 -3.50928 0
M  V30 2916 N 266.058 1.56714 -0.166846 0
M  V30 2917 C 267.006 2.19056 0.782123 0
M  V30 2918 C 268 1.15328 1.24079 0
M  V30 2919 O 269.206 1.33537 1.20697 0
M  V30 2920 H 265.581 0.70167 0.270486 0
M  V30 2921 H 267.552 2.97494 0.232322 0
M  V30 2922 C 266.301 2.84206 2.00306 0
M  V30 2923 H 265.624 3.63748 1.65914 0
M  V30 2924 H 267.064 3.31302 2.64604 0
M  V30 2925 C 265.523 1.83744 2.82382 0
M  V30 2926 O 266.053 1.32014 3.79388 0
M  V30 2927 N 264.259 1.52601 2.47308 0
M  V30 2928 H 263.806 1.9486 1.68485 0
M  V30 2929 H 263.764 0.856351 3.02513 0
M  V30 2930 N 267.536 -0.106894 1.57237 0
M  V30 2931 C 268.468 -1.15646 1.97885 0
M  V30 2932 C 269.481 -1.36981 0.879779 0
M  V30 2933 O 270.67 -1.35841 1.15799 0
M  V30 2934 C 267.77 -2.51425 2.27241 0
M  V30 2935 C 266.943 -2.50529 3.58545 0
M  V30 2936 C 266.002 -3.68145 3.75973 0
M  V30 2937 O 265.028 -3.51176 4.47956 0
M  V30 2938 N 266.23 -4.87177 3.15656 0
M  V30 2939 H 268.995 -0.81059 2.8853 0
M  V30 2940 H 266.556 -0.296024 1.59171 0
M  V30 2941 H 268.548 -3.28689 2.36105 0
M  V30 2942 H 267.118 -2.78147 1.42663 0
M  V30 2943 H 266.338 -1.58894 3.60758 0
M  V30 2944 H 267.626 -2.46997 4.44826 0
M  V30 2945 H 267.024 -5.03868 2.57165 0
M  V30 2946 H 265.581 -5.62075 3.30023 0
M  V30 2947 N 269.014 -1.53014 -0.377408 0
M  V30 2948 C 270.244 -1.72265 -1.14054 0
M  V30 2949 C 270.652 -0.44601 -1.83868 0
M  V30 2950 O 269.995 0.590095 -1.73964 0
M  V30 2951 C 270.057 -2.82492 -2.22348 0
M  V30 2952 C 269.721 -4.23233 -1.72402 0
M  V30 2953 C 270.718 -5.05992 -1.19448 0
M  V30 2954 C 268.403 -4.696 -1.78273 0
M  V30 2955 C 270.397 -6.33203 -0.730268 0
M  V30 2956 C 268.084 -5.96792 -1.31464 0
M  V30 2957 C 269.082 -6.78424 -0.789297 0
M  V30 2958 O 268.77 -8.0323 -0.328077 0
M  V30 2959 H 268.502 -0.579873 -0.347453 0
M  V30 2960 H 271.056 -2.00502 -0.445882 0
M  V30 2961 H 269.286 -2.49702 -2.95272 0
M  V30 2962 H 270.975 -2.90034 -2.83963 0
M  V30 2963 H 271.741 -4.71349 -1.14259 0
M  V30 2964 H 267.62 -4.06142 -2.18106 0
M  V30 2965 H 271.164 -6.96868 -0.319542 0
M  V30 2966 H 267.061 -6.30937 -1.36342 0
M  V30 2967 H 267.829 -8.1727 -0.448493 0
M  V30 2968 N 270.492 0.636531 -1.44174 0
M  V30 2969 C 271.422 1.76003 -1.53444 0
M  V30 2970 C 272.403 1.65619 -0.387841 0
M  V30 2971 O 273.588 1.84461 -0.607257 0
M  V30 2972 C 270.718 3.14511 -1.4731 0
M  V30 2973 C 269.672 3.39677 -2.60391 0
M  V30 2974 C 268.998 4.78159 -2.39308 0
M  V30 2975 C 270.298 3.32772 -4.02567 0
M  V30 2976 H 271.992 1.68501 -2.47483 0
M  V30 2977 H 269.538 0.809237 -1.19111 0
M  V30 2978 H 271.491 3.92878 -1.52397 0
M  V30 2979 H 270.215 3.22783 -0.49785 0
M  V30 2980 H 268.874 2.63688 -2.54684 0
M  V30 2981 H 268.522 4.83128 -1.39988 0
M  V30 2982 H 268.222 4.95956 -3.15122 0
M  V30 2983 H 269.746 5.58762 -2.46205 0
M  V30 2984 H 271.16 4.01051 -4.09672 0
M  V30 2985 H 269.557 3.62104 -4.7854 0
M  V30 2986 H 270.627 2.30669 -4.2652 0
M  V30 2987 N 271.97 1.30982 0.876444 0
M  V30 2988 C 273.195 1.23373 1.66715 0
M  V30 2989 C 273.62 -0.19885 1.87046 0
M  V30 2990 O 272.978 -1.1427 1.40756 0
M  V30 2991 C 273.026 1.97644 3.01611 0
M  V30 2992 O 272.13 1.30935 3.91062 0
M  V30 2993 H 271.471 0.426279 0.509099 0
M  V30 2994 H 274.001 1.72944 1.09323 0
M  V30 2995 H 274.011 2.06992 3.51594 0
M  V30 2996 H 272.686 3.01829 2.86133 0
M  V30 2997 H 271.263 1.29996 3.49507 0
M  V30 2998 N 273.449 -1.08991 1.13837 0
M  V30 2999 C 274.698 -1.80631 0.897509 0
M  V30 3000 C 275.011 -1.86872 -0.57777 0
M  V30 3001 O 276.217 -2.54866 -0.935701 0
M  V30 3002 C 274.673 -3.24517 1.55618 0
M  V30 3003 C 274.281 -3.26529 3.0673 0
M  V30 3004 C 276.025 -4.00882 1.3962 0
M  V30 3005 C 273.932 -4.64965 3.65461 0
M  V30 3006 H 272.862 -0.67691 0.332129 0
M  V30 3007 H 275.513 -1.2246 1.3666 0
M  V30 3008 H 273.895 -3.82778 1.01476 0
M  V30 3009 H 275.069 -2.78008 3.67489 0
M  V30 3010 H 273.384 -2.63656 3.22296 0
M  V30 3011 H 275.981 -5.03167 1.80906 0
M  V30 3012 H 276.324 -4.14896 0.341578 0
M  V30 3013 H 276.857 -3.49075 1.90766 0
M  V30 3014 H 273.596 -4.56153 4.70749 0
M  V30 3015 H 273.116 -5.13792 3.09481 0
M  V30 3016 H 274.795 -5.3394 3.654 0
M  V30 3017 N 274.927 -0.932562 -1.27047 0
M  V30 3018 C 275.857 -0.452902 -2.29066 0
M  V30 3019 C 276.838 0.489338 -1.62909 0
M  V30 3020 O 278.023 0.393046 -1.90181 0
M  V30 3021 C 275.153 0.290698 -3.46081 0
M  V30 3022 C 274.107 -0.564168 -4.24265 0
M  V30 3023 C 273.433 0.308886 -5.33807 0
M  V30 3024 C 274.733 -1.83112 -4.89149 0
M  V30 3025 H 276.427 -1.30552 -2.69437 0
M  V30 3026 H 273.973 -0.629201 -1.29526 0
M  V30 3027 H 275.926 0.637233 -4.16554 0
M  V30 3028 H 274.65 1.17738 -3.0464 0
M  V30 3029 H 273.309 -0.893477 -3.55545 0
M  V30 3030 H 272.957 1.19467 -4.88607 0
M  V30 3031 H 272.657 -0.259633 -5.87026 0
M  V30 3032 H 274.181 0.650884 -6.07121 0
M  V30 3033 H 275.595 -1.55236 -5.51883 0
M  V30 3034 H 273.992 -2.34353 -5.52448 0
M  V30 3035 H 275.062 -2.54772 -4.12576 0
M  V30 3036 N 276.405 1.4127 -0.698611 0
M  V30 3037 C 277.368 2.29158 -0.044132 0
M  V30 3038 C 278.368 1.44529 0.704841 0
M  V30 3039 O 279.558 1.65643 0.539276 0
M  V30 3040 C 276.69 3.27459 0.947809 0
M  V30 3041 H 277.883 2.88529 -0.817994 0
M  V30 3042 H 275.436 1.49307 -0.46228 0
M  V30 3043 H 276.171 2.73073 1.74933 0
M  V30 3044 H 275.956 3.8991 0.41385 0
M  V30 3045 H 277.446 3.93311 1.40344 0
M  V30 3046 N 277.883 0.443576 1.51229 0
M  V30 3047 C 278.846 -0.353132 2.26463 0
M  V30 3048 C 279.846 -0.944338 1.3015 0
M  V30 3049 O 281.036 -0.817813 1.5381 0
M  V30 3050 C 278.168 -1.50023 3.06114 0
M  V30 3051 H 279.361 0.3063 2.98332 0
M  V30 3052 H 276.914 0.196902 1.55055 0
M  V30 3053 H 277.649 -2.19553 2.38677 0
M  V30 3054 H 277.434 -1.08241 3.76864 0
M  V30 3055 H 278.924 -2.06296 3.63087 0
M  V30 3056 N 279.361 -1.56624 0.175154 0
M  V30 3057 C 280.293 -2.15333 -0.785128 0
M  V30 3058 C 281.306 -1.1099 -1.19101 0
M  V30 3059 O 282.495 -1.38162 -1.13019 0
M  V30 3060 C 279.595 -2.68427 -2.06882 0
M  V30 3061 C 278.768 -3.97466 -1.8259 0
M  V30 3062 C 277.827 -4.35585 -2.95215 0
M  V30 3063 O 276.853 -5.03389 -2.65684 0
M  V30 3064 N 278.055 -3.97457 -4.23094 0
M  V30 3065 H 280.82 -2.98359 -0.283187 0
M  V30 3066 H 278.381 -1.61898 -0.00749817 0
M  V30 3067 H 280.373 -2.90924 -2.81328 0
M  V30 3068 H 278.943 -1.89968 -2.48256 0
M  V30 3069 H 278.163 -3.83307 -0.920287 0
M  V30 3070 H 279.451 -4.81736 -1.63733 0
M  V30 3071 H 278.849 -3.42878 -4.49945 0
M  V30 3072 H 277.406 -4.24947 -4.9423 0
M  V30 3073 N 280.839 0.0985539 -1.57292 0
M  V30 3074 C 281.786 1.11981 -2.01814 0
M  V30 3075 C 282.756 1.39999 -0.89384 0
M  V30 3076 O 283.941 1.5152 -1.15958 0
M  V30 3077 C 281.081 2.43577 -2.44467 0
M  V30 3078 C 280.194 2.2232 -3.70402 0
M  V30 3079 C 279.329 3.4729 -4.01949 0
M  V30 3080 C 278.368 3.2128 -5.21005 0
M  V30 3081 N 277.505 4.38507 -5.48321 0
M  V30 3082 H 282.345 0.733149 -2.88841 0
M  V30 3083 H 279.882 0.350482 -1.42864 0
M  V30 3084 H 281.84 3.20373 -2.6724 0
M  V30 3085 H 280.47 2.80097 -1.60455 0
M  V30 3086 H 279.522 1.36343 -3.55126 0
M  V30 3087 H 280.834 1.99089 -4.57345 0
M  V30 3088 H 279.988 4.32495 -4.25479 0
M  V30 3089 H 278.727 3.73572 -3.13521 0
M  V30 3090 H 277.732 2.34468 -4.97298 0
M  V30 3091 H 278.957 2.96348 -6.11028 0
M  V30 3092 H 276.903 4.64871 -4.62851 0
M  V30 3093 H 276.82 4.18455 -6.29628 0
M  V30 3094 H 278.088 5.24787 -5.76385 0
M  V30 3095 O 282.356 1.59668 0.242586 0
M  V30 3096 H 283.047 1.72276 0.885483 0
M  V30 END ATOM
M  V30 BEGIN BOND
M  V30 END BOND
M  V30 END CTAB
M  END
$$$$
