drugbank_target|Q16518 Retinoid isomerohydrolase (DB13932)
 OpenBabel12092121093D

  0  0  0     0  0            999 V3000
M  V30 BEGIN CTAB
M  V30 COUNTS 8522 8651 0 0 0
M  V30 BEGIN ATOM
M  V30 1 H -0.908 1.98254 -0.117106 0
M  V30 2 N 0 1.576 0 0
M  V30 3 C 0.933 2.03868 1.02534 0
M  V30 4 C 1.911 0.928543 1.3348 0
M  V30 5 O 3.095 1.19667 1.45644 0
M  V30 6 C 0.222 2.43627 2.35294 0
M  V30 7 C -0.732 3.65373 2.2001 0
M  V30 8 S 0.101 5.13292 1.52614 0
M  V30 9 C 1.257 5.56322 2.86805 0
M  V30 10 H 1.49 2.90518 0.631377 0
M  V30 11 H -0.977 1.52953 0.210867 0
M  V30 12 H 0.981 2.67203 3.11629 0
M  V30 13 H -0.358 1.57376 2.7183 0
M  V30 14 H -1.165 3.90944 3.18086 0
M  V30 15 H -1.563 3.418 1.51819 0
M  V30 16 H 0.729 5.58782 3.83104 0
M  V30 17 H 1.672 6.56266 2.65933 0
M  V30 18 H 2.08 4.83886 2.90714 0
M  V30 19 N 1.4781 -0.272755 1.55222 0
M  V30 20 C 2.7031 -1.02683 1.80197 0
M  V30 21 C 3.1281 -1.79142 0.573551 0
M  V30 22 O 2.4861 -1.74917 -0.476849 0
M  V30 23 C 2.5341 -1.9609 3.02624 0
M  V30 24 O 1.6381 -3.04863 2.77727 0
M  V30 25 H 0.9791 -0.293557 0.595584 0
M  V30 26 H 3.5091 -0.30159 2.02365 0
M  V30 27 H 3.5191 -2.38039 3.31363 0
M  V30 28 H 2.1941 -1.39851 3.91682 0
M  V30 29 H 0.7711 -2.67228 2.60084 0
M  V30 30 N 2.9562 -1.48159 -0.537278 0
M  V30 31 C 4.2052 -1.5506 -1.28993 0
M  V30 32 C 4.5182 -0.226211 -1.94288 0
M  V30 33 O 5.7242 -0.173395 -2.70946 0
M  V30 34 C 4.1802 -2.73429 -2.34018 0
M  V30 35 C 3.7882 -4.1248 -1.74825 0
M  V30 36 C 5.5322 -2.89638 -3.10339 0
M  V30 37 C 3.4392 -5.22121 -2.77747 0
M  V30 38 H 2.3692 -0.577231 -0.485098 0
M  V30 39 H 5.0202 -1.74478 -0.568317 0
M  V30 40 H 3.4022 -2.47431 -3.09182 0
M  V30 41 H 4.5762 -4.48466 -1.05899 0
M  V30 42 H 2.8912 -4.01327 -1.11022 0
M  V30 43 H 5.4882 -3.68718 -3.87235 0
M  V30 44 H 5.8312 -1.9882 -3.65754 0
M  V30 45 H 6.3642 -3.15502 -2.42288 0
M  V30 46 H 3.1032 -6.1488 -2.27161 0
M  V30 47 H 2.6232 -4.90631 -3.45024 0
M  V30 48 H 4.3022 -5.49924 -3.4087 0
M  V30 49 N 4.4343 0.785586 -1.36625 0
M  V30 50 C 5.3663 1.90711 -1.2713 0
M  V30 51 C 6.3793 1.61688 -0.189986 0
M  V30 52 O 7.5683 1.72864 -0.445014 0
M  V30 53 C 4.6683 3.25611 -0.939713 0
M  V30 54 C 3.8413 3.82385 -2.12369 0
M  V30 55 C 2.9003 4.95732 -1.76456 0
M  V30 56 O 1.9263 5.12047 -2.48589 0
M  V30 57 N 3.1283 5.76258 -0.700492 0
M  V30 58 H 5.8933 1.99376 -2.23762 0
M  V30 59 H 3.4543 0.964041 -1.30069 0
M  V30 60 H 5.4463 3.98937 -0.680554 0
M  V30 61 H 4.0163 3.12538 -0.0624074 0
M  V30 62 H 3.2363 3.01001 -2.54543 0
M  V30 63 H 4.5243 4.17047 -2.9146 0
M  V30 64 H 3.9223 5.65609 -0.101624 0
M  V30 65 H 2.4793 6.4987 -0.501165 0
M  V30 66 N 5.9124 1.20967 1.01018 0
M  V30 67 C 7.1584 1.02526 1.74975 0
M  V30 68 C 7.4914 -0.4408 1.89131 0
M  V30 69 O 6.7664 -1.32718 1.42184 0
M  V30 70 C 7.0494 1.71699 3.1653 0
M  V30 71 C 6.9024 3.25791 3.10129 0
M  V30 72 C 8.2214 1.45531 4.15342 0
M  V30 73 H 5.3404 0.373863 0.635134 0
M  V30 74 H 7.9824 1.49071 1.17805 0
M  V30 75 H 6.1324 1.32128 3.65341 0
M  V30 76 H 7.8044 3.74697 2.69072 0
M  V30 77 H 6.0474 3.56363 2.47362 0
M  V30 78 H 6.7184 3.69353 4.10222 0
M  V30 79 H 9.1944 1.79872 3.75213 0
M  V30 80 H 8.0704 1.96453 5.1254 0
M  V30 81 H 8.3314 0.384237 4.40427 0
M  V30 82 N 7.3905 -1.2043 1.01659 0
M  V30 83 C 8.3005 -2.2689 0.596484 0
M  V30 84 C 9.3165 -1.70107 -0.36599 0
M  V30 85 O 10.4925 -2.00117 -0.226942 0
M  V30 86 C 7.5575 -3.4665 -0.0586659 0
M  V30 87 C 6.6185 -4.18662 0.949751 0
M  V30 88 C 5.8515 -5.32705 0.32577 0
M  V30 89 O 6.0745 -5.63656 -0.874509 0
M  V30 90 O 5.0085 -5.92803 1.04249 0
M  V30 91 H 8.8345 -2.65041 1.4828 0
M  V30 92 H 6.4195 -1.27048 0.786082 0
M  V30 93 H 8.3015 -4.19256 -0.424564 0
M  V30 94 H 6.9765 -3.10375 -0.91918 0
M  V30 95 H 5.8835 -3.48229 1.36702 0
M  V30 96 H 7.2165 -4.58878 1.78023 0
M  V30 97 N 8.8686 -0.792821 -1.36206 0
M  V30 98 C 9.8186 -0.166598 -2.27391 0
M  V30 99 C 10.8026 0.651479 -1.47121 0
M  V30 100 O 11.9946 0.510994 -1.69463 0
M  V30 101 C 9.1236 0.695033 -3.36191 0
M  V30 102 C 8.2096 -0.132019 -4.23894 0
M  V30 103 N 8.6006 -1.18822 -4.91645 0
M  V30 104 C 6.8986 0.0885952 -4.45912 0
M  V30 105 C 7.5996 -1.69198 -5.56549 0
M  V30 106 N 6.5756 -1.00065 -5.34311 0
M  V30 107 H 10.3776 -0.974947 -2.77258 0
M  V30 108 H 7.8916 -0.632616 -1.49572 0
M  V30 109 H 9.8886 1.1596 -4.00448 0
M  V30 110 H 8.5486 1.50189 -2.87877 0
M  V30 111 H 9.5596 -1.57069 -4.93507 0
M  V30 112 H 6.2366 0.865688 -4.08426 0
M  V30 113 H 7.6266 -2.57395 -6.20643 0
M  V30 114 N 10.3467 1.47872 -0.545128 0
M  V30 115 C 11.7577 1.86384 -0.108581 0
M  V30 116 C 12.1087 1.45309 1.31832 0
M  V30 117 O 11.2337 0.850641 1.9898 0
M  V30 118 C 11.8287 3.38265 -0.190274 0
M  V30 119 C 10.3877 3.75914 0.191164 0
M  V30 120 C 9.5347 2.71926 -0.543273 0
M  V30 121 H 12.4857 1.39561 -0.755537 0
M  V30 122 H 12.5067 3.75831 0.594217 0
M  V30 123 H 12.0187 3.6813 -1.2289 0
M  V30 124 H 10.1197 3.51665 1.23136 0
M  V30 125 H 10.2327 4.78836 -0.158987 0
M  V30 126 H 8.5967 2.54697 0.0122495 0
M  V30 127 H 9.3797 3.04634 -1.58282 0
M  V30 128 N 11.8248 0.280983 1.55075 0
M  V30 129 C 12.7878 -0.590896 2.21452 0
M  V30 130 C 13.7878 -1.07682 1.19421 0
M  V30 131 O 14.9778 -0.97605 1.44288 0
M  V30 132 C 12.1098 -1.81587 2.88511 0
M  V30 133 H 13.3028 -0.0112554 2.99898 0
M  V30 134 H 10.8558 0.0316438 1.56268 0
M  V30 135 H 11.5908 -2.43587 2.14093 0
M  V30 136 H 11.3758 -1.4753 3.63287 0
M  V30 137 H 12.8658 -2.43575 3.39206 0
M  V30 138 N 13.3029 -1.57598 0.00835791 0
M  V30 139 C 14.5509 -1.90551 -0.6734 0
M  V30 140 C 14.8719 -0.883301 -1.73847 0
M  V30 141 O 14.1419 0.0781442 -1.95744 0
M  V30 142 H 12.7219 -0.703312 -0.251717 0
M  V30 143 H 15.3839 -1.94833 0.0512592 0
M  V30 144 H 14.4799 -2.9056 -1.13935 0
M  V30 145 N 14.781 0.264519 -1.55364 0
M  V30 146 C 16.029 0.993021 -1.76021 0
M  V30 147 C 16.35 1.86511 -0.569099 0
M  V30 148 O 15.62 1.91438 0.415735 0
M  V30 149 H 14.2 0.369639 -0.649135 0
M  V30 150 H 16.862 0.286707 -1.9278 0
M  V30 151 H 15.958 1.62502 -2.66457 0
M  V30 152 N 16.2591 1.48442 0.529413 0
M  V30 153 C 17.4891 1.59919 1.30804 0
M  V30 154 C 17.8971 0.258792 1.87422 0
M  V30 155 O 17.2401 -0.762096 1.67146 0
M  V30 156 C 17.3021 2.58693 2.49636 0
M  V30 157 C 16.9661 4.03745 2.14101 0
M  V30 158 C 17.9631 4.9141 1.6974 0
M  V30 159 C 15.6481 4.49285 2.24607 0
M  V30 160 C 17.6421 6.22645 1.36351 0
M  V30 161 C 15.3291 5.8054 1.9083 0
M  V30 162 C 16.3271 6.67043 1.46773 0
M  V30 163 O 16.0151 7.95856 1.1344 0
M  V30 164 H 15.7471 0.541981 0.404021 0
M  V30 165 H 18.3011 1.95 0.645309 0
M  V30 166 H 16.5311 2.18734 3.18892 0
M  V30 167 H 18.2201 2.59999 3.11698 0
M  V30 168 H 18.9861 4.57465 1.61094 0
M  V30 169 H 14.8651 3.82142 2.57854 0
M  V30 170 H 18.4091 6.90119 1.01891 0
M  V30 171 H 14.3061 6.14022 1.99117 0
M  V30 172 H 15.0741 8.08613 1.26832 0
M  V30 173 N 17.7372 -0.778329 1.37039 0
M  V30 174 C 18.6842 -1.89139 1.32269 0
M  V30 175 C 19.6542 -1.65017 0.189387 0
M  V30 176 O 20.8392 -1.87024 0.377693 0
M  V30 177 C 17.9792 -3.26112 1.12894 0
M  V30 178 C 17.0922 -3.62233 2.35396 0
M  V30 179 C 16.2272 -4.8838 2.08946 0
M  V30 180 C 15.2662 -5.17212 3.2735 0
M  V30 181 N 14.4032 -6.34546 3.00492 0
M  V30 182 H 19.2432 -1.92552 2.27437 0
M  V30 183 H 16.7802 -0.941473 1.13025 0
M  V30 184 H 18.7382 -4.05116 0.996835 0
M  V30 185 H 17.3682 -3.22091 0.213758 0
M  V30 186 H 16.4202 -2.78265 2.5937 0
M  V30 187 H 17.7322 -3.79481 3.23721 0
M  V30 188 H 16.8862 -5.75274 1.92729 0
M  V30 189 H 15.6252 -4.73222 1.17949 0
M  V30 190 H 14.6302 -4.28796 3.44113 0
M  V30 191 H 15.8552 -5.34283 4.19188 0
M  V30 192 H 13.8012 -6.20759 2.12118 0
M  V30 193 H 13.7182 -6.52179 3.82358 0
M  V30 194 H 14.9862 -7.24394 2.87879 0
M  V30 195 N 19.2153 -1.21501 -1.00376 0
M  V30 196 C 20.1623 -0.975387 -2.09177 0
M  V30 197 C 21.1323 0.0990615 -1.65804 0
M  V30 198 O 22.3173 -0.0483147 -1.90739 0
M  V30 199 C 19.4573 -0.547507 -3.40729 0
M  V30 200 C 18.5703 -1.69153 -3.97506 0
M  V30 201 C 17.7053 -1.2127 -5.17172 0
M  V30 202 C 16.7443 -2.32897 -5.66061 0
M  V30 203 N 15.8813 -1.86138 -6.76976 0
M  V30 204 H 20.7213 -1.9068 -2.29009 0
M  V30 205 H 18.2583 -0.950257 -1.12288 0
M  V30 206 H 20.2163 -0.280667 -4.16255 0
M  V30 207 H 18.8463 0.346904 -3.20931 0
M  V30 208 H 17.8983 -2.07298 -3.18954 0
M  V30 209 H 19.2103 -2.5316 -4.29781 0
M  V30 210 H 18.3643 -0.902591 -5.99948 0
M  V30 211 H 17.1033 -0.342692 -4.86495 0
M  V30 212 H 16.1083 -2.64709 -4.81881 0
M  V30 213 H 17.3333 -3.20396 -5.98768 0
M  V30 214 H 15.2793 -1.01484 -6.48103 0
M  V30 215 H 15.1963 -2.63717 -7.08512 0
M  V30 216 H 16.4643 -1.58165 -7.63285 0
M  V30 217 N 20.6934 1.19889 -1.02296 0
M  V30 218 C 21.6234 2.25141 -0.619174 0
M  V30 219 C 22.6044 1.66051 0.368915 0
M  V30 220 O 23.7894 1.92546 0.252941 0
M  V30 221 C 20.9194 3.4728 0.0368783 0
M  V30 222 C 19.8734 4.19005 -0.872865 0
M  V30 223 C 19.1994 5.34637 -0.0822402 0
M  V30 224 C 20.4994 4.74452 -2.18387 0
M  V30 225 H 22.1934 2.59171 -1.49903 0
M  V30 226 H 19.7394 1.24579 -0.722222 0
M  V30 227 H 21.6924 4.20098 0.330958 0
M  V30 228 H 20.4164 3.12433 0.95149 0
M  V30 229 H 19.0754 3.48061 -1.15105 0
M  V30 230 H 18.7234 4.96034 0.83422 0
M  V30 231 H 18.4234 5.83557 -0.688149 0
M  V30 232 H 19.9474 6.10255 0.205238 0
M  V30 233 H 21.3614 5.39055 -1.95172 0
M  V30 234 H 19.7584 5.33834 -2.74119 0
M  V30 235 H 20.8284 3.92844 -2.84257 0
M  V30 236 N 22.1715 0.800033 1.35784 0
M  V30 237 C 23.4185 0.377342 1.98953 0
M  V30 238 C 23.7465 -1.05378 1.6348 0
M  V30 239 O 23.0015 -1.74459 0.886707 0
M  V30 240 C 23.3005 0.500276 3.53881 0
M  V30 241 C 22.9665 1.89375 4.09204 0
M  V30 242 C 21.6285 2.27499 4.24025 0
M  V30 243 C 23.9805 2.8057 4.39238 0
M  V30 244 C 21.3085 3.562 4.66195 0
M  V30 245 C 23.6605 4.0871 4.82844 0
M  V30 246 C 22.3245 4.46843 4.95871 0
M  V30 247 H 21.5945 0.138079 0.728021 0
M  V30 248 H 24.2415 1.01955 1.62103 0
M  V30 249 H 22.5465 -0.225405 3.91151 0
M  V30 250 H 24.2435 0.154097 4.00704 0
M  V30 251 H 20.8335 1.58753 3.98115 0
M  V30 252 H 25.0175 2.52367 4.27346 0
M  V30 253 H 20.2735 3.85602 4.74469 0
M  V30 254 H 24.4475 4.79481 5.05046 0
M  V30 255 H 22.0745 5.46623 5.28306 0
M  V30 256 N 23.6496 -1.47581 0.552962 0
M  V30 257 C 24.5596 -2.33743 -0.200353 0
M  V30 258 C 25.5756 -1.47928 -0.916151 0
M  V30 259 O 26.7516 -1.80865 -0.885993 0
M  V30 260 C 23.8166 -3.24536 -1.21973 0
M  V30 261 C 22.8776 -4.26238 -0.511819 0
M  V30 262 C 22.1106 -5.12693 -1.48263 0
M  V30 263 O 22.3336 -5.01525 -2.71714 0
M  V30 264 O 21.2676 -5.93375 -1.00945 0
M  V30 265 H 25.0936 -2.9945 0.506304 0
M  V30 266 H 22.6786 -1.46071 0.313622 0
M  V30 267 H 24.5606 -3.80631 -1.80827 0
M  V30 268 H 23.2356 -2.61462 -1.90839 0
M  V30 269 H 22.1426 -3.73914 0.117799 0
M  V30 270 H 23.4756 -4.92014 0.135308 0
M  V30 271 N 25.1277 -0.289203 -1.54924 0
M  V30 272 C 26.3557 0.326463 -2.04308 0
M  V30 273 C 26.7707 1.48413 -1.16701 0
M  V30 274 O 26.1277 1.81507 -0.190087 0
M  V30 275 C 26.1787 0.794014 -3.52672 0
M  V30 276 O 25.8997 -0.317564 -4.36948 0
M  V30 277 C 27.4007 1.47605 -4.18004 0
M  V30 278 H 24.6207 0.0726272 -0.667058 0
M  V30 279 H 27.1647 -0.425401 -2.00026 0
M  V30 280 H 25.3197 1.49593 -3.57352 0
M  V30 281 H 25.7337 0.0443186 -5.24481 0
M  V30 282 H 27.2077 1.75447 -5.23376 0
M  V30 283 H 27.6847 2.41224 -3.67025 0
M  V30 284 H 28.2907 0.81762 -4.17367 0
M  V30 285 N 26.6058 1.57591 -0.0167156 0
M  V30 286 C 27.8518 1.91567 0.665582 0
M  V30 287 C 28.1848 0.892298 1.72487 0
M  V30 288 O 27.4598 -0.0867127 1.94307 0
M  V30 289 C 27.7428 3.36069 1.29342 0
M  V30 290 C 27.5958 4.49135 0.244541 0
M  V30 291 C 28.9148 3.803 2.21495 0
M  V30 292 H 26.0338 0.69666 0.240488 0
M  V30 293 H 28.6758 1.89866 -0.0714356 0
M  V30 294 H 26.8258 3.3765 1.92158 0
M  V30 295 H 28.4978 4.59689 -0.385228 0
M  V30 296 H 26.7408 4.3165 -0.431379 0
M  V30 297 H 27.4118 5.47242 0.723207 0
M  V30 298 H 29.8878 3.80377 1.68678 0
M  V30 299 H 28.7638 4.82127 2.62382 0
M  V30 300 H 29.0248 3.15104 3.101 0
M  V30 301 N 28.0839 -0.256276 1.55502 0
M  V30 302 C 28.9939 -1.33882 1.92647 0
M  V30 303 C 30.0099 -1.53159 0.825727 0
M  V30 304 O 31.1859 -1.66963 1.12629 0
M  V30 305 C 28.2509 -2.6751 2.20543 0
M  V30 306 C 27.3119 -2.56836 3.43997 0
M  V30 307 C 26.5449 -3.84092 3.70553 0
M  V30 308 O 26.7679 -4.85545 2.99336 0
M  V30 309 O 25.7019 -3.83288 4.64084 0
M  V30 310 H 29.5279 -1.05374 2.84833 0
M  V30 311 H 27.1129 -0.456237 1.42263 0
M  V30 312 H 28.9949 -3.46492 2.39835 0
M  V30 313 H 27.6699 -2.9577 1.31536 0
M  V30 314 H 26.5769 -1.76172 3.30021 0
M  V30 315 H 27.9099 -2.33523 4.33275 0
M  V30 316 N 29.562 -1.4872 -0.521534 0
M  V30 317 C 30.472 -1.66569 -1.65203 0
M  V30 318 C 31.488 -0.548197 -1.65139 0
M  V30 319 O 32.664 -0.820339 -1.83936 0
M  V30 320 C 29.729 -1.70917 -3.01642 0
M  V30 321 C 28.79 -2.94356 -3.12495 0
M  V30 322 C 28.023 -2.98487 -4.42426 0
M  V30 323 O 28.246 -2.10786 -5.30024 0
M  V30 324 O 27.18 -3.90746 -4.57822 0
M  V30 325 H 31.006 -2.62298 -1.5308 0
M  V30 326 H 28.591 -1.3222 -0.695565 0
M  V30 327 H 30.473 -1.7625 -3.82771 0
M  V30 328 H 29.148 -0.783633 -3.14071 0
M  V30 329 H 28.055 -2.94552 -2.3063 0
M  V30 330 H 29.388 -3.86322 -3.04986 0
M  V30 331 N 31.0401 0.771051 -1.3745 0
M  V30 332 C 31.9701 1.89827 -1.3597 0
M  V30 333 C 32.9511 1.68562 -0.228216 0
M  V30 334 O 34.1361 1.8941 -0.428675 0
M  V30 335 C 31.2661 3.2712 -1.16662 0
M  V30 336 C 30.2201 3.6295 -2.2683 0
M  V30 337 C 29.5461 4.98791 -1.92644 0
M  V30 338 C 30.8461 3.69627 -3.69017 0
M  V30 339 H 32.5401 1.91323 -2.30295 0
M  V30 340 H 30.0861 0.919082 -1.10855 0
M  V30 341 H 32.0391 4.05615 -1.14256 0
M  V30 342 H 30.7631 3.26059 -0.187926 0
M  V30 343 H 29.4221 2.86763 -2.28392 0
M  V30 344 H 29.0701 4.94271 -0.933021 0
M  V30 345 H 28.7701 5.23733 -2.66416 0
M  V30 346 H 30.2941 5.79685 -1.91826 0
M  V30 347 H 31.7081 4.38273 -3.69581 0
M  V30 348 H 30.1051 4.06067 -4.41848 0
M  V30 349 H 31.1751 2.70273 -4.02592 0
M  V30 350 N 32.5182 1.22032 0.997298 0
M  V30 351 C 33.7432 1.06921 1.77715 0
M  V30 352 C 34.1682 -0.376226 1.84299 0
M  V30 353 O 33.5262 -1.27165 1.29223 0
M  V30 354 C 33.5742 1.67996 3.19076 0
M  V30 355 O 32.6782 0.930653 4.01762 0
M  V30 356 H 32.0192 0.375814 0.547412 0
M  V30 357 H 34.5492 1.61737 1.25309 0
M  V30 358 H 34.5592 1.72538 3.69723 0
M  V30 359 H 33.2342 2.73182 3.13599 0
M  V30 360 H 31.8112 0.960917 3.60307 0
M  V30 361 N 33.9963 -1.19345 1.0293 0
M  V30 362 C 35.2213 -1.93538 0.745511 0
M  V30 363 C 35.6463 -1.75007 -0.689511 0
M  V30 364 O 35.0043 -1.05265 -1.47611 0
M  V30 365 C 35.0523 -3.43336 1.10239 0
M  V30 366 O 34.1563 -4.11806 0.221289 0
M  V30 367 H 33.4973 -0.604193 0.275404 0
M  V30 368 H 36.0273 -1.5141 1.37609 0
M  V30 369 H 36.0373 -3.94004 1.05947 0
M  V30 370 H 34.7123 -3.56146 2.14786 0
M  V30 371 H 33.2893 -3.715 0.322842 0
M  V30 372 N 35.4744 -0.807222 -1.35358 0
M  V30 373 C 36.8854 -0.44876 -1.81226 0
M  V30 374 C 37.2364 1.02929 -1.67033 0
M  V30 375 O 36.3614 1.79991 -1.20133 0
M  V30 376 C 36.9564 -0.807774 -3.2903 0
M  V30 377 C 35.5154 -0.501901 -3.73039 0
M  V30 378 C 34.6624 -1.03304 -2.57339 0
M  V30 379 H 37.6134 -0.998808 -1.23327 0
M  V30 380 H 37.6344 -0.10554 -3.80354 0
M  V30 381 H 37.1464 -1.88357 -3.39328 0
M  V30 382 H 35.2474 0.565128 -3.68289 0
M  V30 383 H 35.3604 -1.03497 -4.67787 0
M  V30 384 H 33.7244 -0.455339 -2.50597 0
M  V30 385 H 34.5074 -2.11496 -2.70415 0
M  V30 386 N 36.9525 1.47285 -0.560781 0
M  V30 387 C 37.8825 2.32857 0.173105 0
M  V30 388 C 38.8635 1.44009 0.905281 0
M  V30 389 O 40.0485 1.7286 0.885046 0
M  V30 390 C 37.1785 3.25861 1.20133 0
M  V30 391 C 36.1325 4.23978 0.585388 0
M  V30 392 C 35.4585 5.06332 1.7185 0
M  V30 393 C 36.7585 5.20242 -0.463178 0
M  V30 394 H 38.4525 2.94466 -0.541307 0
M  V30 395 H 35.9985 1.41601 -0.261764 0
M  V30 396 H 37.9515 3.84569 1.72293 0
M  V30 397 H 36.6755 2.62315 1.94573 0
M  V30 398 H 35.3345 3.66501 0.085054 0
M  V30 399 H 34.9825 4.39186 2.45203 0
M  V30 400 H 34.6825 5.72762 1.31213 0
M  V30 401 H 36.2065 5.67899 2.24329 0
M  V30 402 H 37.6205 5.73293 -0.027502 0
M  V30 403 H 36.0175 5.94896 -0.788627 0
M  V30 404 H 37.0875 4.65504 -1.35773 0
M  V30 405 N 38.4306 0.297415 1.54768 0
M  V30 406 C 39.6586 -0.315623 2.04478 0
M  V30 407 C 40.0736 -1.47792 1.17486 0
M  V30 408 O 39.4306 -1.81404 0.19971 0
M  V30 409 C 39.4816 -0.7753 3.53088 0
M  V30 410 O 39.2026 0.340732 4.36773 0
M  V30 411 C 40.7036 -1.45386 4.18781 0
M  V30 412 H 37.9236 -0.0690887 0.667434 0
M  V30 413 H 40.4676 0.436003 1.99798 0
M  V30 414 H 38.6226 -1.47696 3.58141 0
M  V30 415 H 39.0366 -0.0165035 5.24497 0
M  V30 416 H 40.5106 -1.72669 5.24299 0
M  V30 417 H 40.9876 -2.39275 3.68299 0
M  V30 418 H 41.5936 -0.795475 4.17795 0
M  V30 419 N 39.9087 -1.5758 0.0250728 0
M  V30 420 C 40.8717 -2.08896 -0.943139 0
M  V30 421 C 41.8717 -1.00321 -1.25668 0
M  V30 422 O 43.0617 -1.26495 -1.19769 0
M  V30 423 C 40.1937 -2.55143 -2.26086 0
M  V30 424 H 41.3867 -2.95723 -0.498775 0
M  V30 425 H 38.9397 -1.54703 -0.222888 0
M  V30 426 H 39.6747 -1.71633 -2.75159 0
M  V30 427 H 39.4597 -3.34461 -2.04641 0
M  V30 428 H 40.9497 -2.95083 -2.95492 0
M  V30 429 N 41.3868 0.248026 -1.55636 0
M  V30 430 C 42.3368 1.30994 -1.86614 0
M  V30 431 C 43.3208 1.43543 -0.726918 0
M  V30 432 O 44.5128 1.46804 -0.988818 0
M  V30 433 C 41.6418 2.6656 -2.16335 0
M  V30 434 C 40.7278 2.58019 -3.36581 0
M  V30 435 N 41.1188 2.1911 -4.55878 0
M  V30 436 C 39.4168 2.89035 -3.39669 0
M  V30 437 C 40.1178 2.21174 -5.38012 0
M  V30 438 N 39.0938 2.60632 -4.77045 0
M  V30 439 H 42.8958 0.999583 -2.76379 0
M  V30 440 H 40.4098 0.456652 -1.55848 0
M  V30 441 H 42.4068 3.43194 -2.36692 0
M  V30 442 H 41.0668 2.98463 -1.27867 0
M  V30 443 H 42.0778 1.90672 -4.81523 0
M  V30 444 H 38.7548 3.25485 -2.61469 0
M  V30 445 H 40.1448 1.9344 -6.43452 0
M  V30 446 N 42.8649 1.48995 0.513639 0
M  V30 447 C 44.1109 1.58076 1.27042 0
M  V30 448 C 44.4439 0.261026 1.92438 0
M  V30 449 O 43.7189 -0.734393 1.80103 0
M  V30 450 C 44.0019 2.73091 2.34719 0
M  V30 451 C 43.8549 4.14821 1.73907 0
M  V30 452 C 45.1739 2.83796 3.36375 0
M  V30 453 H 42.2929 0.575391 0.460536 0
M  V30 454 H 44.9349 1.81232 0.570516 0
M  V30 455 H 43.0849 2.53479 2.94416 0
M  V30 456 H 44.7569 4.45917 1.18135 0
M  V30 457 H 42.9999 4.21058 1.0437 0
M  V30 458 H 43.6709 4.91147 2.51949 0
M  V30 459 H 46.1469 3.01611 2.86653 0
M  V30 460 H 45.0229 3.65971 4.09093 0
M  V30 461 H 45.2839 1.92624 3.9793 0
M  V30 462 N 44.343 -0.763751 1.37857 0
M  V30 463 C 45.571 -1.55293 1.36718 0
M  V30 464 C 45.986 -1.88745 -0.0455434 0
M  V30 465 O 45.343 -1.52039 -1.00947 0
M  V30 466 C 45.394 -2.85831 2.2132 0
M  V30 467 O 45.115 -2.5381 3.57089 0
M  V30 468 C 46.616 -3.80023 2.28249 0
M  V30 469 H 43.836 -0.480841 0.468009 0
M  V30 470 H 46.38 -0.946009 1.81303 0
M  V30 471 H 44.535 -3.42926 1.80223 0
M  V30 472 H 44.949 -3.37459 4.01524 0
M  V30 473 H 46.423 -4.68599 2.91752 0
M  V30 474 H 46.9 -4.1973 1.2932 0
M  V30 475 H 47.506 -3.28855 2.69693 0
M  V30 476 N 45.8211 -1.22559 -0.990812 0
M  V30 477 C 47.0691 -1.04933 -1.72724 0
M  V30 478 C 47.3901 0.416158 -1.90508 0
M  V30 479 O 46.6601 1.29918 -1.46622 0
M  V30 480 H 45.2401 -0.385296 -0.639965 0
M  V30 481 H 47.9021 -1.54105 -1.19322 0
M  V30 482 H 46.9981 -1.52886 -2.72089 0
M  V30 483 N 47.2992 1.18797 -1.03562 0
M  V30 484 C 48.7152 1.40671 -0.753917 0
M  V30 485 C 48.9152 1.9043 0.658686 0
M  V30 486 O 47.9712 2.08538 1.42366 0
M  V30 487 C 49.2842 2.41192 -1.79574 0
M  V30 488 C 50.8322 2.54928 -1.81606 0
M  V30 489 C 51.3072 3.58709 -2.84766 0
M  V30 490 N 52.7982 3.66212 -2.83625 0
M  V30 491 C 53.5332 4.46225 -3.60098 0
M  V30 492 N 53.0292 5.29888 -4.46308 0
M  V30 493 N 54.8222 4.40939 -3.4861 0
M  V30 494 H 46.9732 0.848221 -1.94728 0
M  V30 495 H 49.2362 0.435081 -0.842264 0
M  V30 496 H 48.9422 2.11669 -2.80872 0
M  V30 497 H 48.8162 3.40467 -1.62365 0
M  V30 498 H 51.2032 2.83771 -0.809817 0
M  V30 499 H 51.2842 1.55784 -2.02891 0
M  V30 500 H 50.9282 3.30607 -3.85566 0
M  V30 501 H 50.8582 4.57519 -2.60737 0
M  V30 502 H 53.3492 3.06466 -2.21105 0
M  V30 503 H 53.6622 5.88078 -5.01382 0
M  V30 504 H 52.0072 5.29326 -4.50377 0
M  V30 505 H 55.1982 3.74624 -2.80668 0
M  V30 506 H 55.3712 5.03056 -4.08459 0
M  V30 507 N 48.7773 0.814389 1.34928 0
M  V30 508 C 50.0263 0.394871 1.97797 0
M  V30 509 C 50.3393 -1.04555 1.65311 0
M  V30 510 O 51.5453 -1.56856 2.21604 0
M  V30 511 C 50.0013 0.655103 3.53888 0
M  V30 512 C 49.6093 2.10858 3.95276 0
M  V30 513 C 51.3533 0.301329 4.23429 0
M  V30 514 C 49.2603 2.31415 5.44244 0
M  V30 515 H 48.1903 0.143913 0.740139 0
M  V30 516 H 50.8413 0.999544 1.53888 0
M  V30 517 H 49.2233 -0.0196253 3.95995 0
M  V30 518 H 50.3973 2.82176 3.64298 0
M  V30 519 H 48.7123 2.42297 3.38646 0
M  V30 520 H 51.3093 0.432869 5.32945 0
M  V30 521 H 51.6523 -0.75331 4.09428 0
M  V30 522 H 52.1853 0.930288 3.86769 0
M  V30 523 H 48.9243 3.35353 5.63222 0
M  V30 524 H 48.4443 1.6463 5.76764 0
M  V30 525 H 50.1233 2.13352 6.10811 0
M  V30 526 N 50.2554 -1.46986 0.568584 0
M  V30 527 C 51.6664 -1.86188 0.138219 0
M  V30 528 C 52.0174 -1.47388 -1.29504 0
M  V30 529 O 51.1424 -0.88219 -1.97602 0
M  V30 530 C 51.7374 -3.3792 0.244065 0
M  V30 531 C 50.2964 -3.76171 -0.131335 0
M  V30 532 C 49.4434 -2.71027 0.586465 0
M  V30 533 H 52.3944 -1.38342 0.777645 0
M  V30 534 H 52.4154 -3.76729 -0.534351 0
M  V30 535 H 51.9274 -3.66128 1.28731 0
M  V30 536 H 50.0284 -3.5358 -1.17526 0
M  V30 537 H 50.1414 -4.78523 0.235146 0
M  V30 538 H 48.5054 -2.54684 0.0282722 0
M  V30 539 H 49.2884 -3.02077 1.63109 0
M  V30 540 N 51.7335 -0.305618 -1.54608 0
M  V30 541 C 52.6635 0.561482 -2.26649 0
M  V30 542 C 53.6445 1.13415 -1.26772 0
M  V30 543 O 54.8295 1.16262 -1.55553 0
M  V30 544 C 51.9595 1.73122 -3.01075 0
M  V30 545 C 50.9135 1.2887 -4.08138 0
M  V30 546 C 50.2395 2.54396 -4.70305 0
M  V30 547 C 51.5395 0.416578 -5.20636 0
M  V30 548 H 53.2335 -0.0393902 -2.99374 0
M  V30 549 H 50.7795 -0.020385 -1.43986 0
M  V30 550 H 52.7325 2.34396 -3.50195 0
M  V30 551 H 51.4565 2.3584 -2.25936 0
M  V30 552 H 50.1155 0.698991 -3.59875 0
M  V30 553 H 49.7635 3.15439 -3.918 0
M  V30 554 H 49.4635 2.25486 -5.42614 0
M  V30 555 H 50.9875 3.16464 -5.2219 0
M  V30 556 H 52.4015 0.935116 -5.65622 0
M  V30 557 H 50.7985 0.221046 -5.99693 0
M  V30 558 H 51.8685 -0.557162 -4.81688 0
M  V30 559 N 53.2116 1.57565 -0.0334293 0
M  V30 560 C 54.4576 1.93088 0.639417 0
M  V30 561 C 54.8126 0.910589 1.69488 0
M  V30 562 O 54.1056 -0.0727725 1.91462 0
M  V30 563 C 54.2996 3.33112 1.29504 0
M  V30 564 C 54.1286 4.48667 0.304604 0
M  V30 565 C 52.8986 5.05207 -0.0970777 0
M  V30 566 C 55.0966 5.1239 -0.442845 0
M  V30 567 N 53.0786 6.04286 -1.08223 0
M  V30 568 C 54.4496 6.06609 -1.28161 0
M  V30 569 C 56.5046 4.95352 -0.50308 0
M  V30 570 C 55.2076 6.85622 -2.17519 0
M  V30 571 C 57.2336 5.74978 -1.38401 0
M  V30 572 C 56.5956 6.68816 -2.21054 0
M  V30 573 H 52.6946 0.754335 0.206161 0
M  V30 574 H 55.2786 1.94435 -0.101613 0
M  V30 575 H 53.4496 3.32576 2.00618 0
M  V30 576 H 55.1816 3.55972 1.92525 0
M  V30 577 H 51.9366 4.72782 0.278255 0
M  V30 578 H 52.3606 6.58516 -1.57117 0
M  V30 579 H 57.0026 4.22625 0.121694 0
M  V30 580 H 54.7206 7.57652 -2.81049 0
M  V30 581 H 58.3066 5.63826 -1.43496 0
M  V30 582 H 57.1866 7.29355 -2.88116 0
M  V30 583 N 54.6897 -0.239769 1.55765 0
M  V30 584 C 55.6197 -1.30052 1.9393 0
M  V30 585 C 56.6007 -1.49839 0.805132 0
M  V30 586 O 57.7857 -1.62328 1.06599 0
M  V30 587 C 54.9157 -2.65391 2.2402 0
M  V30 588 C 53.8697 -2.60289 3.39755 0
M  V30 589 C 53.1957 -3.99489 3.55405 0
M  V30 590 C 54.4957 -2.16654 4.75246 0
M  V30 591 H 56.1897 -0.983573 2.82783 0
M  V30 592 H 53.7357 -0.471701 1.36055 0
M  V30 593 H 55.6887 -3.3974 2.49308 0
M  V30 594 H 54.4127 -2.98736 1.32 0
M  V30 595 H 53.0717 -1.88398 3.14487 0
M  V30 596 H 52.7197 -4.30112 2.60793 0
M  V30 597 H 52.4197 -3.96962 4.33238 0
M  V30 598 H 53.9437 -4.75528 3.83022 0
M  V30 599 H 55.3577 -2.80737 4.99859 0
M  V30 600 H 53.7547 -2.25223 5.56232 0
M  V30 601 H 54.8247 -1.11835 4.71827 0
M  V30 602 N 56.1678 -1.49265 -0.50573 0
M  V30 603 C 57.3958 -1.62215 -1.28429 0
M  V30 604 C 57.8108 -0.291697 -1.86533 0
M  V30 605 O 57.1678 0.722233 -1.67601 0
M  V30 606 C 57.2188 -2.68735 -2.41793 0
M  V30 607 O 56.9398 -3.96619 -1.86078 0
M  V30 608 C 58.4408 -2.92346 -3.3324 0
M  V30 609 H 55.6608 -0.546239 -0.389697 0
M  V30 610 H 58.2048 -1.95265 -0.607609 0
M  V30 611 H 56.3598 -2.38476 -3.053 0
M  V30 612 H 56.7738 -4.55256 -2.60465 0
M  V30 613 H 58.2478 -3.70623 -4.09075 0
M  V30 614 H 58.7248 -2.02081 -3.89948 0
M  V30 615 H 59.3308 -3.24003 -2.75503 0
M  V30 616 N 57.6459 0.756429 -1.3826 0
M  V30 617 C 58.8939 1.51248 -1.34047 0
M  V30 618 C 59.2149 1.94875 0.0698372 0
M  V30 619 O 58.4849 1.67436 1.01696 0
M  V30 620 H 57.0649 0.561018 -0.493222 0
M  V30 621 H 59.7269 0.899347 -1.7291 0
M  V30 622 H 58.8229 2.40472 -1.98947 0
M  V30 623 N 59.124 1.23083 0.984299 0
M  V30 624 C 60.349 1.088 1.76571 0
M  V30 625 C 60.774 -0.356657 1.84688 0
M  V30 626 O 60.132 -1.25788 1.30565 0
M  V30 627 C 60.18 1.71371 3.17277 0
M  V30 628 O 59.284 0.973213 4.00752 0
M  V30 629 H 58.625 0.381599 0.543395 0
M  V30 630 H 61.155 1.63057 1.23587 0
M  V30 631 H 61.165 1.76449 3.67872 0
M  V30 632 H 59.84 2.76493 3.10684 0
M  V30 633 H 58.417 0.999078 3.59267 0
M  V30 634 N 60.6021 -1.18246 1.0419 0
M  V30 635 C 61.5321 -2.24127 0.654914 0
M  V30 636 C 62.5131 -1.66617 -0.342451 0
M  V30 637 O 63.6981 -1.92924 -0.222277 0
M  V30 638 C 60.8281 -3.47295 0.0183757 0
M  V30 639 C 59.7821 -4.17563 0.939414 0
M  V30 640 C 59.1081 -5.34438 0.167286 0
M  V30 641 C 60.4081 -4.70917 2.25908 0
M  V30 642 H 62.1021 -2.56753 1.54007 0
M  V30 643 H 59.6481 -1.23414 0.74195 0
M  V30 644 H 61.6011 -4.20572 -0.264082 0
M  V30 645 H 60.3251 -3.13907 -0.901664 0
M  V30 646 H 58.9841 -3.46186 1.20628 0
M  V30 647 H 58.6321 -4.97298 -0.7552 0
M  V30 648 H 58.3321 -5.82388 0.780901 0
M  V30 649 H 59.8561 -6.10504 -0.108125 0
M  V30 650 H 61.2701 -5.35882 2.03724 0
M  V30 651 H 59.6671 -5.29406 2.82577 0
M  V30 652 H 60.7371 -3.88272 2.9047 0
M  V30 653 N 62.0802 -0.821533 -1.34494 0
M  V30 654 C 63.0102 -0.257138 -2.3208 0
M  V30 655 C 63.9912 0.625645 -1.58176 0
M  V30 656 O 65.1762 0.552811 -1.86166 0
M  V30 657 C 62.3062 0.582958 -3.42372 0
M  V30 658 C 61.2602 -0.202571 -4.2752 0
M  V30 659 C 60.5862 0.760179 -5.29269 0
M  V30 660 C 61.8862 -1.40998 -5.02908 0
M  V30 661 H 63.5802 -1.07247 -2.79532 0
M  V30 662 H 61.1262 -0.517163 -1.34393 0
M  V30 663 H 63.0792 0.987972 -4.09655 0
M  V30 664 H 61.8032 1.43133 -2.93565 0
M  V30 665 H 60.4622 -0.588936 -3.61838 0
M  V30 666 H 60.1102 1.60447 -4.76724 0
M  V30 667 H 59.8102 0.238809 -5.87115 0
M  V30 668 H 61.3342 1.16308 -5.9942 0
M  V30 669 H 62.7482 -1.07905 -5.63054 0
M  V30 670 H 61.1452 -1.86689 -5.70322 0
M  V30 671 H 62.2152 -2.1889 -4.32684 0
M  V30 672 N 63.5583 1.46682 -0.576371 0
M  V30 673 C 64.9743 1.57822 -0.237562 0
M  V30 674 C 65.1743 1.57237 1.26011 0
M  V30 675 O 64.2303 1.48596 2.04146 0
M  V30 676 C 65.5433 2.87499 -0.881168 0
M  V30 677 C 67.0913 3.01119 -0.85417 0
M  V30 678 C 67.5663 4.33524 -1.4772 0
M  V30 679 N 69.0573 4.40207 -1.44125 0
M  V30 680 C 69.7923 5.4126 -1.89276 0
M  V30 681 N 69.2883 6.49021 -2.42371 0
M  V30 682 N 71.0813 5.32422 -1.80231 0
M  V30 683 H 63.2323 1.45306 -1.54919 0
M  V30 684 H 65.4953 0.692733 -0.647167 0
M  V30 685 H 65.2013 2.9372 -1.93447 0
M  V30 686 H 65.0753 3.75224 -0.385592 0
M  V30 687 H 67.4623 2.94485 0.190491 0
M  V30 688 H 67.5433 2.14887 -1.3877 0
M  V30 689 H 67.1873 4.40916 -2.52103 0
M  V30 690 H 67.1173 5.1852 -0.918947 0
M  V30 691 H 69.6083 3.62931 -1.05307 0
M  V30 692 H 69.9213 7.2233 -2.74698 0
M  V30 693 H 68.2663 6.49858 -2.46393 0
M  V30 694 H 71.4573 4.47137 -1.38514 0
M  V30 695 H 71.6303 6.11034 -2.15735 0
M  V30 696 N 65.0364 0.313813 1.54444 0
M  V30 697 C 66.2764 -0.292389 2.02298 0
M  V30 698 C 66.6404 -1.50105 1.19719 0
M  V30 699 O 67.8414 -2.17947 1.5733 0
M  V30 700 C 66.1124 -0.627682 3.51845 0
M  V30 701 S 67.6714 -1.21493 4.21646 0
M  V30 702 H 64.4894 -0.0890247 0.705405 0
M  V30 703 H 67.0914 0.444668 1.90376 0
M  V30 704 H 65.7954 0.260265 4.09574 0
M  V30 705 H 65.3264 -1.39519 3.67829 0
M  V30 706 H 67.3414 -2.5022 4.28491 0
M  V30 707 N 66.5145 -1.57545 0.0417849 0
M  V30 708 C 67.7625 -1.91937 -0.632829 0
M  V30 709 C 68.0835 -0.919978 -1.71934 0
M  V30 710 O 67.3535 0.0366064 -1.95866 0
M  V30 711 H 65.9335 -0.708493 -0.236742 0
M  V30 712 H 68.5955 -1.9468 0.0925745 0
M  V30 713 H 67.6915 -2.92912 -1.07746 0
M  V30 714 N 67.9926 0.231505 -1.5589 0
M  V30 715 C 69.4036 0.799327 -1.68724 0
M  V30 716 C 69.7546 1.85398 -0.642022 0
M  V30 717 O 68.8796 2.1539 0.208784 0
M  V30 718 C 69.4746 1.45664 -3.05888 0
M  V30 719 C 68.0336 1.97197 -3.20609 0
M  V30 720 C 67.1806 0.828552 -2.64632 0
M  V30 721 H 70.1316 0.00702616 -1.58698 0
M  V30 722 H 70.1526 2.32517 -3.01191 0
M  V30 723 H 69.6646 0.688808 -3.81939 0
M  V30 724 H 67.7656 2.76813 -2.4941 0
M  V30 725 H 67.8786 2.15878 -4.27707 0
M  V30 726 H 66.2426 1.23321 -2.22854 0
M  V30 727 H 67.0256 0.0735544 -3.43221 0
M  V30 728 N 69.4707 1.49531 0.497807 0
M  V30 729 C 70.7187 1.58865 1.24926 0
M  V30 730 C 71.0397 0.278721 1.92998 0
M  V30 731 O 70.3097 -0.702144 1.82885 0
M  V30 732 H 68.8897 0.585343 0.464094 0
M  V30 733 H 71.5517 1.86174 0.57666 0
M  V30 734 H 70.6477 2.38633 2.01149 0
M  V30 735 N 70.9488 -0.749086 1.3866 0
M  V30 736 C 71.8788 -1.8764 1.38973 0
M  V30 737 C 72.8598 -1.68178 0.255004 0
M  V30 738 O 74.0448 -1.88704 0.458754 0
M  V30 739 C 71.1748 -3.25222 1.21851 0
M  V30 740 C 70.1288 -3.59295 2.32575 0
M  V30 741 C 69.4548 -4.95663 2.00555 0
M  V30 742 C 70.7548 -3.63709 3.7485 0
M  V30 743 H 72.4488 -1.87635 2.3331 0
M  V30 744 H 69.9948 -0.901329 1.12303 0
M  V30 745 H 71.9478 -4.03746 1.20695 0
M  V30 746 H 70.6718 -3.25719 0.239775 0
M  V30 747 H 69.3308 -2.83093 2.32925 0
M  V30 748 H 68.9788 -4.92724 1.01154 0
M  V30 749 H 68.6788 -5.19429 2.74714 0
M  V30 750 H 70.2028 -5.7656 2.01024 0
M  V30 751 H 71.6168 -4.32338 3.76506 0
M  V30 752 H 70.0138 -3.98986 4.48252 0
M  V30 753 H 71.0838 -2.63834 4.06841 0
M  V30 754 N 72.4269 -1.23603 -0.977757 0
M  V30 755 C 73.6739 -1.06971 -1.71941 0
M  V30 756 C 74.0019 0.393009 -1.90488 0
M  V30 757 O 73.2569 1.30719 -1.4564 0
M  V30 758 C 73.5559 -1.7433 -3.11999 0
M  V30 759 C 73.2219 -3.24252 -3.13323 0
M  V30 760 C 71.8839 -3.65156 -3.13392 0
M  V30 761 C 74.2359 -4.20141 -3.08433 0
M  V30 762 C 71.5639 -5.00403 -3.0629 0
M  V30 763 C 73.9159 -5.55384 -3.02873 0
M  V30 764 C 72.5799 -5.95647 -3.01265 0
M  V30 765 H 71.8499 -0.391433 -0.629175 0
M  V30 766 H 74.4969 -1.53572 -1.14403 0
M  V30 767 H 72.8019 -1.20096 -3.7294 0
M  V30 768 H 74.4989 -1.58936 -3.68158 0
M  V30 769 H 71.0889 -2.91692 -3.14029 0
M  V30 770 H 75.2729 -3.89547 -3.07517 0
M  V30 771 H 70.5289 -5.3081 -3.03399 0
M  V30 772 H 74.7029 -6.29398 -2.98046 0
M  V30 773 H 72.3299 -7.0041 -2.95516 0
M  V30 774 N 73.905 1.17692 -1.04816 0
M  V30 775 C 74.815 2.25229 -0.65643 0
M  V30 776 C 75.831 1.71018 0.320761 0
M  V30 777 O 77.007 2.00649 0.173805 0
M  V30 778 C 74.072 3.46684 -0.0332629 0
M  V30 779 C 73.133 4.15997 -1.06042 0
M  V30 780 C 72.366 5.31654 -0.466893 0
M  V30 781 O 72.589 5.65777 0.724758 0
M  V30 782 O 71.523 5.89831 -1.1993 0
M  V30 783 H 75.349 2.61016 -1.55255 0
M  V30 784 H 72.934 1.24919 -0.81949 0
M  V30 785 H 74.816 4.20234 0.313256 0
M  V30 786 H 73.491 3.12703 0.836566 0
M  V30 787 H 72.398 3.44482 -1.45886 0
M  V30 788 H 73.731 4.53996 -1.90127 0
M  V30 789 N 75.3831 0.828654 1.34056 0
M  V30 790 C 76.6291 0.42008 1.98402 0
M  V30 791 C 76.9621 -1.01564 1.65525 0
M  V30 792 O 76.2371 -1.70834 0.929831 0
M  V30 793 C 76.5201 0.62927 3.54559 0
M  V30 794 C 76.3731 2.11152 3.97159 0
M  V30 795 C 77.6921 0.0688756 4.40046 0
M  V30 796 H 74.8111 0.154104 0.720709 0
M  V30 797 H 77.4531 1.04228 1.5886 0
M  V30 798 H 75.6031 0.0996418 3.88372 0
M  V30 799 H 77.2751 2.70522 3.73651 0
M  V30 800 H 75.5181 2.59985 3.47261 0
M  V30 801 H 76.1891 2.20868 5.05887 0
M  V30 802 H 78.6651 0.521458 4.1282 0
M  V30 803 H 77.5411 0.245006 5.48353 0
M  V30 804 H 77.8021 -1.0266 4.30015 0
M  V30 805 N 76.8612 -1.46375 0.584142 0
M  V30 806 C 78.1092 -2.01978 0.0701287 0
M  V30 807 C 78.4302 -1.4579 -1.295 0
M  V30 808 O 77.7002 -0.64314 -1.85042 0
M  V30 809 H 76.2802 -0.746648 0.0229345 0
M  V30 810 H 78.9422 -1.79461 0.760245 0
M  V30 811 H 78.0382 -3.121 0.0022064 0
M  V30 812 N 78.3393 -0.321999 -1.54275 0
M  V30 813 C 79.5643 0.285791 -2.05422 0
M  V30 814 C 79.9893 1.45124 -1.19669 0
M  V30 815 O 79.3473 1.80132 -0.205441 0
M  V30 816 C 79.3953 0.69956 -3.53749 0
M  V30 817 O 78.4993 1.8021 -3.70942 0
M  V30 818 H 77.8403 0.0518962 -0.661969 0
M  V30 819 H 80.3703 -0.469954 -1.9913 0
M  V30 820 H 80.3803 0.982649 -3.9599 0
M  V30 821 H 79.0553 -0.152864 -4.15619 0
M  V30 822 H 77.6323 1.51794 -3.40607 0
M  V30 823 N 79.8174 1.5752 -0.0501392 0
M  V30 824 C 80.7274 2.14952 0.939827 0
M  V30 825 C 81.7434 1.10706 1.34239 0
M  V30 826 O 82.9194 1.42869 1.41952 0
M  V30 827 C 79.9844 2.68232 2.19665 0
M  V30 828 C 79.0454 3.87272 1.85253 0
M  V30 829 C 78.2784 4.38002 3.04943 0
M  V30 830 O 78.5014 3.87811 4.18281 0
M  V30 831 O 77.4354 5.29602 2.86017 0
M  V30 832 H 81.2614 2.9986 0.481392 0
M  V30 833 H 78.8464 1.4841 0.171699 0
M  V30 834 H 80.7284 3.02475 2.93406 0
M  V30 835 H 79.4034 1.86395 2.64648 0
M  V30 836 H 78.3104 3.5792 1.0883 0
M  V30 837 H 79.6434 4.70336 1.4507 0
M  V30 838 N 81.2955 -0.223234 1.56011 0
M  V30 839 C 82.7065 -0.790368 1.69145 0
M  V30 840 C 83.0575 -1.85055 0.651845 0
M  V30 841 O 82.1825 -2.15498 -0.197359 0
M  V30 842 C 82.7775 -1.4404 3.06656 0
M  V30 843 C 81.3365 -1.95494 3.2165 0
M  V30 844 C 80.4835 -0.814506 2.65068 0
M  V30 845 H 83.4345 0.00139011 1.587 0
M  V30 846 H 83.4555 -2.30916 3.0242 0
M  V30 847 H 82.9675 -0.668543 3.82298 0
M  V30 848 H 81.0685 -2.75487 2.50874 0
M  V30 849 H 81.1815 -2.13607 4.28846 0
M  V30 850 H 79.5455 -1.22137 2.23505 0
M  V30 851 H 80.3285 -0.0553515 3.43255 0
M  V30 852 N 82.7736 -1.49793 -0.48987 0
M  V30 853 C 84.0206 -1.59841 -1.24327 0
M  V30 854 C 84.3486 -0.290135 -1.92324 0
M  V30 855 O 83.6036 0.722749 -1.81865 0
M  V30 856 C 83.9026 -2.71488 -2.32441 0
M  V30 857 C 83.5686 -4.12614 -1.81826 0
M  V30 858 C 82.2306 -4.51017 -1.67742 0
M  V30 859 C 84.5826 -5.00892 -1.4407 0
M  V30 860 C 81.9106 -5.75459 -1.14297 0
M  V30 861 C 84.2626 -6.25863 -0.920742 0
M  V30 862 C 82.9266 -6.63086 -0.766383 0
M  V30 863 H 82.1966 -0.584899 -0.454944 0
M  V30 864 H 84.8436 -1.83663 -0.542215 0
M  V30 865 H 83.1486 -2.4168 -3.0838 0
M  V30 866 H 84.8456 -2.76469 -2.90458 0
M  V30 867 H 81.4356 -3.82307 -1.93751 0
M  V30 868 H 85.6196 -4.7187 -1.53794 0
M  V30 869 H 80.8756 -6.02989 -1.01068 0
M  V30 870 H 85.0496 -6.9364 -0.619448 0
M  V30 871 H 82.6766 -7.59393 -0.350083 0
M  V30 872 N 84.2517 0.741722 -1.39055 0
M  V30 873 C 85.4817 1.52876 -1.3897 0
M  V30 874 C 85.8897 1.8919 0.0193266 0
M  V30 875 O 85.2327 1.54138 0.999356 0
M  V30 876 C 85.2947 2.84929 -2.19216 0
M  V30 877 C 84.9587 2.71086 -3.67915 0
M  V30 878 C 85.9557 2.40084 -4.61146 0
M  V30 879 C 83.6407 2.88168 -4.11418 0
M  V30 880 C 85.6347 2.26335 -5.95862 0
M  V30 881 C 83.3217 2.74037 -5.46211 0
M  V30 882 C 84.3197 2.43166 -6.38247 0
M  V30 883 O 84.0077 2.29115 -7.70559 0
M  V30 884 H 83.7397 0.479252 -0.476753 0
M  V30 885 H 86.2937 0.924751 -1.83405 0
M  V30 886 H 84.5237 3.47564 -1.69518 0
M  V30 887 H 86.2127 3.46509 -2.11392 0
M  V30 888 H 86.9787 2.26545 -4.28838 0
M  V30 889 H 82.8577 3.11191 -3.40119 0
M  V30 890 H 86.4017 2.0216 -6.67665 0
M  V30 891 H 82.2987 2.87153 -5.78112 0
M  V30 892 H 83.0667 2.44237 -7.81211 0
M  V30 893 N 85.7298 1.2412 0.971189 0
M  V30 894 C 86.6798 0.997551 2.05019 0
M  V30 895 C 87.6638 -0.0597747 1.60789 0
M  V30 896 O 88.8558 0.153516 1.76333 0
M  V30 897 C 85.9848 0.600557 3.38006 0
M  V30 898 C 85.0708 1.69377 3.88809 0
M  V30 899 N 85.4618 2.92586 4.12586 0
M  V30 900 C 83.7598 1.57048 4.17435 0
M  V30 901 C 84.4608 3.63431 4.54195 0
M  V30 902 N 83.4368 2.90979 4.59165 0
M  V30 903 H 87.2388 1.93316 2.21374 0
M  V30 904 H 84.7528 1.14194 1.1547 0
M  V30 905 H 86.7498 0.40725 4.14906 0
M  V30 906 H 85.4098 -0.327903 3.2304 0
M  V30 907 H 86.4208 3.288 4.00139 0
M  V30 908 H 83.0978 0.709798 4.11422 0
M  V30 909 H 84.4878 4.69102 4.81033 0
M  V30 910 N 87.2079 -1.17134 1.05439 0
M  V30 911 C 88.1379 -2.2342 0.678649 0
M  V30 912 C 89.1189 -1.66971 -0.32476 0
M  V30 913 O 90.3039 -1.93149 -0.201802 0
M  V30 914 C 87.4339 -3.47256 0.0552099 0
M  V30 915 C 86.3879 -4.16543 0.98365 0
M  V30 916 C 85.7139 -5.34231 0.223961 0
M  V30 917 C 87.0139 -4.68495 2.3089 0
M  V30 918 H 88.7079 -2.55105 1.56722 0
M  V30 919 H 86.2539 -1.2262 0.754998 0
M  V30 920 H 88.2069 -4.20828 -0.21946 0
M  V30 921 H 86.9309 -3.14846 -0.868319 0
M  V30 922 H 85.5899 -3.44887 1.24293 0
M  V30 923 H 85.2379 -4.98071 -0.702412 0
M  V30 924 H 84.9379 -5.81527 0.842627 0
M  V30 925 H 86.4619 -6.10585 -0.0433671 0
M  V30 926 H 87.8759 -5.33691 2.09396 0
M  V30 927 H 86.2729 -5.26379 2.88176 0
M  V30 928 H 87.3429 -3.85169 2.94572 0
M  V30 929 N 88.686 -0.835752 -1.33615 0
M  V30 930 C 89.933 -0.429959 -1.97883 0
M  V30 931 C 90.261 1.01006 -1.66217 0
M  V30 932 O 89.516 1.72047 -0.93265 0
M  V30 933 C 89.815 -0.593925 -3.52431 0
M  V30 934 C 89.481 -2.00158 -4.04039 0
M  V30 935 C 88.143 -2.38662 -4.17844 0
M  V30 936 C 90.495 -2.92117 -4.31644 0
M  V30 937 C 87.823 -3.68435 -4.56588 0
M  V30 938 C 90.175 -4.21368 -4.71838 0
M  V30 939 C 88.839 -4.59833 -4.83849 0
M  V30 940 H 88.109 -0.157333 -0.724104 0
M  V30 941 H 90.756 -1.06217 -1.59343 0
M  V30 942 H 89.061 0.121619 -3.91611 0
M  V30 943 H 90.758 -0.260282 -4.00154 0
M  V30 944 H 87.348 -1.69252 -3.93766 0
M  V30 945 H 91.532 -2.63608 -4.20505 0
M  V30 946 H 86.788 -3.98046 -4.64079 0
M  V30 947 H 90.962 -4.92703 -4.92155 0
M  V30 948 H 88.589 -5.60438 -5.13627 0
M  V30 949 N 90.1641 1.46063 -0.591896 0
M  V30 950 C 91.4411 1.95595 -0.0137119 0
M  V30 951 C 91.8211 1.5345 1.4497 0
M  V30 952 O 91.1691 0.789543 2.14426 0
M  V30 953 C 91.3791 3.48453 -0.195373 0
M  V30 954 C 92.7271 4.24546 -0.0679765 0
M  V30 955 O 93.7511 3.55982 -0.124681 0
M  V30 956 O 92.6101 5.46467 0.0600579 0
M  V30 957 H 89.7041 0.825795 0.0446279 0
M  V30 958 H 92.2501 1.56303 -0.660859 0
M  V30 959 H 91.0221 3.72045 -1.21235 0
M  V30 960 H 90.6451 3.94597 0.487775 0
M  V30 961 N 91.6422 0.330177 1.54103 0
M  V30 962 C 92.8902 -0.269871 2.0029 0
M  V30 963 C 93.2112 -1.52133 1.21986 0
M  V30 964 O 92.4812 -1.93212 0.323438 0
M  V30 965 H 91.0612 -0.10271 0.739905 0
M  V30 966 H 93.7232 0.448249 1.89675 0
M  V30 967 H 92.8192 -0.52166 3.07709 0
M  V30 968 N 93.1203 -1.57491 0.0584922 0
M  V30 969 C 94.0523 -2.08916 -0.942694 0
M  V30 970 C 95.0653 -1.0185 -1.27006 0
M  V30 971 O 96.2543 -1.29398 -1.22957 0
M  V30 972 C 93.3543 -2.52341 -2.26224 0
M  V30 973 C 92.5273 -3.82827 -2.1157 0
M  V30 974 C 91.5863 -4.12487 -3.26712 0
M  V30 975 O 90.6123 -4.82295 -3.02292 0
M  V30 976 N 91.8143 -3.64978 -4.5141 0
M  V30 977 H 94.5793 -2.95437 -0.503722 0
M  V30 978 H 92.1403 -1.61397 -0.12757 0
M  V30 979 H 94.1323 -2.69254 -3.02133 0
M  V30 980 H 92.7023 -1.7103 -2.61663 0
M  V30 981 H 91.9223 -3.75425 -1.20208 0
M  V30 982 H 93.2103 -4.68263 -1.99015 0
M  V30 983 H 92.6083 -3.08558 -4.7414 0
M  V30 984 H 91.1653 -3.87115 -5.2439 0
M  V30 985 N 94.5984 0.214957 -1.56127 0
M  V30 986 C 95.5614 1.24997 -1.92116 0
M  V30 987 C 96.5614 1.39467 -0.800344 0
M  V30 988 O 97.7514 1.37619 -1.06802 0
M  V30 989 C 94.8834 2.62271 -2.17777 0
M  V30 990 H 96.0764 0.942875 -2.84693 0
M  V30 991 H 93.6294 0.455654 -1.49511 0
M  V30 992 H 94.3644 2.98068 -1.27773 0
M  V30 993 H 94.1494 2.53143 -2.99434 0
M  V30 994 H 95.6394 3.36946 -2.46693 0
M  V30 995 N 96.0765 1.50051 0.48192 0
M  V30 996 C 97.0065 1.71046 1.58951 0
M  V30 997 C 97.9875 0.559288 1.60642 0
M  V30 998 O 99.1725 0.797243 1.77081 0
M  V30 999 C 96.3025 1.79462 2.97339 0
M  V30 1000 C 95.2565 2.94558 3.10515 0
M  V30 1001 C 94.5825 2.88105 4.50444 0
M  V30 1002 C 95.8825 4.35227 2.88747 0
M  V30 1003 H 97.5765 2.6378 1.41635 0
M  V30 1004 H 95.1225 1.26936 0.679942 0
M  V30 1005 H 97.0755 1.92734 3.74742 0
M  V30 1006 H 95.7995 0.833412 3.15788 0
M  V30 1007 H 94.4585 2.80918 2.35543 0
M  V30 1008 H 94.1065 1.89853 4.65795 0
M  V30 1009 H 93.8065 3.65366 4.60197 0
M  V30 1010 H 95.3305 3.03412 5.29881 0
M  V30 1011 H 96.7445 4.49449 3.55905 0
M  V30 1012 H 95.1415 5.13856 3.09955 0
M  V30 1013 H 96.2115 4.48347 1.84696 0
M  V30 1014 N 97.5546 -0.734337 1.39446 0
M  V30 1015 C 98.4846 -1.86155 1.40955 0
M  V30 1016 C 99.4656 -1.67898 0.272827 0
M  V30 1017 O 100.651 -1.88207 0.478743 0
M  V30 1018 C 97.7806 -3.23912 1.25294 0
M  V30 1019 C 96.7346 -3.56808 2.36373 0
M  V30 1020 C 96.0606 -4.93508 2.058 0
M  V30 1021 C 97.3606 -3.59713 3.78687 0
M  V30 1022 H 99.0546 -1.8515 2.35287 0
M  V30 1023 H 96.6006 -0.889367 1.13253 0
M  V30 1024 H 98.5536 -4.02443 1.2497 0
M  V30 1025 H 97.2776 -3.25446 0.274308 0
M  V30 1026 H 95.9366 -2.80606 2.35914 0
M  V30 1027 H 95.5846 -4.91623 1.06374 0
M  V30 1028 H 95.2846 -5.16486 2.80208 0
M  V30 1029 H 96.8086 -5.74396 2.07128 0
M  V30 1030 H 98.2226 -4.2832 3.81071 0
M  V30 1031 H 96.6196 -3.94209 4.52459 0
M  V30 1032 H 97.6896 -2.59504 4.09617 0
M  V30 1033 N 99.0327 -1.24633 -0.964593 0
M  V30 1034 C 99.9827 -1.00841 -2.04487 0
M  V30 1035 C 100.967 0.0512468 -1.60818 0
M  V30 1036 O 102.159 -0.162865 -1.76249 0
M  V30 1037 C 99.2877 -0.618474 -3.37683 0
M  V30 1038 C 98.3737 -1.71437 -3.87905 0
M  V30 1039 N 98.7647 -2.9477 -4.11029 0
M  V30 1040 C 97.0627 -1.5926 -4.16596 0
M  V30 1041 C 97.7637 -3.65834 -4.52261 0
M  V30 1042 N 96.7397 -2.9341 -4.57615 0
M  V30 1043 H 100.542 -1.94487 -2.20345 0
M  V30 1044 H 98.0557 -1.14805 -1.14863 0
M  V30 1045 H 100.053 -0.429247 -4.14684 0
M  V30 1046 H 98.7127 0.310766 -3.23209 0
M  V30 1047 H 99.7237 -3.30917 -3.9839 0
M  V30 1048 H 96.4007 -0.731606 -4.1104 0
M  V30 1049 H 97.7907 -4.71646 -4.78539 0
M  V30 1050 N 100.511 1.16574 -1.06058 0
M  V30 1051 C 101.458 2.20883 -0.669263 0
M  V30 1052 C 102.428 1.62729 0.332918 0
M  V30 1053 O 103.613 1.895 0.222346 0
M  V30 1054 C 100.753 3.45049 -0.0593572 0
M  V30 1055 C 99.8658 4.17458 -1.11143 0
M  V30 1056 C 99.0008 5.29135 -0.467916 0
M  V30 1057 C 98.0398 5.93343 -1.50369 0
M  V30 1058 N 97.1768 6.96516 -0.883706 0
M  V30 1059 H 102.017 2.53709 -1.5632 0
M  V30 1060 H 99.5538 1.24616 -0.781625 0
M  V30 1061 H 101.512 4.16033 0.311771 0
M  V30 1062 H 100.142 3.12781 0.797992 0
M  V30 1063 H 99.1938 3.45101 -1.60029 0
M  V30 1064 H 100.506 4.61307 -1.89731 0
M  V30 1065 H 99.6598 6.06684 -0.0436871 0
M  V30 1066 H 98.3988 4.86443 0.349864 0
M  V30 1067 H 97.4038 5.14517 -1.93784 0
M  V30 1068 H 98.6288 6.38114 -2.32352 0
M  V30 1069 H 96.5748 6.55943 -0.086595 0
M  V30 1070 H 96.4918 7.38723 -1.607 0
M  V30 1071 H 97.7598 7.77993 -0.484543 0
M  V30 1072 N 101.989 0.842826 1.3317 0
M  V30 1073 C 103.236 0.440447 1.97652 0
M  V30 1074 C 103.564 -1.00123 1.6675 0
M  V30 1075 O 102.819 -1.7155 0.941761 0
M  V30 1076 C 103.118 0.612607 3.52111 0
M  V30 1077 C 102.784 2.02297 4.02972 0
M  V30 1078 C 101.446 2.40874 4.16573 0
M  V30 1079 C 103.798 2.94402 4.30089 0
M  V30 1080 C 101.126 3.70852 4.54627 0
M  V30 1081 C 103.478 4.23865 4.69597 0
M  V30 1082 C 102.142 4.62392 4.81404 0
M  V30 1083 H 101.412 0.161171 0.72326 0
M  V30 1084 H 104.059 1.07061 1.58777 0
M  V30 1085 H 102.364 -0.100849 3.9167 0
M  V30 1086 H 104.061 0.2815 4.00011 0
M  V30 1087 H 100.651 1.71338 3.92863 0
M  V30 1088 H 104.835 2.65835 4.19101 0
M  V30 1089 H 100.091 4.00501 4.61962 0
M  V30 1090 H 104.265 4.95306 4.89536 0
M  V30 1091 H 101.892 5.63154 5.10648 0
M  V30 1092 N 103.467 -1.45747 0.599634 0
M  V30 1093 C 104.744 -1.95585 0.0240846 0
M  V30 1094 C 105.124 -1.54217 -1.44154 0
M  V30 1095 O 104.472 -0.800903 -2.14004 0
M  V30 1096 C 104.682 -3.48344 0.21385 0
M  V30 1097 C 106.03 -4.24504 0.0904902 0
M  V30 1098 O 107.054 -3.55911 0.143558 0
M  V30 1099 O 105.913 -5.46491 -0.0310766 0
M  V30 1100 H 103.007 -0.82602 -0.0402478 0
M  V30 1101 H 105.553 -1.55951 0.669139 0
M  V30 1102 H 104.325 -3.71397 1.23206 0
M  V30 1103 H 103.948 -3.9485 -0.466842 0
M  V30 1104 N 104.945 -0.338344 -1.53925 0
M  V30 1105 C 106.192 0.259758 -2.00827 0
M  V30 1106 C 106.52 1.50973 -1.22628 0
M  V30 1107 O 105.775 1.93379 -0.300509 0
M  V30 1108 C 106.074 0.62448 -3.51902 0
M  V30 1109 C 105.74 -0.528006 -4.47798 0
M  V30 1110 C 104.402 -0.844298 -4.73735 0
M  V30 1111 C 106.754 -1.30143 -5.0469 0
M  V30 1112 C 104.082 -1.93648 -5.53821 0
M  V30 1113 C 106.434 -2.38382 -5.85967 0
M  V30 1114 C 105.098 -2.70576 -6.10201 0
M  V30 1115 H 104.368 0.0950523 -0.734878 0
M  V30 1116 H 107.015 -0.465182 -1.85764 0
M  V30 1117 H 105.32 1.43006 -3.64769 0
M  V30 1118 H 107.017 1.09905 -3.85645 0
M  V30 1119 H 103.607 -0.271421 -4.2774 0
M  V30 1120 H 107.791 -1.07033 -4.84621 0
M  V30 1121 H 103.047 -2.19021 -5.70824 0
M  V30 1122 H 107.221 -2.98746 -6.29066 0
M  V30 1123 H 104.848 -3.55333 -6.72044 0
M  V30 1124 N 106.423 1.57458 -0.0668435 0
M  V30 1125 C 107.37 2.12439 0.902122 0
M  V30 1126 C 108.34 1.03565 1.2986 0
M  V30 1127 O 109.525 1.312 1.38532 0
M  V30 1128 C 106.665 2.6865 2.16614 0
M  V30 1129 C 105.778 3.91663 1.82274 0
M  V30 1130 C 104.913 4.36134 3.0325 0
M  V30 1131 C 103.952 5.51808 2.64904 0
M  V30 1132 N 103.089 5.9126 3.78624 0
M  V30 1133 H 107.929 2.94934 0.426382 0
M  V30 1134 H 105.466 1.4575 0.198819 0
M  V30 1135 H 107.424 2.99346 2.90599 0
M  V30 1136 H 106.054 1.88928 2.61737 0
M  V30 1137 H 105.106 3.6746 0.983719 0
M  V30 1138 H 106.418 4.75693 1.50059 0
M  V30 1139 H 105.572 4.68465 3.85519 0
M  V30 1140 H 104.311 3.50948 3.38655 0
M  V30 1141 H 103.316 5.19133 1.81055 0
M  V30 1142 H 104.541 6.38722 2.30675 0
M  V30 1143 H 102.487 5.09024 4.138 0
M  V30 1144 H 102.404 6.70018 3.5016 0
M  V30 1145 H 103.672 6.28212 4.61486 0
M  V30 1146 N 107.901 -0.206675 1.56239 0
M  V30 1147 C 108.811 -1.27686 1.96808 0
M  V30 1148 C 109.827 -1.50455 0.874035 0
M  V30 1149 O 111.003 -1.63295 1.17884 0
M  V30 1150 C 108.068 -2.60358 2.28942 0
M  V30 1151 C 107.129 -2.45762 3.51994 0
M  V30 1152 C 106.362 -3.72108 3.82585 0
M  V30 1153 O 106.585 -4.75776 3.14631 0
M  V30 1154 O 105.519 -3.6833 4.76043 0
M  V30 1155 H 109.345 -0.962593 2.88041 0
M  V30 1156 H 106.93 -0.410746 1.43643 0
M  V30 1157 H 108.812 -3.38687 2.50737 0
M  V30 1158 H 107.487 -2.91435 1.4088 0
M  V30 1159 H 106.394 -1.65584 3.35459 0
M  V30 1160 H 107.727 -2.19621 4.40486 0
M  V30 1161 N 109.379 -1.50304 -0.473955 0
M  V30 1162 C 110.627 -1.60832 -1.22382 0
M  V30 1163 C 110.948 -0.30939 -1.9253 0
M  V30 1164 O 110.218 0.67296 -1.83978 0
M  V30 1165 H 108.798 -0.592652 -0.454723 0
M  V30 1166 H 111.46 -1.87068 -0.546968 0
M  V30 1167 H 110.556 -2.41803 -1.97327 0
M  V30 1168 N 110.857 0.726932 -1.39834 0
M  V30 1169 C 111.807 1.83232 -1.35683 0
M  V30 1170 C 112.791 1.59155 -0.236295 0
M  V30 1171 O 113.983 1.70522 -0.474488 0
M  V30 1172 C 111.112 3.21246 -1.21062 0
M  V30 1173 C 110.198 3.51125 -2.37849 0
M  V30 1174 N 110.589 3.51889 -3.63329 0
M  V30 1175 C 108.887 3.81527 -2.30982 0
M  V30 1176 C 109.588 3.79791 -4.40606 0
M  V30 1177 N 108.564 3.97971 -3.70297 0
M  V30 1178 H 112.366 1.8214 -2.30656 0
M  V30 1179 H 109.88 0.925545 -1.33444 0
M  V30 1180 H 111.877 4.00387 -1.16171 0
M  V30 1181 H 110.537 3.23572 -0.270458 0
M  V30 1182 H 111.548 3.33008 -3.96643 0
M  V30 1183 H 108.225 3.91411 -1.45272 0
M  V30 1184 H 109.615 3.86783 -5.49408 0
M  V30 1185 N 112.336 1.25143 0.95797 0
M  V30 1186 C 113.582 1.09855 1.70469 0
M  V30 1187 C 113.915 -0.360187 1.90831 0
M  V30 1188 O 113.19 -1.26568 1.47685 0
M  V30 1189 C 113.473 1.8497 3.08963 0
M  V30 1190 C 113.326 3.38652 2.96032 0
M  V30 1191 C 114.645 1.63016 4.08795 0
M  V30 1192 H 111.764 0.400465 0.618706 0
M  V30 1193 H 114.406 1.53933 1.11376 0
M  V30 1194 H 112.556 1.47505 3.59409 0
M  V30 1195 H 114.228 3.85772 2.52938 0
M  V30 1196 H 112.471 3.66534 2.32025 0
M  V30 1197 H 113.142 3.8642 3.94187 0
M  V30 1198 H 115.618 1.95625 3.67247 0
M  V30 1199 H 114.494 2.18015 5.03747 0
M  V30 1200 H 114.755 0.570692 4.38401 0
M  V30 1201 N 113.814 -1.1601 1.06675 0
M  V30 1202 C 115.042 -1.90527 0.806667 0
M  V30 1203 C 115.457 -1.77643 -0.639396 0
M  V30 1204 O 114.814 -1.12369 -1.43803 0
M  V30 1205 C 114.865 -3.41106 1.19705 0
M  V30 1206 O 114.586 -3.53608 2.58636 0
M  V30 1207 C 116.087 -4.32663 0.965266 0
M  V30 1208 H 113.307 -0.604053 0.292166 0
M  V30 1209 H 115.851 -1.47026 1.4214 0
M  V30 1210 H 114.006 -3.82296 0.626774 0
M  V30 1211 H 114.42 -4.47011 2.74375 0
M  V30 1212 H 115.894 -5.36763 1.288 0
M  V30 1213 H 116.371 -4.39089 -0.0987936 0
M  V30 1214 H 116.977 -3.97206 1.52011 0
M  V30 1215 N 115.292 -0.849877 -1.32721 0
M  V30 1216 C 116.522 -0.46408 -2.0132 0
M  V30 1217 C 116.93 0.94246 -1.64056 0
M  V30 1218 O 116.273 1.6257 -0.855379 0
M  V30 1219 C 116.335 -0.517887 -3.5575 0
M  V30 1220 C 115.999 -1.88248 -4.16427 0
M  V30 1221 C 116.996 -2.84726 -4.35002 0
M  V30 1222 C 114.681 -2.17832 -4.52609 0
M  V30 1223 C 116.675 -4.08945 -4.8892 0
M  V30 1224 C 114.362 -3.42304 -5.06232 0
M  V30 1225 C 115.36 -4.37677 -5.24335 0
M  V30 1226 O 115.048 -5.59946 -5.76815 0
M  V30 1227 H 114.78 -0.181327 -0.651227 0
M  V30 1228 H 117.334 -1.14713 -1.70382 0
M  V30 1229 H 115.564 0.221997 -3.86062 0
M  V30 1230 H 117.253 -0.148366 -4.05629 0
M  V30 1231 H 118.019 -2.63174 -4.07388 0
M  V30 1232 H 113.898 -1.44385 -4.37806 0
M  V30 1233 H 117.442 -4.83396 -5.02966 0
M  V30 1234 H 113.339 -3.63709 -5.33278 0
M  V30 1235 H 114.107 -5.61838 -5.95214 0
M  V30 1236 N 116.77 1.45427 -0.607355 0
M  V30 1237 C 117.72 2.27612 0.133038 0
M  V30 1238 C 118.704 1.37307 0.838785 0
M  V30 1239 O 119.896 1.61299 0.728813 0
M  V30 1240 C 117.025 3.24173 1.12991 0
M  V30 1241 C 116.111 4.21965 0.425011 0
M  V30 1242 N 116.502 5.02982 -0.533217 0
M  V30 1243 C 114.8 4.40899 0.672593 0
M  V30 1244 C 115.501 5.73931 -0.947518 0
M  V30 1245 N 114.477 5.42819 -0.291321 0
M  V30 1246 H 118.279 2.87649 -0.602935 0
M  V30 1247 H 115.793 1.56576 -0.431006 0
M  V30 1248 H 117.79 3.81783 1.67473 0
M  V30 1249 H 116.45 2.65696 1.86644 0
M  V30 1250 H 117.461 5.09843 -0.90995 0
M  V30 1251 H 114.138 3.93547 1.39382 0
M  V30 1252 H 115.528 6.49037 -1.73782 0
M  V30 1253 N 118.248 0.346503 1.53744 0
M  V30 1254 C 119.664 -0.00530975 1.59599 0
M  V30 1255 C 119.864 -1.48465 1.36236 0
M  V30 1256 O 118.92 -2.24376 1.15808 0
M  V30 1257 C 120.233 0.433516 2.97559 0
M  V30 1258 C 121.781 0.386111 3.10609 0
M  V30 1259 C 122.256 0.800451 4.50951 0
M  V30 1260 N 123.747 0.754753 4.5701 0
M  V30 1261 C 124.482 1.04727 5.63755 0
M  V30 1262 N 123.978 1.4081 6.7834 0
M  V30 1263 N 125.771 0.971316 5.53644 0
M  V30 1264 H 117.922 1.31009 1.67184 0
M  V30 1265 H 120.185 0.534242 0.783128 0
M  V30 1266 H 119.891 1.46509 3.19731 0
M  V30 1267 H 119.765 -0.189753 3.76722 0
M  V30 1268 H 122.152 -0.636295 2.88158 0
M  V30 1269 H 122.233 1.04462 2.33498 0
M  V30 1270 H 121.877 1.82088 4.74137 0
M  V30 1271 H 121.807 0.119386 5.26465 0
M  V30 1272 H 124.298 0.488662 3.74727 0
M  V30 1273 H 124.611 1.61607 7.55714 0
M  V30 1274 H 122.956 1.44657 6.79779 0
M  V30 1275 H 126.147 0.688748 4.63005 0
M  V30 1276 H 126.32 1.20263 6.36742 0
M  V30 1277 N 119.726 -1.57421 0.075193 0
M  V30 1278 C 121.142 -1.57099 -0.281444 0
M  V30 1279 C 121.342 -1.08486 -1.69803 0
M  V30 1280 O 120.398 -0.752279 -2.41033 0
M  V30 1281 C 121.711 -3.00571 -0.0880041 0
M  V30 1282 C 123.259 -3.12605 -0.157281 0
M  V30 1283 C 123.734 -4.57999 0.0079207 0
M  V30 1284 N 125.225 -4.63176 -0.0475725 0
M  V30 1285 C 125.96 -5.73373 0.0557876 0
M  V30 1286 N 125.456 -6.92473 0.21286 0
M  V30 1287 N 127.249 -5.621 -0.00152098 0
M  V30 1288 H 119.4 -1.87335 1.00098 0
M  V30 1289 H 121.663 -0.86377 0.390646 0
M  V30 1290 H 121.369 -3.40262 0.889629 0
M  V30 1291 H 121.243 -3.67754 -0.838875 0
M  V30 1292 H 123.63 -2.72798 -1.1254 0
M  V30 1293 H 123.711 -2.48053 0.62475 0
M  V30 1294 H 123.355 -4.98496 0.972824 0
M  V30 1295 H 123.285 -5.20586 -0.793556 0
M  V30 1296 H 125.776 -3.7753 -0.167244 0
M  V30 1297 H 126.089 -7.72279 0.283781 0
M  V30 1298 H 124.434 -6.94556 0.248267 0
M  V30 1299 H 127.625 -4.67938 -0.122958 0
M  V30 1300 H 127.798 -6.47948 0.0824844 0
M  V30 1301 N 121.204 0.198386 -1.56346 0
M  V30 1302 C 122.451 0.919286 -1.80431 0
M  V30 1303 C 122.779 1.83393 -0.647866 0
M  V30 1304 O 122.034 1.92236 0.366556 0
M  V30 1305 C 122.333 1.77031 -3.10475 0
M  V30 1306 C 121.999 1.00693 -4.39513 0
M  V30 1307 C 120.661 0.796145 -4.74568 0
M  V30 1308 C 123.013 0.469559 -5.19081 0
M  V30 1309 C 120.341 0.0364588 -5.86689 0
M  V30 1310 C 122.693 -0.2769 -6.31994 0
M  V30 1311 C 121.357 -0.49873 -6.65634 0
M  V30 1312 H 120.627 0.336391 -0.660244 0
M  V30 1313 H 123.274 0.185872 -1.90596 0
M  V30 1314 H 121.579 2.5723 -2.95533 0
M  V30 1315 H 123.276 2.33065 -3.26315 0
M  V30 1316 H 119.866 1.18122 -4.12001 0
M  V30 1317 H 124.05 0.619816 -4.92414 0
M  V30 1318 H 119.306 -0.145412 -6.11227 0
M  V30 1319 H 123.48 -0.700684 -6.92866 0
M  V30 1320 H 121.107 -1.0893 -7.52355 0
M  V30 1321 N 122.682 1.50554 0.465978 0
M  V30 1322 C 123.931 1.61038 1.21448 0
M  V30 1323 C 124.244 0.31865 1.92987 0
M  V30 1324 O 125.45 0.302469 2.6981 0
M  V30 1325 C 123.906 2.84283 2.20706 0
M  V30 1326 C 123.514 4.20352 1.54946 0
M  V30 1327 C 125.258 3.04115 2.96166 0
M  V30 1328 C 123.165 5.34778 2.5252 0
M  V30 1329 H 122.095 0.599718 0.457005 0
M  V30 1330 H 124.746 1.7699 0.484424 0
M  V30 1331 H 123.128 2.61901 2.97025 0
M  V30 1332 H 124.302 4.53008 0.843811 0
M  V30 1333 H 122.617 4.06167 0.917475 0
M  V30 1334 H 125.214 3.86774 3.69202 0
M  V30 1335 H 125.557 2.16045 3.55852 0
M  V30 1336 H 126.09 3.26702 2.26959 0
M  V30 1337 H 122.829 6.25018 1.97566 0
M  V30 1338 H 122.349 5.06534 3.21222 0
M  V30 1339 H 124.028 5.65561 3.14245 0
M  V30 1340 N 124.16 -0.719506 1.40217 0
M  V30 1341 C 125.576 -1.02707 1.22161 0
M  V30 1342 C 125.776 -2.0128 0.0940557 0
M  V30 1343 O 124.832 -2.46452 -0.549318 0
M  V30 1344 C 126.145 -1.57454 2.56181 0
M  V30 1345 C 127.693 -1.69458 2.63159 0
M  V30 1346 C 128.168 -2.27611 3.97438 0
M  V30 1347 N 129.659 -2.35002 3.99159 0
M  V30 1348 C 130.394 -2.80972 4.99842 0
M  V30 1349 N 129.89 -3.26723 6.10921 0
M  V30 1350 N 131.683 -2.80321 4.87213 0
M  V30 1351 H 123.834 -0.0660492 2.12297 0
M  V30 1352 H 126.097 -0.0919077 0.943534 0
M  V30 1353 H 125.803 -0.924873 3.39321 0
M  V30 1354 H 125.677 -2.56036 2.76993 0
M  V30 1355 H 128.064 -2.33543 1.80393 0
M  V30 1356 H 128.145 -0.694867 2.46181 0
M  V30 1357 H 127.789 -1.6415 4.80643 0
M  V30 1358 H 127.719 -3.2829 4.11744 0
M  V30 1359 H 130.21 -2.02685 3.18947 0
M  V30 1360 H 130.523 -3.60355 6.8364 0
M  V30 1361 H 128.868 -3.24692 6.14492 0
M  V30 1362 H 132.059 -2.43912 3.9953 0
M  V30 1363 H 132.232 -3.15831 5.65822 0
M  V30 1364 N 125.638 -1.25649 -0.95132 0
M  V30 1365 C 126.866 -1.13343 -1.73092 0
M  V30 1366 C 127.281 0.312434 -1.86197 0
M  V30 1367 O 126.638 1.21465 -1.36207 0
M  V30 1368 C 126.689 -1.78602 -3.14299 0
M  V30 1369 O 126.41 -3.17537 -3.01831 0
M  V30 1370 C 127.911 -1.72119 -4.08522 0
M  V30 1371 H 125.131 -0.395181 -0.542285 0
M  V30 1372 H 127.675 -1.66076 -1.19328 0
M  V30 1373 H 125.83 -1.29832 -3.64996 0
M  V30 1374 H 126.244 -3.49676 -3.90931 0
M  V30 1375 H 127.718 -2.22435 -5.052 0
M  V30 1376 H 128.195 -0.685635 -4.33815 0
M  V30 1377 H 128.801 -2.20393 -3.63741 0
M  V30 1378 N 127.117 1.15442 -1.07289 0
M  V30 1379 C 128.394 1.82306 -0.708792 0
M  V30 1380 C 128.774 1.94991 0.808807 0
M  V30 1381 O 128.122 1.50085 1.72298 0
M  V30 1382 C 128.332 3.18695 -1.42247 0
M  V30 1383 C 129.68 3.94341 -1.57417 0
M  V30 1384 O 130.704 3.28247 -1.38319 0
M  V30 1385 O 129.563 5.12839 -1.88834 0
M  V30 1386 H 126.657 0.787628 -0.252132 0
M  V30 1387 H 129.203 1.22559 -1.17377 0
M  V30 1388 H 127.975 3.04557 -2.45684 0
M  V30 1389 H 127.598 3.86128 -0.948223 0
M  V30 1390 N 128.595 0.856903 1.32268 0
M  V30 1391 C 129.558 0.308171 2.27119 0
M  V30 1392 C 130.558 -0.533421 1.51695 0
M  V30 1393 O 131.748 -0.344607 1.70757 0
M  V30 1394 C 128.88 -0.563757 3.36206 0
M  V30 1395 H 130.073 1.14535 2.77167 0
M  V30 1396 H 127.626 0.631421 1.42978 0
M  V30 1397 H 128.361 -1.42266 2.91429 0
M  V30 1398 H 128.146 0.0386749 3.92081 0
M  V30 1399 H 129.636 -0.940386 4.06874 0
M  V30 1400 N 130.073 -1.45103 0.615059 0
M  V30 1401 C 131.303 -2.06254 0.119596 0
M  V30 1402 C 131.711 -1.4591 -1.20445 0
M  V30 1403 O 131.054 -0.570384 -1.7462 0
M  V30 1404 C 131.116 -3.59396 -0.0865591 0
M  V30 1405 C 130.78 -4.42116 1.15683 0
M  V30 1406 C 131.777 -4.7662 2.07676 0
M  V30 1407 C 129.462 -4.82749 1.38775 0
M  V30 1408 C 131.456 -5.50622 3.21082 0
M  V30 1409 C 129.143 -5.56504 2.52481 0
M  V30 1410 C 130.141 -5.90358 3.43463 0
M  V30 1411 O 129.829 -6.62615 4.55189 0
M  V30 1412 H 129.561 -0.672423 0.0694512 0
M  V30 1413 H 132.115 -1.87219 0.844885 0
M  V30 1414 H 130.345 -3.76859 -0.866823 0
M  V30 1415 H 132.034 -4.02365 -0.534555 0
M  V30 1416 H 132.8 -4.4578 1.91063 0
M  V30 1417 H 128.679 -4.55829 0.688545 0
M  V30 1418 H 132.223 -5.76965 3.92119 0
M  V30 1419 H 128.12 -5.86759 2.69043 0
M  V30 1420 H 128.888 -6.81071 4.53966 0
M  V30 1421 N 131.551 -0.354651 -1.53558 0
M  V30 1422 C 132.797 0.238797 -2.01389 0
M  V30 1423 C 133.13 1.49309 -1.2418 0
M  V30 1424 O 132.405 1.91638 -0.332457 0
M  V30 1425 C 132.688 0.541771 -3.56001 0
M  V30 1426 C 132.541 -0.725388 -4.43912 0
M  V30 1427 C 133.86 1.34685 -4.18984 0
M  V30 1428 H 130.979 0.0853177 -0.732045 0
M  V30 1429 H 133.621 -0.477384 -1.83905 0
M  V30 1430 H 131.771 1.15189 -3.71031 0
M  V30 1431 H 133.443 -1.36313 -4.407 0
M  V30 1432 H 131.686 -1.34801 -4.12324 0
M  V30 1433 H 132.357 -0.468505 -5.50008 0
M  V30 1434 H 134.833 0.830837 -4.07721 0
M  V30 1435 H 133.709 1.52759 -5.27215 0
M  V30 1436 H 133.97 2.35221 -3.74331 0
M  V30 1437 N 133.029 1.57378 -0.0835403 0
M  V30 1438 C 134.445 1.57246 0.273109 0
M  V30 1439 C 134.645 1.09385 1.69225 0
M  V30 1440 O 133.701 0.765051 2.40631 0
M  V30 1441 C 135.014 3.00614 0.0720628 0
M  V30 1442 C 136.562 3.12684 0.1407 0
M  V30 1443 C 137.037 4.57989 -0.0322094 0
M  V30 1444 N 138.528 4.63194 0.0230085 0
M  V30 1445 C 139.263 5.73335 -0.0861941 0
M  V30 1446 N 138.759 6.9235 -0.24958 0
M  V30 1447 N 140.552 5.62093 -0.0282886 0
M  V30 1448 H 132.703 1.86801 -1.0109 0
M  V30 1449 H 134.966 0.861687 -0.395222 0
M  V30 1450 H 134.672 3.39786 -0.907662 0
M  V30 1451 H 134.546 3.68193 0.81936 0
M  V30 1452 H 136.933 2.73391 1.11092 0
M  V30 1453 H 137.014 2.47719 -0.637896 0
M  V30 1454 H 136.658 4.97973 -0.999247 0
M  V30 1455 H 136.588 5.21 0.765937 0
M  V30 1456 H 139.079 3.77613 0.14722 0
M  V30 1457 H 139.392 7.72117 -0.324733 0
M  V30 1458 H 137.737 6.94415 -0.285097 0
M  V30 1459 H 140.928 4.67997 0.0981408 0
M  V30 1460 H 141.101 6.47895 -0.116845 0
M  V30 1461 N 134.507 -0.190092 1.56449 0
M  V30 1462 C 135.47 -1.21925 1.9408 0
M  V30 1463 C 136.47 -1.38176 0.822431 0
M  V30 1464 O 137.66 -1.35903 1.08977 0
M  V30 1465 C 134.792 -2.58773 2.21922 0
M  V30 1466 H 135.985 -0.897464 2.86157 0
M  V30 1467 H 133.538 -0.43181 1.50217 0
M  V30 1468 H 134.273 -2.95998 1.32499 0
M  V30 1469 H 134.058 -2.48348 3.03424 0
M  V30 1470 H 135.548 -3.32978 2.52022 0
M  V30 1471 N 135.985 -1.50799 -0.457987 0
M  V30 1472 C 136.918 -1.65273 -1.57353 0
M  V30 1473 C 137.896 -0.500578 -1.54703 0
M  V30 1474 O 139.08 -0.721781 -1.74134 0
M  V30 1475 C 136.207 -1.64737 -2.95938 0
M  V30 1476 C 135.253 -2.8567 -3.16693 0
M  V30 1477 S 136.086 -4.46791 -2.95191 0
M  V30 1478 C 137.242 -4.48968 -4.36095 0
M  V30 1479 H 137.475 -2.59633 -1.44838 0
M  V30 1480 H 135.008 -1.40225 -0.64625 0
M  V30 1481 H 136.966 -1.65112 -3.7583 0
M  V30 1482 H 135.627 -0.715899 -3.05833 0
M  V30 1483 H 134.82 -2.81637 -4.17967 0
M  V30 1484 H 134.422 -2.8293 -2.44594 0
M  V30 1485 H 136.714 -4.23337 -5.28954 0
M  V30 1486 H 137.657 -5.50664 -4.45168 0
M  V30 1487 H 138.065 -3.78522 -4.18786 0
M  V30 1488 N 137.463 0.71206 -1.40597 0
M  V30 1489 C 138.691 1.50111 -1.42388 0
M  V30 1490 C 139.106 1.88784 -0.0245395 0
M  V30 1491 O 138.463 1.55681 0.952351 0
M  V30 1492 C 138.514 2.7742 -2.31776 0
M  V30 1493 O 138.235 2.40382 -3.66262 0
M  V30 1494 C 139.736 3.7129 -2.42196 0
M  V30 1495 H 136.956 0.46314 -0.485533 0
M  V30 1496 H 139.5 0.878068 -1.8469 0
M  V30 1497 H 137.655 3.36001 -1.92827 0
M  V30 1498 H 138.069 3.22324 -4.13772 0
M  V30 1499 H 139.543 4.57448 -3.08943 0
M  V30 1500 H 140.02 4.14641 -1.44809 0
M  V30 1501 H 140.626 3.18619 -2.81712 0
M  V30 1502 N 138.941 1.26152 0.944643 0
M  V30 1503 C 139.851 1.09176 2.07648 0
M  V30 1504 C 140.867 0.0261935 1.7398 0
M  V30 1505 O 142.043 0.229208 2.00091 0
M  V30 1506 C 139.108 0.722915 3.39079 0
M  V30 1507 C 138.169 1.86752 3.86552 0
M  V30 1508 C 137.402 1.51617 5.11711 0
M  V30 1509 O 137.625 0.416331 5.68879 0
M  V30 1510 O 136.559 2.34975 5.54139 0
M  V30 1511 H 140.385 2.0412 2.24875 0
M  V30 1512 H 137.97 1.05182 1.061 0
M  V30 1513 H 139.852 0.529787 4.18056 0
M  V30 1514 H 138.527 -0.197159 3.23099 0
M  V30 1515 H 137.434 2.11558 3.08535 0
M  V30 1516 H 138.767 2.76719 4.07047 0
M  V30 1517 N 140.419 -1.14872 1.07899 0
M  V30 1518 C 141.366 -2.19791 0.704319 0
M  V30 1519 C 142.336 -1.63238 -0.306987 0
M  V30 1520 O 143.521 -1.8983 -0.192171 0
M  V30 1521 C 140.661 -3.44911 0.114244 0
M  V30 1522 C 139.774 -4.15637 1.1777 0
M  V30 1523 C 138.909 -5.28324 0.552037 0
M  V30 1524 C 137.948 -5.90875 1.59789 0
M  V30 1525 N 137.085 -6.95022 0.994404 0
M  V30 1526 H 141.925 -2.5119 1.60336 0
M  V30 1527 H 139.462 -1.23356 0.801352 0
M  V30 1528 H 141.42 -4.16477 -0.245544 0
M  V30 1529 H 140.05 -3.14011 -0.74813 0
M  V30 1530 H 139.102 -3.42512 1.65499 0
M  V30 1531 H 140.414 -4.5823 1.97046 0
M  V30 1532 H 139.568 -6.06538 0.1402 0
M  V30 1533 H 138.307 -4.86939 -0.272431 0
M  V30 1534 H 137.312 -5.11369 2.01945 0
M  V30 1535 H 138.537 -6.34337 2.42474 0
M  V30 1536 H 136.483 -6.55722 0.190939 0
M  V30 1537 H 136.4 -7.36073 1.72432 0
M  V30 1538 H 137.668 -7.77123 0.608253 0
M  V30 1539 N 141.898 -0.863906 -1.31812 0
M  V30 1540 C 143.314 -0.555004 -1.49639 0
M  V30 1541 C 143.514 0.912266 -1.79666 0
M  V30 1542 O 142.57 1.69479 -1.87171 0
M  V30 1543 C 143.883 -1.44998 -2.63431 0
M  V30 1544 C 145.431 -1.45138 -2.77316 0
M  V30 1545 C 145.906 -2.33179 -3.94197 0
M  V30 1546 N 147.397 -2.31025 -4.01474 0
M  V30 1547 C 148.132 -2.95871 -4.9117 0
M  V30 1548 N 147.628 -3.69863 -5.8581 0
M  V30 1549 N 149.421 -2.85211 -4.84367 0
M  V30 1550 H 141.572 -1.81339 -1.10589 0
M  V30 1551 H 143.835 -0.77505 -0.545895 0
M  V30 1552 H 143.541 -2.49377 -2.48 0
M  V30 1553 H 143.415 -1.14409 -3.59431 0
M  V30 1554 H 145.802 -0.415201 -2.92164 0
M  V30 1555 H 145.883 -1.79747 -1.82001 0
M  V30 1556 H 145.527 -3.3687 -3.80107 0
M  V30 1557 H 145.457 -1.95897 -4.88807 0
M  V30 1558 H 147.948 -1.77238 -3.33759 0
M  V30 1559 H 148.261 -4.16486 -6.50968 0
M  V30 1560 H 146.606 -3.73971 -5.85808 0
M  V30 1561 H 149.797 -2.26948 -4.09405 0
M  V30 1562 H 149.97 -3.36027 -5.54066 0
M  V30 1563 N 143.376 1.44774 -0.622745 0
M  V30 1564 C 144.625 2.01334 -0.121397 0
M  V30 1565 C 144.938 1.49505 1.26125 0
M  V30 1566 O 146.144 1.98139 1.85616 0
M  V30 1567 C 144.6 3.59516 -0.166298 0
M  V30 1568 C 144.208 4.20342 -1.54974 0
M  V30 1569 C 145.952 4.23582 0.279021 0
M  V30 1570 C 143.859 5.70721 -1.55021 0
M  V30 1571 H 142.789 0.752851 -0.0416172 0
M  V30 1572 H 145.44 1.66083 -0.780309 0
M  V30 1573 H 143.822 3.92027 0.559557 0
M  V30 1574 H 144.996 3.99381 -2.29851 0
M  V30 1575 H 143.311 3.68529 -1.93843 0
M  V30 1576 H 145.908 5.33868 0.298083 0
M  V30 1577 H 146.251 3.95327 1.30471 0
M  V30 1578 H 146.784 3.95843 -0.394063 0
M  V30 1579 H 143.523 6.03698 -2.55399 0
M  V30 1580 H 143.043 5.93829 -0.844245 0
M  V30 1581 H 144.722 6.34203 -1.28047 0
M  V30 1582 N 144.854 0.36279 1.53368 0
M  V30 1583 C 146.1 -0.228113 2.01513 0
M  V30 1584 C 146.433 -1.48648 1.2497 0
M  V30 1585 O 145.708 -1.91459 0.342616 0
M  V30 1586 C 145.991 -0.522884 3.56284 0
M  V30 1587 C 145.844 0.74892 4.43521 0
M  V30 1588 C 147.163 -1.32461 4.19693 0
M  V30 1589 H 144.282 -0.0814343 0.732487 0
M  V30 1590 H 146.924 0.48713 1.83649 0
M  V30 1591 H 145.074 -1.1322 3.71636 0
M  V30 1592 H 146.746 1.38648 4.39971 0
M  V30 1593 H 144.989 1.36986 4.11603 0
M  V30 1594 H 145.66 0.497667 5.49752 0
M  V30 1595 H 148.136 -0.809203 4.08156 0
M  V30 1596 H 147.012 -1.49961 5.28018 0
M  V30 1597 H 147.273 -2.33232 3.75573 0
M  V30 1598 N 146.332 -1.57332 0.0918853 0
M  V30 1599 C 147.581 -1.93412 -0.572249 0
M  V30 1600 C 147.894 -0.975515 -1.69538 0
M  V30 1601 O 149.1 -1.22991 -2.42045 0
M  V30 1602 C 147.556 -3.43648 -1.0693 0
M  V30 1603 C 147.164 -4.47994 0.0239049 0
M  V30 1604 C 148.908 -3.88695 -1.70635 0
M  V30 1605 C 146.815 -5.89381 -0.488319 0
M  V30 1606 H 145.745 -0.721939 -0.217532 0
M  V30 1607 H 148.396 -1.82735 0.167369 0
M  V30 1608 H 146.778 -3.49466 -1.8625 0
M  V30 1609 H 147.952 -4.53815 0.799277 0
M  V30 1610 H 146.267 -4.12536 0.565946 0
M  V30 1611 H 148.864 -4.91725 -2.10025 0
M  V30 1612 H 149.207 -3.27166 -2.57426 0
M  V30 1613 H 149.74 -3.85564 -0.979023 0
M  V30 1614 H 146.479 -6.54602 0.342906 0
M  V30 1615 H 145.999 -5.87037 -1.23077 0
M  V30 1616 H 147.678 -6.39863 -0.958317 0
M  V30 1617 N 147.81 0.181792 -1.56548 0
M  V30 1618 C 149.038 0.915947 -1.85521 0
M  V30 1619 C 149.453 1.76282 -0.676016 0
M  V30 1620 O 148.81 1.79012 0.355077 0
M  V30 1621 C 148.861 1.80126 -3.13427 0
M  V30 1622 O 148.582 0.988562 -4.26801 0
M  V30 1623 C 150.083 2.64597 -3.55673 0
M  V30 1624 H 147.303 0.26661 -0.61576 0
M  V30 1625 H 149.847 0.185039 -2.03661 0
M  V30 1626 H 148.002 2.48563 -2.97145 0
M  V30 1627 H 148.416 1.59308 -4.99721 0
M  V30 1628 H 149.89 3.2235 -4.48101 0
M  V30 1629 H 150.367 3.38958 -2.79292 0
M  V30 1630 H 150.973 2.0151 -3.74532 0
M  V30 1631 N 149.288 1.51039 0.449983 0
M  V30 1632 C 150.198 1.74261 1.57067 0
M  V30 1633 C 151.214 0.626363 1.62335 0
M  V30 1634 O 152.39 0.907162 1.79812 0
M  V30 1635 C 149.455 1.85114 2.93144 0
M  V30 1636 C 148.516 3.0893 2.98095 0
M  V30 1637 C 147.749 3.19256 4.27681 0
M  V30 1638 O 147.972 2.35835 5.19363 0
M  V30 1639 O 146.906 4.12144 4.38658 0
M  V30 1640 H 150.732 2.69303 1.40391 0
M  V30 1641 H 148.317 1.35389 0.631688 0
M  V30 1642 H 150.199 1.94311 3.73926 0
M  V30 1643 H 148.874 0.932588 3.09975 0
M  V30 1644 H 147.781 3.0522 2.16314 0
M  V30 1645 H 149.114 4.00433 2.86206 0
M  V30 1646 N 150.766 -0.704594 1.40972 0
M  V30 1647 C 152.013 -1.46458 1.39844 0
M  V30 1648 C 152.341 -1.94499 0.00447594 0
M  V30 1649 O 151.596 -1.69275 -0.982057 0
M  V30 1650 C 151.895 -2.698 2.34399 0
M  V30 1651 C 151.561 -2.40464 3.81429 0
M  V30 1652 C 150.223 -2.32174 4.21484 0
M  V30 1653 C 152.575 -2.16086 4.74296 0
M  V30 1654 C 149.903 -1.97589 5.52427 0
M  V30 1655 C 152.255 -1.83011 6.05549 0
M  V30 1656 C 150.919 -1.7321 6.44635 0
M  V30 1657 H 150.189 -0.535927 0.511725 0
M  V30 1658 H 152.836 -0.806124 1.73706 0
M  V30 1659 H 151.141 -3.40536 1.93759 0
M  V30 1660 H 152.838 -3.27919 2.30804 0
M  V30 1661 H 149.428 -2.47808 3.49699 0
M  V30 1662 H 153.612 -2.2144 4.4416 0
M  V30 1663 H 148.868 -1.88547 5.81601 0
M  V30 1664 H 153.042 -1.63164 6.77016 0
M  V30 1665 H 150.669 -1.46179 7.46013 0
M  V30 1666 N 152.244 -1.26651 -0.937939 0
M  V30 1667 C 153.492 -1.12165 -1.68118 0
M  V30 1668 C 153.813 0.334983 -1.92101 0
M  V30 1669 O 153.083 1.23583 -1.52 0
M  V30 1670 H 151.663 -0.412093 -0.623048 0
M  V30 1671 H 154.325 -1.59027 -1.12678 0
M  V30 1672 H 153.421 -1.64289 -2.6536 0
M  V30 1673 N 153.722 1.14298 -1.08507 0
M  V30 1674 C 154.95 1.89219 -0.836876 0
M  V30 1675 C 155.365 1.78638 0.611054 0
M  V30 1676 O 154.722 1.14643 1.41998 0
M  V30 1677 C 154.773 3.39158 -1.25116 0
M  V30 1678 O 154.494 3.49449 -2.64229 0
M  V30 1679 C 155.995 4.31073 -1.03398 0
M  V30 1680 H 153.215 0.599328 -0.301739 0
M  V30 1681 H 155.759 1.44746 -1.44461 0
M  V30 1682 H 153.914 3.81251 -0.687514 0
M  V30 1683 H 154.328 4.42589 -2.81452 0
M  V30 1684 H 155.802 5.34646 -1.37323 0
M  V30 1685 H 156.279 4.3919 0.0289259 0
M  V30 1686 H 156.885 3.94738 -1.58311 0
M  V30 1687 N 155.201 0.870884 1.31352 0
M  V30 1688 C 156.441 0.488783 1.9847 0
M  V30 1689 C 156.805 -0.941536 1.67329 0
M  V30 1690 O 158.006 -1.42903 2.27667 0
M  V30 1691 C 156.277 0.739688 3.49662 0
M  V30 1692 S 157.836 0.457582 4.36408 0
M  V30 1693 H 154.654 0.18242 0.6872 0
M  V30 1694 H 157.256 1.12711 1.59739 0
M  V30 1695 H 155.96 1.77944 3.69816 0
M  V30 1696 H 155.491 0.0883905 3.93301 0
M  V30 1697 H 157.506 -0.709752 4.91098 0
M  V30 1698 N 156.679 -1.44442 0.630414 0
M  V30 1699 C 157.642 -2.29107 -0.0652523 0
M  V30 1700 C 158.642 -1.41002 -0.772995 0
M  V30 1701 O 159.832 -1.62881 -0.617692 0
M  V30 1702 C 156.964 -3.22564 -1.10296 0
M  V30 1703 H 158.157 -2.92103 0.679401 0
M  V30 1704 H 155.71 -1.51343 0.390517 0
M  V30 1705 H 156.445 -2.64416 -1.87762 0
M  V30 1706 H 156.23 -3.87491 -0.59941 0
M  V30 1707 H 157.72 -3.86167 -1.5895 0
M  V30 1708 N 158.157 -0.370918 -1.53173 0
M  V30 1709 C 159.404 0.217102 -2.01333 0
M  V30 1710 C 159.732 1.48338 -1.25802 0
M  V30 1711 O 158.987 1.92698 -0.34146 0
M  V30 1712 C 159.286 0.549696 -3.53147 0
M  V30 1713 C 158.952 -0.622872 -4.46577 0
M  V30 1714 C 157.614 -0.944595 -4.71838 0
M  V30 1715 C 159.966 -1.40819 -5.01816 0
M  V30 1716 C 157.294 -2.05351 -5.49589 0
M  V30 1717 C 159.646 -2.50757 -5.80778 0
M  V30 1718 C 158.31 -2.83458 -6.04324 0
M  V30 1719 H 157.58 0.0794431 -0.736729 0
M  V30 1720 H 160.227 -0.504481 -1.84736 0
M  V30 1721 H 158.532 1.35237 -3.6772 0
M  V30 1722 H 160.229 1.017 -3.87889 0
M  V30 1723 H 156.819 -0.36209 -4.27068 0
M  V30 1724 H 161.003 -1.17289 -4.82242 0
M  V30 1725 H 156.259 -2.3108 -5.6605 0
M  V30 1726 H 160.433 -3.12022 -6.22588 0
M  V30 1727 H 158.06 -3.69508 -6.64355 0
M  V30 1728 N 159.635 1.57281 -0.100228 0
M  V30 1729 C 161.046 1.81725 0.428107 0
M  V30 1730 C 161.397 1.01619 1.67833 0
M  V30 1731 O 160.522 0.247098 2.14985 0
M  V30 1732 C 161.117 3.29617 0.78347 0
M  V30 1733 C 159.676 3.54808 1.25653 0
M  V30 1734 C 158.823 2.76118 0.255752 0
M  V30 1735 H 161.774 1.55324 -0.325608 0
M  V30 1736 H 161.795 3.4322 1.64256 0
M  V30 1737 H 161.307 3.87893 -0.12665 0
M  V30 1738 H 159.408 3.01868 2.18418 0
M  V30 1739 H 159.521 4.63443 1.21482 0
M  V30 1740 H 157.885 2.43745 0.738956 0
M  V30 1741 H 158.668 3.37145 -0.647136 0
M  V30 1742 N 161.113 -0.173488 1.56642 0
M  V30 1743 C 162.39 -0.917617 1.7274 0
M  V30 1744 C 162.77 -2.00484 0.661027 0
M  V30 1745 O 162.118 -2.26184 -0.32453 0
M  V30 1746 C 162.328 -1.48433 3.15862 0
M  V30 1747 C 163.676 -1.95809 3.76754 0
M  V30 1748 O 164.7 -1.58231 3.19126 0
M  V30 1749 O 163.559 -2.65024 4.77938 0
M  V30 1750 H 160.653 -0.431772 0.705338 0
M  V30 1751 H 163.199 -0.161487 1.6893 0
M  V30 1752 H 161.971 -0.701715 3.84957 0
M  V30 1753 H 161.594 -2.30471 3.23989 0
M  V30 1754 N 162.591 -1.51276 -0.441967 0
M  V30 1755 C 164.002 -1.56244 -1.02199 0
M  V30 1756 C 164.353 -0.383149 -1.92422 0
M  V30 1757 O 163.478 0.500613 -2.1053 0
M  V30 1758 C 164.073 -2.83162 -1.86024 0
M  V30 1759 C 162.632 -2.90716 -2.39084 0
M  V30 1760 C 161.779 -2.50858 -1.18175 0
M  V30 1761 H 164.73 -1.5712 -0.223416 0
M  V30 1762 H 164.751 -2.66663 -2.71425 0
M  V30 1763 H 164.263 -3.68974 -1.20331 0
M  V30 1764 H 162.364 -2.09323 -3.08244 0
M  V30 1765 H 162.477 -3.94266 -2.72198 0
M  V30 1766 H 160.841 -2.03951 -1.52565 0
M  V30 1767 H 161.624 -3.3901 -0.541001 0
M  V30 1768 N 164.069 0.697108 -1.41344 0
M  V30 1769 C 165.309 1.46939 -1.42085 0
M  V30 1770 C 165.673 1.9198 -0.0280397 0
M  V30 1771 O 166.874 2.6865 0.0897504 0
M  V30 1772 C 165.145 2.64985 -2.39828 0
M  V30 1773 S 166.704 3.54147 -2.59085 0
M  V30 1774 H 163.522 0.502146 -0.503359 0
M  V30 1775 H 166.124 0.813546 -1.77769 0
M  V30 1776 H 164.828 2.30098 -3.39828 0
M  V30 1777 H 164.359 3.35464 -2.05493 0
M  V30 1778 H 166.374 4.60137 -1.85711 0
M  V30 1779 N 165.547 1.27147 0.931209 0
M  V30 1780 C 166.494 1.09568 2.03134 0
M  V30 1781 C 167.464 -0.00222433 1.661 0
M  V30 1782 O 168.649 0.159439 1.90133 0
M  V30 1783 C 165.789 0.745231 3.36957 0
M  V30 1784 C 164.902 1.92041 3.86968 0
M  V30 1785 C 164.037 1.51216 5.09222 0
M  V30 1786 C 163.076 2.65504 5.5152 0
M  V30 1787 N 162.213 2.25291 6.64972 0
M  V30 1788 H 167.053 2.03708 2.17502 0
M  V30 1789 H 164.59 1.01411 1.06556 0
M  V30 1790 H 166.548 0.522878 4.1391 0
M  V30 1791 H 165.178 -0.159202 3.22407 0
M  V30 1792 H 164.23 2.25541 3.06326 0
M  V30 1793 H 165.542 2.77787 4.1429 0
M  V30 1794 H 164.696 1.25084 5.93666 0
M  V30 1795 H 163.435 0.625749 4.83669 0
M  V30 1796 H 162.44 2.92354 4.65628 0
M  V30 1797 H 163.665 3.54761 5.7907 0
M  V30 1798 H 161.611 1.39098 6.41083 0
M  V30 1799 H 161.528 3.04577 6.91931 0
M  V30 1800 H 162.796 2.02398 7.52765 0
M  V30 1801 N 167.025 -1.13721 1.09112 0
M  V30 1802 C 167.973 -2.21103 0.722219 0
M  V30 1803 C 168.967 -1.67147 -0.275374 0
M  V30 1804 O 170.173 -1.79477 -0.137176 0
M  V30 1805 H 166.548 -0.720445 0.215553 0
M  V30 1806 H 168.519 -2.49483 1.63709 0
M  V30 1807 C 167.268 -3.47352 0.15543 0
M  V30 1808 H 166.591 -3.89206 0.914246 0
M  V30 1809 H 168.031 -4.2395 -0.0647967 0
M  V30 1810 C 166.49 -3.1814 -1.10852 0
M  V30 1811 O 167.02 -3.36604 -2.19227 0
M  V30 1812 N 165.226 -2.72045 -1.02176 0
M  V30 1813 H 164.773 -2.57221 -0.139764 0
M  V30 1814 H 164.731 -2.52875 -1.8682 0
M  V30 1815 N 168.503 -0.877838 -1.30888 0
M  V30 1816 C 169.752 -0.488793 -1.95688 0
M  V30 1817 C 170.065 0.965485 -1.70111 0
M  V30 1818 O 171.271 1.46104 -2.28836 0
M  V30 1819 C 169.727 -0.823201 -3.50359 0
M  V30 1820 C 169.335 -2.29477 -3.84765 0
M  V30 1821 C 171.079 -0.503009 -4.21509 0
M  V30 1822 C 168.986 -2.57118 -5.32583 0
M  V30 1823 H 167.916 -0.179062 -0.732429 0
M  V30 1824 H 170.567 -1.07183 -1.48943 0
M  V30 1825 H 168.949 -0.169331 -3.95638 0
M  V30 1826 H 170.123 -2.99236 -3.5042 0
M  V30 1827 H 168.438 -2.58178 -3.267 0
M  V30 1828 H 171.035 -0.68665 -5.30273 0
M  V30 1829 H 171.378 0.557109 -4.12555 0
M  V30 1830 H 171.911 -1.11376 -3.8189 0
M  V30 1831 H 168.65 -3.61843 -5.4658 0
M  V30 1832 H 168.17 -1.91961 -5.68253 0
M  V30 1833 H 169.849 -2.42251 -5.99936 0
M  V30 1834 N 169.982 1.44106 -0.638065 0
M  V30 1835 C 171.229 2.01978 -0.14533 0
M  V30 1836 C 171.557 1.50234 1.23532 0
M  V30 1837 O 170.812 0.679548 1.83523 0
M  V30 1838 C 171.111 3.5729 -0.0887327 0
M  V30 1839 C 170.777 4.28317 -1.40909 0
M  V30 1840 C 169.439 4.47437 -1.77069 0
M  V30 1841 C 171.791 4.6867 -2.28031 0
M  V30 1842 C 169.119 5.04171 -3.00047 0
M  V30 1843 C 171.471 5.26766 -3.50286 0
M  V30 1844 C 170.135 5.44104 -3.86661 0
M  V30 1845 H 169.405 0.739089 -0.0531801 0
M  V30 1846 H 172.052 1.72781 -0.825761 0
M  V30 1847 H 170.357 3.8594 0.675095 0
M  V30 1848 H 172.054 3.99807 0.309145 0
M  V30 1849 H 168.644 4.1377 -1.1177 0
M  V30 1850 H 172.828 4.53604 -2.01388 0
M  V30 1851 H 168.084 5.15782 -3.28298 0
M  V30 1852 H 172.258 5.56983 -4.18023 0
M  V30 1853 H 169.885 5.87832 -4.82034 0
M  V30 1854 N 171.46 0.379036 1.52974 0
M  V30 1855 C 172.685 -0.209353 2.06341 0
M  V30 1856 C 173.11 -1.40583 1.24972 0
M  V30 1857 O 172.468 -1.79246 0.272155 0
M  V30 1858 C 172.516 -0.567786 3.56102 0
M  V30 1859 O 171.62 -1.66318 3.77375 0
M  V30 1860 H 170.961 -0.0272919 0.663439 0
M  V30 1861 H 173.491 0.543536 1.97248 0
M  V30 1862 H 173.501 -0.835003 3.99364 0
M  V30 1863 H 172.176 0.307013 4.14765 0
M  V30 1864 H 170.753 -1.39048 3.46006 0
M  V30 1865 N 172.938 -1.57226 0.108567 0
M  V30 1866 C 174.354 -1.5766 -0.248058 0
M  V30 1867 C 174.554 -1.12063 -1.67464 0
M  V30 1868 O 173.61 -0.803236 -2.39383 0
M  V30 1869 C 174.923 -3.0069 -0.0242287 0
M  V30 1870 C 176.471 -3.12868 -0.0909372 0
M  V30 1871 C 176.946 -4.57879 0.105067 0
M  V30 1872 N 178.437 -4.63172 0.0506846 0
M  V30 1873 C 179.172 -5.73126 0.177396 0
M  V30 1874 N 178.668 -6.91866 0.359696 0
M  V30 1875 N 180.461 -5.61977 0.117709 0
M  V30 1876 H 172.612 -1.85169 1.04049 0
M  V30 1877 H 174.875 -0.85529 0.40888 0
M  V30 1878 H 174.581 -3.38299 0.961604 0
M  V30 1879 H 174.455 -3.6945 -0.76068 0
M  V30 1880 H 176.842 -2.75124 -1.06729 0
M  V30 1881 H 176.923 -2.46672 0.677225 0
M  V30 1882 H 176.567 -4.96321 1.07834 0
M  V30 1883 H 176.497 -5.22153 -0.682954 0
M  V30 1884 H 178.988 -3.778 -0.0871266 0
M  V30 1885 H 179.301 -7.71503 0.447529 0
M  V30 1886 H 177.646 -6.93874 0.395536 0
M  V30 1887 H 180.837 -4.68094 -0.0236741 0
M  V30 1888 H 181.01 -6.47627 0.219905 0
M  V30 1889 N 174.416 0.165178 -1.56732 0
M  V30 1890 C 175.663 0.880807 -1.8234 0
M  V30 1891 C 175.991 1.81977 -0.686621 0
M  V30 1892 O 175.246 1.92971 0.325697 0
M  V30 1893 C 175.545 1.70405 -3.1416 0
M  V30 1894 C 175.211 0.913475 -4.4155 0
M  V30 1895 C 173.873 0.695303 -4.7615 0
M  V30 1896 C 176.225 0.359349 -5.1996 0
M  V30 1897 C 173.553 -0.0879947 -5.86634 0
M  V30 1898 C 175.905 -0.410893 -6.31264 0
M  V30 1899 C 174.569 -0.639808 -6.64427 0
M  V30 1900 H 173.839 0.32231 -0.667231 0
M  V30 1901 H 176.486 0.145402 -1.90947 0
M  V30 1902 H 174.791 2.50903 -3.00923 0
M  V30 1903 H 176.488 2.26091 -3.31186 0
M  V30 1904 H 173.078 1.09357 -4.14414 0
M  V30 1905 H 177.262 0.515228 -4.93618 0
M  V30 1906 H 172.518 -0.27503 -6.10781 0
M  V30 1907 H 176.692 -0.847494 -6.91224 0
M  V30 1908 H 174.319 -1.24864 -7.49875 0
M  V30 1909 N 175.894 1.51508 0.433938 0
M  V30 1910 C 177.141 1.64345 1.18309 0
M  V30 1911 C 177.469 0.361315 1.91115 0
M  V30 1912 O 176.724 -0.654753 1.84422 0
M  V30 1913 C 177.023 2.79928 2.22205 0
M  V30 1914 C 176.689 4.19078 1.66387 0
M  V30 1915 C 175.351 4.56932 1.50887 0
M  V30 1916 C 177.703 5.05894 1.25381 0
M  V30 1917 C 175.031 5.79305 0.928608 0
M  V30 1918 C 177.383 6.2885 0.687823 0
M  V30 1919 C 176.047 6.65473 0.519755 0
M  V30 1920 H 175.317 0.601381 0.432923 0
M  V30 1921 H 177.964 1.85549 0.473676 0
M  V30 1922 H 176.269 2.52959 2.99197 0
M  V30 1923 H 177.966 2.87059 2.79997 0
M  V30 1924 H 174.556 3.89234 1.79428 0
M  V30 1925 H 178.74 4.77253 1.36175 0
M  V30 1926 H 173.996 6.06324 0.786186 0
M  V30 1927 H 178.17 6.95461 0.361581 0
M  V30 1928 H 175.797 7.6017 0.0679979 0
M  V30 1929 N 177.372 -0.689602 1.41712 0
M  V30 1930 C 178.597 -1.48329 1.44959 0
M  V30 1931 C 179.022 -1.8801 0.0581283 0
M  V30 1932 O 178.38 -1.55026 -0.940035 0
M  V30 1933 C 178.428 -2.71835 2.36935 0
M  V30 1934 O 177.532 -3.69549 1.8305 0
M  V30 1935 H 176.873 -0.446199 0.491734 0
M  V30 1936 H 179.403 -0.847127 1.86239 0
M  V30 1937 H 179.413 -3.20076 2.53013 0
M  V30 1938 H 178.088 -2.42291 3.38035 0
M  V30 1939 H 176.665 -3.2851 1.76452 0
M  V30 1940 N 178.85 -1.27639 -0.924453 0
M  V30 1941 C 180.08 -1.16819 -1.70402 0
M  V30 1942 C 180.488 0.277191 -1.87158 0
M  V30 1943 O 179.831 1.20025 -1.39067 0
M  V30 1944 C 179.893 -1.78305 -3.12166 0
M  V30 1945 C 179.557 -3.27502 -3.18734 0
M  V30 1946 C 180.554 -4.2409 -3.00738 0
M  V30 1947 C 178.239 -3.68269 -3.4159 0
M  V30 1948 C 180.233 -5.59422 -3.05492 0
M  V30 1949 C 177.92 -5.0373 -3.45977 0
M  V30 1950 C 178.918 -5.99116 -3.27946 0
M  V30 1951 O 178.606 -7.32108 -3.32074 0
M  V30 1952 H 178.338 -0.406931 -0.539799 0
M  V30 1953 H 180.892 -1.69078 -1.16626 0
M  V30 1954 H 179.122 -1.20528 -3.67437 0
M  V30 1955 H 180.811 -1.62154 -3.72103 0
M  V30 1956 H 181.577 -3.93931 -2.82919 0
M  V30 1957 H 177.456 -2.94496 -3.54673 0
M  V30 1958 H 181 -6.33852 -2.91337 0
M  V30 1959 H 176.897 -5.33543 -3.63321 0
M  V30 1960 H 177.665 -7.40598 -3.48507 0
M  V30 1961 N 180.328 1.1314 -1.09713 0
M  V30 1962 C 181.575 1.84484 -0.834987 0
M  V30 1963 C 181.903 1.83689 0.639418 0
M  V30 1964 O 181.158 1.2724 1.4869 0
M  V30 1965 C 181.457 3.32167 -1.3191 0
M  V30 1966 C 181.123 3.53139 -2.80363 0
M  V30 1967 C 179.785 3.58571 -3.20905 0
M  V30 1968 C 182.137 3.60866 -3.76065 0
M  V30 1969 C 179.465 3.69267 -4.55916 0
M  V30 1970 C 181.817 3.73089 -5.10869 0
M  V30 1971 C 180.481 3.76775 -5.50996 0
M  V30 1972 H 179.751 0.675073 -0.305544 0
M  V30 1973 H 182.398 1.33554 -1.37243 0
M  V30 1974 H 180.703 3.85469 -0.701517 0
M  V30 1975 H 182.4 3.85821 -1.09284 0
M  V30 1976 H 178.99 3.49569 -2.47991 0
M  V30 1977 H 183.174 3.55946 -3.45855 0
M  V30 1978 H 178.43 3.70388 -4.86438 0
M  V30 1979 H 182.604 3.78011 -5.84877 0
M  V30 1980 H 180.231 3.84815 -6.55608 0
M  V30 1981 N 181.806 0.884767 1.30421 0
M  V30 1982 C 183.222 0.57874 1.48737 0
M  V30 1983 C 183.422 -0.883567 1.81095 0
M  V30 1984 O 182.478 -1.6648 1.89844 0
M  V30 1985 C 183.791 1.49171 2.61091 0
M  V30 1986 C 185.339 1.49532 2.74971 0
M  V30 1987 C 185.814 2.39421 3.90438 0
M  V30 1988 N 187.305 2.37383 3.97748 0
M  V30 1989 C 188.04 3.03647 4.86401 0
M  V30 1990 N 187.536 3.79136 5.79852 0
M  V30 1991 N 189.329 2.9288 4.79768 0
M  V30 1992 H 181.48 1.83075 1.0769 0
M  V30 1993 H 183.743 0.783637 0.533495 0
M  V30 1994 H 183.449 2.53291 2.44001 0
M  V30 1995 H 183.323 1.20113 3.57565 0
M  V30 1996 H 185.71 0.46163 2.91467 0
M  V30 1997 H 185.791 1.8262 1.79119 0
M  V30 1998 H 185.435 3.42874 3.74699 0
M  V30 1999 H 185.365 2.03649 4.85628 0
M  V30 2000 H 187.856 1.82525 3.30897 0
M  V30 2001 H 188.169 4.26789 6.4426 0
M  V30 2002 H 186.514 3.83243 5.79784 0
M  V30 2003 H 189.705 2.33433 4.05742 0
M  V30 2004 H 189.878 3.448 5.4865 0
M  V30 2005 N 183.284 -1.43765 0.645699 0
M  V30 2006 C 184.532 -2.01499 0.155731 0
M  V30 2007 C 184.853 -1.51151 -1.232 0
M  V30 2008 O 184.123 -0.721044 -1.82148 0
M  V30 2009 H 182.703 -0.745003 0.0545817 0
M  V30 2010 H 185.365 -1.76075 0.835677 0
M  V30 2011 H 184.461 -3.1181 0.134577 0
M  V30 2012 N 184.763 -0.387143 -1.52771 0
M  V30 2013 C 186.009 0.196025 -2.0185 0
M  V30 2014 C 186.342 1.46641 -1.27319 0
M  V30 2015 O 185.617 1.90889 -0.373032 0
M  V30 2016 C 185.9 0.466136 -3.5707 0
M  V30 2017 C 185.753 -0.819385 -4.42274 0
M  V30 2018 C 187.072 1.25768 -4.21747 0
M  V30 2019 H 184.191 0.0697708 -0.73369 0
M  V30 2020 H 186.833 -0.516286 -1.82851 0
M  V30 2021 H 184.983 1.07293 -3.7339 0
M  V30 2022 H 186.655 -1.4563 -4.37709 0
M  V30 2023 H 184.898 -1.43517 -4.09372 0
M  V30 2024 H 185.569 -0.585065 -5.48891 0
M  V30 2025 H 188.045 0.744167 -4.09391 0
M  V30 2026 H 186.921 1.41541 -5.30337 0
M  V30 2027 H 187.182 2.27228 -3.79236 0
M  V30 2028 N 186.241 1.57166 -0.116904 0
M  V30 2029 C 187.151 2.18745 0.847812 0
M  V30 2030 C 188.167 1.163 1.29423 0
M  V30 2031 O 189.343 1.48761 1.35765 0
M  V30 2032 C 186.408 2.77307 2.0809 0
M  V30 2033 C 185.469 3.94781 1.68661 0
M  V30 2034 C 184.702 4.50541 2.86091 0
M  V30 2035 O 184.925 4.05202 4.01456 0
M  V30 2036 O 183.859 5.41256 2.63298 0
M  V30 2037 H 187.685 3.01632 0.353778 0
M  V30 2038 H 185.27 1.49005 0.108599 0
M  V30 2039 H 187.152 3.14647 2.80313 0
M  V30 2040 H 185.827 1.97452 2.56504 0
M  V30 2041 H 184.734 3.62214 0.935518 0
M  V30 2042 H 186.067 4.76065 1.24991 0
M  V30 2043 N 187.719 -0.156864 1.56817 0
M  V30 2044 C 188.965 -0.872416 1.83076 0
M  V30 2045 C 189.298 -1.81261 0.697001 0
M  V30 2046 O 188.573 -1.92171 -0.30008 0
M  V30 2047 C 188.856 -1.65551 3.19789 0
M  V30 2048 C 188.709 -0.737467 4.43713 0
M  V30 2049 C 190.028 -2.62012 3.53606 0
M  V30 2050 H 187.147 -0.315715 0.665953 0
M  V30 2051 H 189.789 -0.138004 1.89498 0
M  V30 2052 H 187.939 -2.28159 3.14445 0
M  V30 2053 H 189.611 -0.123143 4.61136 0
M  V30 2054 H 187.854 -0.0464067 4.33775 0
M  V30 2055 H 188.525 -1.32122 5.35955 0
M  V30 2056 H 191.001 -2.09525 3.59497 0
M  V30 2057 H 189.877 -3.13861 4.50314 0
M  V30 2058 H 190.138 -3.42902 2.79053 0
M  V30 2059 N 189.197 -1.51736 -0.425897 0
M  V30 2060 C 190.425 -1.68794 -1.1965 0
M  V30 2061 C 190.84 -0.390164 -1.84725 0
M  V30 2062 O 190.197 0.632376 -1.71194 0
M  V30 2063 C 190.248 -2.81174 -2.27208 0
M  V30 2064 O 189.969 -4.05925 -1.64793 0
M  V30 2065 C 191.47 -3.09599 -3.17275 0
M  V30 2066 H 188.69 -0.566128 -0.360194 0
M  V30 2067 H 191.234 -1.98211 -0.503249 0
M  V30 2068 H 189.389 -2.54324 -2.9223 0
M  V30 2069 H 189.803 -4.68423 -2.35967 0
M  V30 2070 H 191.277 -3.91786 -3.88854 0
M  V30 2071 H 191.754 -2.22468 -3.78688 0
M  V30 2072 H 192.36 -3.38151 -2.57941 0
M  V30 2073 N 190.675 0.682077 -1.42076 0
M  V30 2074 C 191.952 1.43755 -1.32642 0
M  V30 2075 C 192.332 2.11063 0.0396611 0
M  V30 2076 O 191.68 2.02701 1.05474 0
M  V30 2077 C 191.89 2.44596 -2.48946 0
M  V30 2078 C 193.238 3.09454 -2.9073 0
M  V30 2079 O 194.262 2.54922 -2.48783 0
M  V30 2080 O 193.121 4.08253 -3.63307 0
M  V30 2081 H 190.215 0.640857 -0.522715 0
M  V30 2082 H 192.761 0.711415 -1.54068 0
M  V30 2083 H 191.533 1.93609 -3.40046 0
M  V30 2084 H 191.156 3.24701 -2.29467 0
M  V30 2085 N 192.153 1.28127 0.917671 0
M  V30 2086 C 193.101 1.11569 2.04096 0
M  V30 2087 C 194.095 0.0360242 1.69362 0
M  V30 2088 O 195.301 0.194501 1.78946 0
M  V30 2089 H 191.676 0.344097 0.668656 0
M  V30 2090 H 193.647 2.06711 2.15205 0
M  V30 2091 C 192.396 0.790197 3.38602 0
M  V30 2092 H 191.719 1.61293 3.6582 0
M  V30 2093 H 193.159 0.714271 4.1794 0
M  V30 2094 C 191.618 -0.505897 3.3308 0
M  V30 2095 O 192.148 -1.53736 3.71117 0
M  V30 2096 N 190.354 -0.505193 2.86175 0
M  V30 2097 H 189.901 0.334621 2.55417 0
M  V30 2098 H 189.859 -1.37243 2.82863 0
M  V30 2099 N 193.631 -1.12557 1.10312 0
M  V30 2100 C 194.594 -2.16434 0.75424 0
M  V30 2101 C 195.594 -1.59278 -0.220685 0
M  V30 2102 O 196.784 -1.742 0.00230591 0
M  V30 2103 C 193.916 -3.40699 0.116987 0
M  V30 2104 H 195.109 -2.48811 1.67431 0
M  V30 2105 H 192.662 -1.27542 0.903475 0
M  V30 2106 H 193.397 -3.13921 -0.813877 0
M  V30 2107 H 193.182 -3.83459 0.818613 0
M  V30 2108 H 194.672 -4.17451 -0.111387 0
M  V30 2109 N 195.109 -0.891671 -1.2995 0
M  V30 2110 C 196.039 -0.379797 -2.30391 0
M  V30 2111 C 197.02 0.540919 -1.6127 0
M  V30 2112 O 198.205 0.453352 -1.88834 0
M  V30 2113 C 195.335 0.400654 -3.44981 0
M  V30 2114 C 194.289 -0.428905 -4.25846 0
M  V30 2115 C 193.615 0.478557 -5.32554 0
M  V30 2116 C 194.915 -1.67458 -4.94727 0
M  V30 2117 H 196.609 -1.21914 -2.73454 0
M  V30 2118 H 194.155 -0.587675 -1.31462 0
M  V30 2119 H 196.108 0.769434 -4.14316 0
M  V30 2120 H 194.832 1.27371 -3.0074 0
M  V30 2121 H 193.491 -0.779911 -3.58208 0
M  V30 2122 H 193.139 1.34951 -4.84559 0
M  V30 2123 H 192.839 -0.0727433 -5.87555 0
M  V30 2124 H 194.363 0.843705 -6.04743 0
M  V30 2125 H 195.777 -1.376 -5.56542 0
M  V30 2126 H 194.174 -2.16659 -5.59624 0
M  V30 2127 H 195.244 -2.41518 -4.20473 0
M  V30 2128 N 196.587 1.43421 -0.653314 0
M  V30 2129 C 197.833 2.02111 -0.166992 0
M  V30 2130 C 198.166 1.51423 1.21592 0
M  V30 2131 O 197.441 0.707389 1.8118 0
M  V30 2132 C 197.724 3.5966 -0.177948 0
M  V30 2133 C 197.577 4.20579 -1.59478 0
M  V30 2134 C 198.896 4.37413 0.4856 0
M  V30 2135 H 196.015 0.734374 -0.0621557 0
M  V30 2136 H 198.657 1.70717 -0.834016 0
M  V30 2137 H 196.807 3.86537 0.390032 0
M  V30 2138 H 198.479 4.04732 -2.21336 0
M  V30 2139 H 196.722 3.77226 -2.14204 0
M  V30 2140 H 197.393 5.29665 -1.5543 0
M  V30 2141 H 199.869 4.161 0.00234528 0
M  V30 2142 H 198.745 5.47075 0.447207 0
M  V30 2143 H 199.006 4.13672 1.55974 0
M  V30 2144 N 198.065 0.39524 1.52563 0
M  V30 2145 C 199.013 -0.451859 2.28169 0
M  V30 2146 C 200.007 -1.05792 1.32304 0
M  V30 2147 O 201.213 -0.997718 1.49818 0
M  V30 2148 H 197.588 -0.164481 0.733792 0
M  V30 2149 H 199.559 0.207199 2.9768 0
M  V30 2150 C 198.308 -1.56385 3.10546 0
M  V30 2151 H 197.631 -1.10682 3.84174 0
M  V30 2152 H 199.071 -2.13067 3.66577 0
M  V30 2153 C 197.53 -2.52328 2.23231 0
M  V30 2154 O 198.06 -3.5588 1.86312 0
M  V30 2155 N 196.266 -2.22209 1.87274 0
M  V30 2156 H 195.813 -1.38033 2.17496 0
M  V30 2157 H 195.771 -2.86652 1.29143 0
M  V30 2158 N 199.544 -1.57102 0.125237 0
M  V30 2159 C 200.79 -1.95697 -0.532035 0
M  V30 2160 C 201.123 -1.009 -1.6593 0
M  V30 2161 O 200.398 -0.047347 -1.94442 0
M  V30 2162 C 200.681 -3.44181 -1.05884 0
M  V30 2163 C 200.534 -4.49752 0.0654392 0
M  V30 2164 C 201.853 -3.94655 -1.9477 0
M  V30 2165 H 198.972 -0.711571 -0.191925 0
M  V30 2166 H 201.614 -1.88923 0.20206 0
M  V30 2167 H 199.764 -3.50085 -1.68442 0
M  V30 2168 H 201.436 -4.55943 0.700982 0
M  V30 2169 H 199.679 -4.27653 0.727709 0
M  V30 2170 H 200.35 -5.50924 -0.344505 0
M  V30 2171 H 202.826 -3.91094 -1.42074 0
M  V30 2172 H 201.702 -4.99057 -2.28546 0
M  V30 2173 H 201.963 -3.35718 -2.87656 0
M  V30 2174 N 201.022 0.148545 -1.56898 0
M  V30 2175 C 202.252 0.875118 -1.8715 0
M  V30 2176 C 202.66 1.75322 -0.711262 0
M  V30 2177 O 202.003 1.80745 0.328151 0
M  V30 2178 C 202.065 1.7844 -3.12089 0
M  V30 2179 C 201.729 1.08361 -4.43967 0
M  V30 2180 C 202.726 0.438247 -5.1805 0
M  V30 2181 C 200.411 1.07358 -4.90693 0
M  V30 2182 C 202.405 -0.20779 -6.37061 0
M  V30 2183 C 200.092 0.42373 -6.09629 0
M  V30 2184 C 201.09 -0.215829 -6.82659 0
M  V30 2185 O 200.778 -0.855378 -7.99336 0
M  V30 2186 H 200.51 0.258504 -0.624621 0
M  V30 2187 H 203.064 0.14652 -2.04877 0
M  V30 2188 H 201.294 2.55389 -2.90367 0
M  V30 2189 H 202.983 2.38279 -3.286 0
M  V30 2190 H 203.749 0.437817 -4.8302 0
M  V30 2191 H 199.628 1.5608 -4.33774 0
M  V30 2192 H 203.172 -0.70758 -6.94002 0
M  V30 2193 H 199.069 0.421822 -6.4412 0
M  V30 2194 H 199.837 -0.756892 -8.14993 0
M  V30 2195 N 202.5 1.5196 0.417844 0
M  V30 2196 C 203.911 1.57851 0.997 0
M  V30 2197 C 204.262 0.413714 1.91789 0
M  V30 2198 O 203.387 -0.467057 2.113 0
M  V30 2199 C 203.982 2.86085 1.81496 0
M  V30 2200 C 202.541 2.94483 2.34428 0
M  V30 2201 C 201.688 2.52707 1.14169 0
M  V30 2202 H 204.639 1.57455 0.198392 0
M  V30 2203 H 204.66 2.70947 2.67148 0
M  V30 2204 H 204.172 3.70842 1.14446 0
M  V30 2205 H 202.273 2.142 3.04875 0
M  V30 2206 H 202.386 3.98546 2.65891 0
M  V30 2207 H 200.75 2.06353 1.49301 0
M  V30 2208 H 201.533 3.39828 0.486999 0
M  V30 2209 N 203.978 -0.674533 1.42435 0
M  V30 2210 C 205.224 -1.43671 1.43131 0
M  V30 2211 C 205.557 -1.94142 0.0476021 0
M  V30 2212 O 204.832 -1.70924 -0.928188 0
M  V30 2213 C 205.115 -2.63355 2.45594 0
M  V30 2214 C 204.968 -2.18514 3.93156 0
M  V30 2215 C 206.287 -3.65571 2.45043 0
M  V30 2216 H 203.406 -0.521077 0.521198 0
M  V30 2217 H 206.048 -0.766551 1.7385 0
M  V30 2218 H 204.198 -3.2053 2.19528 0
M  V30 2219 H 205.87 -1.66504 4.30202 0
M  V30 2220 H 204.113 -1.50086 4.07009 0
M  V30 2221 H 204.784 -3.04484 4.60428 0
M  V30 2222 H 207.26 -3.18113 2.68223 0
M  V30 2223 H 206.136 -4.46893 3.18713 0
M  V30 2224 H 206.397 -4.16716 1.47649 0
M  V30 2225 N 205.456 -1.28612 -0.910864 0
M  V30 2226 C 206.704 -1.15705 -1.65701 0
M  V30 2227 C 207.025 0.29416 -1.92769 0
M  V30 2228 O 206.295 1.20331 -1.54588 0
M  V30 2229 H 204.875 -0.425216 -0.614167 0
M  V30 2230 H 207.537 -1.61381 -1.0928 0
M  V30 2231 H 206.633 -1.6988 -2.61815 0
M  V30 2232 N 206.934 1.1197 -1.10907 0
M  V30 2233 C 207.844 2.21433 -0.774896 0
M  V30 2234 C 208.86 1.72478 0.229657 0
M  V30 2235 O 210.036 2.01288 0.0672008 0
M  V30 2236 C 207.101 3.4602 -0.216986 0
M  V30 2237 C 206.162 4.09791 -1.27944 0
M  V30 2238 C 205.395 5.28431 -0.748055 0
M  V30 2239 O 205.618 5.68823 0.423833 0
M  V30 2240 O 204.552 5.82644 -1.51027 0
M  V30 2241 H 208.378 2.5242 -1.68873 0
M  V30 2242 H 205.963 1.20399 -0.884555 0
M  V30 2243 H 207.845 4.21304 0.090059 0
M  V30 2244 H 206.52 3.16698 0.669633 0
M  V30 2245 H 205.427 3.36265 -1.63941 0
M  V30 2246 H 206.76 4.4328 -2.13925 0
M  V30 2247 N 208.412 0.89855 1.29475 0
M  V30 2248 C 209.689 0.443416 1.90508 0
M  V30 2249 C 210.069 -1.07685 1.81569 0
M  V30 2250 O 209.417 -1.9182 1.24166 0
M  V30 2251 C 209.627 0.956708 3.35631 0
M  V30 2252 C 210.975 0.999728 4.12663 0
M  V30 2253 O 211.999 0.904299 3.4453 0
M  V30 2254 O 210.858 1.14289 5.34416 0
M  V30 2255 H 207.952 0.138025 0.815401 0
M  V30 2256 H 210.498 0.98834 1.37949 0
M  V30 2257 H 209.27 2.00067 3.36287 0
M  V30 2258 H 208.893 0.391728 3.95666 0
M  V30 2259 N 209.89 -1.43072 0.660911 0
M  V30 2260 C 211.12 -2.05769 0.185153 0
M  V30 2261 C 211.528 -1.49668 -1.15742 0
M  V30 2262 O 210.871 -0.625649 -1.72717 0
M  V30 2263 C 210.933 -3.59489 0.0278237 0
M  V30 2264 C 210.597 -4.38212 1.2969 0
M  V30 2265 C 211.594 -4.69772 2.22734 0
M  V30 2266 C 209.279 -4.7809 1.54063 0
M  V30 2267 C 211.273 -5.40129 3.38437 0
M  V30 2268 C 208.96 -5.4819 2.70058 0
M  V30 2269 C 209.958 -5.79132 3.62071 0
M  V30 2270 O 209.646 -6.47798 4.76039 0
M  V30 2271 H 209.378 -0.669873 0.0908086 0
M  V30 2272 H 211.932 -1.84436 0.90402 0
M  V30 2273 H 210.162 -3.79426 -0.746489 0
M  V30 2274 H 211.851 -4.03862 -0.406275 0
M  V30 2275 H 212.617 -4.39476 2.05149 0
M  V30 2276 H 208.496 -4.53408 0.833215 0
M  V30 2277 H 212.04 -5.64198 4.10277 0
M  V30 2278 H 207.937 -5.77902 2.87574 0
M  V30 2279 H 208.705 -6.66283 4.75404 0
M  V30 2280 N 211.368 -0.403325 -1.52352 0
M  V30 2281 C 212.598 0.17376 -2.05868 0
M  V30 2282 C 213.006 1.39898 -1.27378 0
M  V30 2283 O 212.349 1.80939 -0.31729 0
M  V30 2284 C 212.411 0.594756 -3.54546 0
M  V30 2285 C 212.075 -0.518926 -4.54044 0
M  V30 2286 C 213.072 -1.3807 -5.01231 0
M  V30 2287 C 210.757 -0.689961 -4.97539 0
M  V30 2288 C 212.751 -2.39852 -5.90551 0
M  V30 2289 C 210.438 -1.71109 -5.86656 0
M  V30 2290 C 211.436 -2.56378 -6.33056 0
M  V30 2291 O 211.124 -3.56743 -7.20409 0
M  V30 2292 H 210.856 0.0264951 -0.675481 0
M  V30 2293 H 213.41 -0.571179 -1.97299 0
M  V30 2294 H 211.64 1.39189 -3.60782 0
M  V30 2295 H 213.329 1.0991 -3.90736 0
M  V30 2296 H 214.095 -1.25994 -4.68349 0
M  V30 2297 H 209.974 -0.035939 -4.60986 0
M  V30 2298 H 213.518 -3.06441 -6.26689 0
M  V30 2299 H 209.415 -1.83218 -6.18952 0
M  V30 2300 H 210.183 -3.52918 -7.38506 0
M  V30 2301 N 212.846 1.57033 -0.133567 0
M  V30 2302 C 213.809 2.14897 0.796995 0
M  V30 2303 C 214.809 1.0874 1.18458 0
M  V30 2304 O 215.999 1.34446 1.1077 0
M  V30 2305 C 213.131 2.70112 2.07973 0
M  V30 2306 H 214.324 2.98457 0.293873 0
M  V30 2307 H 211.877 1.55871 0.115787 0
M  V30 2308 H 212.612 1.9018 2.62682 0
M  V30 2309 H 212.397 3.47764 1.81115 0
M  V30 2310 H 213.887 3.14738 2.74462 0
M  V30 2311 N 214.325 -0.140222 1.56975 0
M  V30 2312 C 215.565 -0.857823 1.85528 0
M  V30 2313 C 215.929 -1.78039 0.718768 0
M  V30 2314 O 217.13 -2.53795 0.885521 0
M  V30 2315 C 215.401 -1.60615 3.19277 0
M  V30 2316 S 216.96 -2.36824 3.69405 0
M  V30 2317 H 213.778 -0.286727 0.650622 0
M  V30 2318 H 216.38 -0.117408 1.95147 0
M  V30 2319 H 215.084 -0.919994 3.99955 0
M  V30 2320 H 214.615 -2.38735 3.12681 0
M  V30 2321 H 216.63 -3.62148 3.3921 0
M  V30 2322 N 215.803 -1.52179 -0.40978 0
M  V30 2323 C 217.031 -1.70054 -1.17853 0
M  V30 2324 C 217.446 -0.409735 -1.843 0
M  V30 2325 O 216.803 0.614183 -1.71855 0
M  V30 2326 C 216.854 -2.83568 -2.24213 0
M  V30 2327 O 216.575 -4.0765 -1.60478 0
M  V30 2328 C 218.076 -3.12947 -3.13973 0
M  V30 2329 H 215.296 -0.569917 -0.354169 0
M  V30 2330 H 217.84 -1.98734 -0.482198 0
M  V30 2331 H 215.995 -2.57409 -2.89516 0
M  V30 2332 H 216.409 -4.70899 -2.30986 0
M  V30 2333 H 217.883 -3.95889 -3.84677 0
M  V30 2334 H 218.36 -2.26472 -3.76307 0
M  V30 2335 H 218.966 -3.40868 -2.5434 0
M  V30 2336 N 217.281 0.66697 -1.42791 0
M  V30 2337 C 218.191 1.80962 -1.49299 0
M  V30 2338 C 219.207 1.69775 -0.381108 0
M  V30 2339 O 220.383 1.91188 -0.633188 0
M  V30 2340 C 217.448 3.17156 -1.40045 0
M  V30 2341 C 216.509 3.40242 -2.6179 0
M  V30 2342 C 215.742 4.69939 -2.52969 0
M  V30 2343 O 215.965 5.48372 -1.56985 0
M  V30 2344 O 214.899 4.94441 -3.43237 0
M  V30 2345 H 218.725 1.78427 -2.45759 0
M  V30 2346 H 216.31 0.823713 -1.24641 0
M  V30 2347 H 218.192 3.98413 -1.37276 0
M  V30 2348 H 216.867 3.20312 -0.467138 0
M  V30 2349 H 215.774 2.58802 -2.70134 0
M  V30 2350 H 217.107 3.41923 -3.54047 0
M  V30 2351 N 218.759 1.29093 0.90403 0
M  V30 2352 C 219.987 1.19689 1.68766 0
M  V30 2353 C 220.402 -0.243113 1.87228 0
M  V30 2354 O 219.759 -1.16326 1.40621 0
M  V30 2355 C 219.81 1.90144 3.07453 0
M  V30 2356 O 219.531 3.2852 2.89838 0
M  V30 2357 C 221.032 1.87162 4.01852 0
M  V30 2358 H 218.252 0.415035 0.527244 0
M  V30 2359 H 220.796 1.7039 1.13082 0
M  V30 2360 H 218.951 1.43289 3.59926 0
M  V30 2361 H 219.365 3.63944 3.77684 0
M  V30 2362 H 220.839 2.41032 4.96596 0
M  V30 2363 H 221.316 0.84617 4.30972 0
M  V30 2364 H 221.922 2.33741 3.5531 0
M  V30 2365 N 220.237 -1.11381 1.11499 0
M  V30 2366 C 221.185 -2.19522 0.768956 0
M  V30 2367 C 222.179 -1.67693 -0.239857 0
M  V30 2368 O 223.385 -1.79727 -0.0990755 0
M  V30 2369 H 219.76 -0.715711 0.230786 0
M  V30 2370 H 221.731 -2.45954 1.68964 0
M  V30 2371 C 220.48 -3.46945 0.229073 0
M  V30 2372 H 219.803 -3.8718 0.996596 0
M  V30 2373 H 221.243 -4.23993 0.0251441 0
M  V30 2374 C 219.702 -3.2042 -1.04079 0
M  V30 2375 O 220.232 -3.41178 -2.12038 0
M  V30 2376 N 218.438 -2.74151 -0.963823 0
M  V30 2377 H 217.985 -2.57459 -0.0851722 0
M  V30 2378 H 217.943 -2.56781 -1.81414 0
M  V30 2379 N 221.715 -0.905404 -1.28997 0
M  V30 2380 C 222.962 -0.534248 -1.95325 0
M  V30 2381 C 223.29 0.920535 -1.71337 0
M  V30 2382 O 222.545 1.66861 -1.02254 0
M  V30 2383 C 222.844 -0.779906 -3.48787 0
M  V30 2384 C 222.51 -2.21293 -3.92861 0
M  V30 2385 C 221.172 -2.60475 -4.04606 0
M  V30 2386 C 223.524 -3.14587 -4.15553 0
M  V30 2387 C 220.852 -3.9212 -4.36416 0
M  V30 2388 C 223.204 -4.45787 -4.48839 0
M  V30 2389 C 221.868 -4.84834 -4.58794 0
M  V30 2390 H 221.138 -0.195495 -0.714747 0
M  V30 2391 H 223.785 -1.14514 -1.53488 0
M  V30 2392 H 222.09 -0.0861365 -3.91705 0
M  V30 2393 H 223.787 -0.472029 -3.98212 0
M  V30 2394 H 220.377 -1.89887 -3.84241 0
M  V30 2395 H 224.561 -2.85528 -4.0594 0
M  V30 2396 H 219.817 -4.22086 -4.42327 0
M  V30 2397 H 223.991 -5.18098 -4.65346 0
M  V30 2398 H 221.618 -5.86877 -4.83197 0
M  V30 2399 N 223.193 1.4272 -0.668489 0
M  V30 2400 C 224.442 2.00846 -0.185389 0
M  V30 2401 C 224.755 1.53442 1.21305 0
M  V30 2402 O 225.961 2.03944 1.79218 0
M  V30 2403 C 224.417 3.58805 -0.280591 0
M  V30 2404 C 224.025 4.15198 -1.68268 0
M  V30 2405 C 225.769 4.24255 0.14412 0
M  V30 2406 C 223.676 5.655 -1.73099 0
M  V30 2407 H 222.606 0.751145 -0.0655475 0
M  V30 2408 H 225.257 1.63516 -0.832752 0
M  V30 2409 H 223.639 3.93608 0.434553 0
M  V30 2410 H 224.813 3.91866 -2.42441 0
M  V30 2411 H 223.128 3.62176 -2.05469 0
M  V30 2412 H 225.725 5.34547 0.128086 0
M  V30 2413 H 226.068 3.99277 1.17827 0
M  V30 2414 H 226.601 3.94389 -0.519798 0
M  V30 2415 H 223.34 5.95268 -2.74475 0
M  V30 2416 H 222.86 5.90842 -1.03274 0
M  V30 2417 H 224.539 6.29808 -1.48158 0
M  V30 2418 N 224.671 0.411399 1.52136 0
M  V30 2419 C 225.899 -0.163076 2.06256 0
M  V30 2420 C 226.314 -1.3867 1.28125 0
M  V30 2421 O 225.671 -1.79423 0.333721 0
M  V30 2422 C 225.722 -0.511252 3.57867 0
M  V30 2423 O 225.443 0.66378 4.33042 0
M  V30 2424 C 226.944 -1.13921 4.28412 0
M  V30 2425 H 224.164 -0.0193897 0.67072 0
M  V30 2426 H 226.708 0.583007 1.96013 0
M  V30 2427 H 224.863 -1.20723 3.6811 0
M  V30 2428 H 225.277 0.372601 5.23175 0
M  V30 2429 H 226.751 -1.33302 5.35663 0
M  V30 2430 H 227.228 -2.11296 3.85033 0
M  V30 2431 H 227.834 -0.483373 4.22544 0
M  V30 2432 N 226.149 -1.5696 0.141893 0
M  V30 2433 C 227.096 -2.16501 -0.799737 0
M  V30 2434 C 228.066 -1.09643 -1.24771 0
M  V30 2435 O 229.251 -1.3766 -1.32115 0
M  V30 2436 C 226.391 -2.78679 -2.03549 0
M  V30 2437 C 225.504 -3.99914 -1.6338 0
M  V30 2438 C 224.639 -4.50106 -2.82096 0
M  V30 2439 C 223.678 -5.63819 -2.38275 0
M  V30 2440 N 222.815 -6.08651 -3.49983 0
M  V30 2441 H 227.655 -2.96632 -0.285179 0
M  V30 2442 H 225.192 -1.46533 -0.129053 0
M  V30 2443 H 227.15 -3.1287 -2.75986 0
M  V30 2444 H 225.78 -2.012 -2.52425 0
M  V30 2445 H 224.832 -3.71735 -0.807279 0
M  V30 2446 H 226.144 -4.82311 -1.27192 0
M  V30 2447 H 225.298 -4.86325 -3.62729 0
M  V30 2448 H 224.037 -3.66706 -3.21525 0
M  V30 2449 H 223.042 -5.2718 -1.56081 0
M  V30 2450 H 224.267 -6.49 -1.99938 0
M  V30 2451 H 222.213 -5.28188 -3.89042 0
M  V30 2452 H 222.13 -6.85961 -3.17794 0
M  V30 2453 H 223.398 -6.49515 -4.30988 0
M  V30 2454 N 227.627 0.131896 -1.57047 0
M  V30 2455 C 228.876 0.84044 -1.83356 0
M  V30 2456 C 229.189 1.81646 -0.725535 0
M  V30 2457 O 230.395 2.57025 -0.874659 0
M  V30 2458 C 228.851 1.54528 -3.25037 0
M  V30 2459 C 228.459 0.610902 -4.43815 0
M  V30 2460 C 230.203 2.23972 -3.60606 0
M  V30 2461 C 228.11 1.31823 -5.76521 0
M  V30 2462 H 227.04 0.317599 -0.683847 0
M  V30 2463 H 229.691 0.0931561 -1.83263 0
M  V30 2464 H 228.073 2.33873 -3.19561 0
M  V30 2465 H 229.247 -0.148407 -4.60561 0
M  V30 2466 H 227.562 0.0241016 -4.16393 0
M  V30 2467 H 230.159 2.77558 -4.57018 0
M  V30 2468 H 230.502 3.01173 -2.87403 0
M  V30 2469 H 231.035 1.51529 -3.6781 0
M  V30 2470 H 227.774 0.587771 -6.52859 0
M  V30 2471 H 227.294 2.04987 -5.63685 0
M  V30 2472 H 228.973 1.855 -6.19838 0
M  V30 2473 N 229.106 1.52395 0.401703 0
M  V30 2474 C 230.054 1.7689 1.51039 0
M  V30 2475 C 231.048 0.636298 1.56996 0
M  V30 2476 O 232.254 0.818507 1.60314 0
M  V30 2477 H 228.629 0.559502 0.502456 0
M  V30 2478 H 230.6 2.69757 1.27568 0
M  V30 2479 C 229.349 1.94331 2.88324 0
M  V30 2480 H 228.672 2.80905 2.84486 0
M  V30 2481 H 230.112 2.15466 3.65172 0
M  V30 2482 C 228.571 0.712396 3.29282 0
M  V30 2483 O 229.101 -0.116218 4.01532 0
M  V30 2484 N 227.307 0.546154 2.85422 0
M  V30 2485 H 226.854 1.22156 2.26794 0
M  V30 2486 H 226.812 -0.276113 3.13185 0
M  V30 2487 N 230.584 -0.659388 1.43143 0
M  V30 2488 C 231.995 -1.24041 1.39537 0
M  V30 2489 C 232.346 -1.95963 0.0963364 0
M  V30 2490 O 231.471 -2.00892 -0.804438 0
M  V30 2491 C 232.066 -2.25601 2.52764 0
M  V30 2492 C 230.625 -2.79195 2.52443 0
M  V30 2493 C 229.772 -1.53743 2.30778 0
M  V30 2494 H 232.723 -0.451792 1.52133 0
M  V30 2495 H 232.744 -3.07651 2.23899 0
M  V30 2496 H 232.256 -1.73226 3.47296 0
M  V30 2497 H 230.357 -3.35649 1.61773 0
M  V30 2498 H 230.47 -3.2716 3.50004 0
M  V30 2499 H 228.834 -1.80869 1.79328 0
M  V30 2500 H 229.617 -1.03312 3.27386 0
M  V30 2501 N 232.062 -1.29571 -0.897171 0
M  V30 2502 C 232.972 -1.16808 -2.03453 0
M  V30 2503 C 233.988 -0.0907471 -1.73763 0
M  V30 2504 O 235.164 -0.303312 -1.99103 0
M  V30 2505 C 232.229 -0.848264 -3.36163 0
M  V30 2506 C 231.29 -2.0097 -3.79354 0
M  V30 2507 C 230.523 -1.70505 -5.05731 0
M  V30 2508 O 230.746 -0.62718 -5.66941 0
M  V30 2509 O 229.68 -2.5538 -5.45036 0
M  V30 2510 H 233.506 -2.12325 -2.17144 0
M  V30 2511 H 231.091 -1.09047 -1.02123 0
M  V30 2512 H 232.973 -0.684581 -4.15802 0
M  V30 2513 H 231.648 0.0771071 -3.23608 0
M  V30 2514 H 230.555 -2.22863 -3.00471 0
M  V30 2515 H 231.888 -2.91636 -3.96496 0
M  V30 2516 N 233.54 1.10788 -1.12088 0
M  V30 2517 C 234.768 1.86461 -0.896651 0
M  V30 2518 C 235.183 1.80492 0.553912 0
M  V30 2519 O 234.54 1.19102 1.38278 0
M  V30 2520 C 234.591 3.35006 -1.35843 0
M  V30 2521 O 234.312 3.40866 -2.75213 0
M  V30 2522 C 235.813 4.27565 -1.1706 0
M  V30 2523 H 233.033 0.589425 -0.320654 0
M  V30 2524 H 235.577 1.40076 -1.48993 0
M  V30 2525 H 233.732 3.7887 -0.808458 0
M  V30 2526 H 234.146 4.33411 -2.9539 0
M  V30 2527 H 235.62 5.30007 -1.54263 0
M  V30 2528 H 236.097 4.3906 -0.110814 0
M  V30 2529 H 236.703 3.89501 -1.70789 0
M  V30 2530 N 235.018 0.912232 1.28515 0
M  V30 2531 C 235.948 0.416403 2.29757 0
M  V30 2532 C 236.929 -0.515194 1.6211 0
M  V30 2533 O 238.114 -0.423253 1.89532 0
M  V30 2534 C 235.244 -0.34572 3.45575 0
M  V30 2535 C 234.198 0.496599 4.25109 0
M  V30 2536 C 233.524 -0.393771 5.33248 0
M  V30 2537 C 234.824 1.75307 4.92001 0
M  V30 2538 H 236.518 1.26249 2.7148 0
M  V30 2539 H 234.064 0.608515 1.30511 0
M  V30 2540 H 236.017 -0.703422 4.15488 0
M  V30 2541 H 234.741 -1.2257 3.02728 0
M  V30 2542 H 233.4 0.8368 3.56922 0
M  V30 2543 H 233.048 -1.27225 4.86644 0
M  V30 2544 H 232.748 0.166209 5.87365 0
M  V30 2545 H 234.272 -0.747389 6.06009 0
M  V30 2546 H 235.686 1.46437 5.54283 0
M  V30 2547 H 234.083 2.25534 5.56106 0
M  V30 2548 H 235.153 2.48176 4.16577 0
M  V30 2549 N 236.496 -1.42363 0.676048 0
M  V30 2550 C 237.406 -2.346 -0.00153389 0
M  V30 2551 C 238.422 -1.5516 -0.787485 0
M  V30 2552 O 239.598 -1.87723 -0.729521 0
M  V30 2553 C 236.663 -3.33705 -0.940298 0
M  V30 2554 C 235.724 -4.29042 -0.148739 0
M  V30 2555 C 234.957 -5.23413 -1.04279 0
M  V30 2556 O 235.18 -5.22749 -2.28232 0
M  V30 2557 O 234.114 -5.99795 -0.502925 0
M  V30 2558 H 237.94 -2.94082 0.758268 0
M  V30 2559 H 235.525 -1.42888 0.436289 0
M  V30 2560 H 237.407 -3.94586 -1.47917 0
M  V30 2561 H 236.082 -2.76695 -1.67993 0
M  V30 2562 H 234.989 -3.71571 0.43427 0
M  V30 2563 H 236.322 -4.89097 0.551805 0
M  V30 2564 N 237.974 -0.419461 -1.51915 0
M  V30 2565 C 239.202 0.152136 -2.0634 0
M  V30 2566 C 239.617 1.37988 -1.28859 0
M  V30 2567 O 238.974 1.79243 -0.343232 0
M  V30 2568 C 239.025 0.492266 -3.58133 0
M  V30 2569 O 238.746 -0.686736 -4.32684 0
M  V30 2570 C 240.247 1.11648 -4.2901 0
M  V30 2571 H 237.467 0.0158325 -0.670813 0
M  V30 2572 H 240.011 -0.593394 -1.95702 0
M  V30 2573 H 238.166 1.18769 -3.68745 0
M  V30 2574 H 238.58 -0.400341 -5.2297 0
M  V30 2575 H 240.054 1.3046 -5.36362 0
M  V30 2576 H 240.531 2.09251 -3.86148 0
M  V30 2577 H 241.137 0.460958 -4.22795 0
M  V30 2578 N 239.452 1.56882 -0.150215 0
M  V30 2579 C 240.701 1.95403 0.500071 0
M  V30 2580 C 241.014 1.03777 1.658 0
M  V30 2581 O 242.22 1.31889 2.37313 0
M  V30 2582 C 240.676 3.4738 0.941018 0
M  V30 2583 C 240.284 4.47596 -0.190158 0
M  V30 2584 C 242.028 3.9476 1.56091 0
M  V30 2585 C 239.935 5.90787 0.269237 0
M  V30 2586 H 238.865 0.729515 0.190588 0
M  V30 2587 H 241.516 1.81988 -0.235074 0
M  V30 2588 H 239.898 3.56138 1.73152 0
M  V30 2589 H 241.072 4.50536 -0.967157 0
M  V30 2590 H 239.387 4.10151 -0.718666 0
M  V30 2591 H 241.984 4.99181 1.9163 0
M  V30 2592 H 242.327 3.36494 2.45107 0
M  V30 2593 H 242.86 3.88932 0.835249 0
M  V30 2594 H 239.599 6.52879 -0.585621 0
M  V30 2595 H 239.119 5.912 1.01204 0
M  V30 2596 H 240.798 6.42979 0.720176 0
M  V30 2597 N 240.93 -0.123565 1.57115 0
M  V30 2598 C 241.877 -1.15177 2.00007 0
M  V30 2599 C 242.847 -1.41403 0.871454 0
M  V30 2600 O 244.032 -1.53346 1.13533 0
M  V30 2601 C 241.172 -2.47436 2.40561 0
M  V30 2602 C 240.285 -2.28184 3.66819 0
M  V30 2603 C 239.42 -3.53641 3.96373 0
M  V30 2604 C 238.459 -3.29528 5.15827 0
M  V30 2605 N 237.596 -4.47175 5.41275 0
M  V30 2606 H 242.436 -0.779008 2.87638 0
M  V30 2607 H 239.973 -0.373166 1.42288 0
M  V30 2608 H 241.931 -3.24584 2.62109 0
M  V30 2609 H 240.561 -2.82614 1.55978 0
M  V30 2610 H 239.613 -1.41976 3.52912 0
M  V30 2611 H 240.925 -2.0634 4.5412 0
M  V30 2612 H 240.079 -4.39209 4.18545 0
M  V30 2613 H 238.818 -3.78512 3.07538 0
M  V30 2614 H 237.823 -2.42349 4.93505 0
M  V30 2615 H 239.048 -3.06031 6.06236 0
M  V30 2616 H 236.994 -4.72175 4.55397 0
M  V30 2617 H 236.911 -4.28419 6.22891 0
M  V30 2618 H 238.179 -5.3389 5.67963 0
M  V30 2619 N 242.408 -1.52605 -0.393616 0
M  V30 2620 C 243.34 -1.73303 -1.49995 0
M  V30 2621 C 244.353 -0.613473 -1.50799 0
M  V30 2622 O 245.542 -0.889049 -1.54784 0
M  V30 2623 C 242.642 -1.77245 -2.88855 0
M  V30 2624 C 241.815 -3.06483 -3.12069 0
M  V30 2625 C 240.874 -3.02033 -4.30886 0
M  V30 2626 O 239.9 -3.75907 -4.27414 0
M  V30 2627 N 241.102 -2.20897 -5.36828 0
M  V30 2628 H 243.867 -2.68756 -1.32629 0
M  V30 2629 H 241.428 -1.51036 -0.583083 0
M  V30 2630 H 243.42 -1.7178 -3.66434 0
M  V30 2631 H 241.99 -0.891993 -2.99603 0
M  V30 2632 H 241.21 -3.25474 -2.22396 0
M  V30 2633 H 242.498 -3.91947 -3.2443 0
M  V30 2634 H 241.896 -1.60336 -5.42502 0
M  V30 2635 H 240.453 -2.21275 -6.13091 0
M  V30 2636 N 243.887 0.651787 -1.4349 0
M  V30 2637 C 245.133 1.41376 -1.45398 0
M  V30 2638 C 245.466 1.94041 -0.0784823 0
M  V30 2639 O 244.741 1.72379 0.900878 0
M  V30 2640 C 245.024 2.59414 -2.49752 0
M  V30 2641 C 244.877 2.12232 -3.96582 0
M  V30 2642 C 246.196 3.61626 -2.50827 0
M  V30 2643 H 243.315 0.512719 -0.529422 0
M  V30 2644 H 245.957 0.738796 -1.75048 0
M  V30 2645 H 244.107 3.16997 -2.246 0
M  V30 2646 H 245.779 1.59639 -4.32797 0
M  V30 2647 H 244.022 1.43592 -4.09346 0
M  V30 2648 H 244.693 2.9712 -4.65214 0
M  V30 2649 H 247.169 3.13805 -2.7325 0
M  V30 2650 H 246.045 4.41766 -3.25783 0
M  V30 2651 H 246.306 4.14314 -1.5426 0
M  V30 2652 N 245.365 1.30045 0.890287 0
M  V30 2653 C 246.642 1.09227 1.62262 0
M  V30 2654 C 247.022 -0.360305 2.08002 0
M  V30 2655 O 246.37 -1.35084 1.84295 0
M  V30 2656 C 246.58 2.08835 2.79623 0
M  V30 2657 C 247.928 2.40266 3.50082 0
M  V30 2658 O 248.952 2.07104 2.89804 0
M  V30 2659 O 247.811 2.96967 4.58773 0
M  V30 2660 H 244.905 0.419132 0.712922 0
M  V30 2661 H 247.451 1.41451 0.937529 0
M  V30 2662 H 246.223 3.06633 2.43089 0
M  V30 2663 H 245.846 1.77397 3.55832 0
M  V30 2664 N 246.843 -1.10192 1.12674 0
M  V30 2665 C 247.773 -2.18652 0.819362 0
M  V30 2666 C 248.754 -1.68698 -0.217915 0
M  V30 2667 O 249.939 -1.94041 -0.0785581 0
M  V30 2668 C 247.069 -3.46202 0.27594 0
M  V30 2669 C 246.023 -4.09444 1.24656 0
M  V30 2670 C 245.349 -5.31725 0.563258 0
M  V30 2671 C 246.649 -4.52863 2.60217 0
M  V30 2672 H 248.343 -2.44622 1.72628 0
M  V30 2673 H 245.889 -1.17571 0.831451 0
M  V30 2674 H 247.842 -4.21372 0.0486149 0
M  V30 2675 H 246.566 -3.1973 -0.666331 0
M  V30 2676 H 245.225 -3.36284 1.45974 0
M  V30 2677 H 244.873 -5.0153 -0.384235 0
M  V30 2678 H 244.573 -5.74991 1.21075 0
M  V30 2679 H 246.097 -6.09624 0.34503 0
M  V30 2680 H 247.511 -5.19294 2.42913 0
M  V30 2681 H 245.908 -5.06986 3.21068 0
M  V30 2682 H 246.978 -3.65656 3.18471 0
M  V30 2683 N 248.321 -0.919034 -1.28029 0
M  V30 2684 C 249.561 -0.562107 -1.96519 0
M  V30 2685 C 249.925 0.878784 -1.70708 0
M  V30 2686 O 251.126 1.34355 -2.32813 0
M  V30 2687 C 249.397 -0.868953 -3.46676 0
M  V30 2688 S 250.956 -0.619237 -4.34409 0
M  V30 2689 H 247.774 -0.2078 -0.679956 0
M  V30 2690 H 250.376 -1.18562 -1.55446 0
M  V30 2691 H 249.08 -1.91547 -3.62957 0
M  V30 2692 H 248.611 -0.234301 -3.92702 0
M  V30 2693 H 250.626 0.526995 -4.93394 0
M  V30 2694 N 249.799 1.42003 -0.683588 0
M  V30 2695 C 250.747 2.326 0.000815408 0
M  V30 2696 C 251.741 1.50308 0.781278 0
M  V30 2697 O 252.947 1.66322 0.688251 0
M  V30 2698 H 249.322 0.751758 0.0190616 0
M  V30 2699 H 251.293 2.88011 -0.780528 0
M  V30 2700 C 250.042 3.34978 0.93195 0
M  V30 2701 H 249.365 3.98345 0.340817 0
M  V30 2702 H 250.805 4.00936 1.37936 0
M  V30 2703 C 249.264 2.67925 2.04249 0
M  V30 2704 O 249.794 2.51788 3.12995 0
M  V30 2705 N 248 2.2681 1.81675 0
M  V30 2706 H 247.547 2.40135 0.932363 0
M  V30 2707 H 247.505 1.8228 2.56167 0
M  V30 2708 N 251.277 0.427512 1.51691 0
M  V30 2709 C 252.507 -0.140986 2.06118 0
M  V30 2710 C 252.915 -1.37854 1.29588 0
M  V30 2711 O 252.258 -1.80411 0.346036 0
M  V30 2712 C 252.32 -0.538276 3.55447 0
M  V30 2713 C 251.984 0.591095 4.53161 0
M  V30 2714 C 252.981 1.46027 4.98971 0
M  V30 2715 C 250.666 0.769028 4.96378 0
M  V30 2716 C 252.66 2.49216 5.8666 0
M  V30 2717 C 250.347 1.80421 5.83859 0
M  V30 2718 C 251.345 2.66417 6.28897 0
M  V30 2719 O 251.033 3.68159 7.14643 0
M  V30 2720 H 250.765 -0.0157455 0.675817 0
M  V30 2721 H 253.319 0.602495 1.96365 0
M  V30 2722 H 251.549 -1.33432 3.6295 0
M  V30 2723 H 253.238 -1.0368 3.92435 0
M  V30 2724 H 254.004 1.33429 4.66285 0
M  V30 2725 H 249.883 0.109273 4.6087 0
M  V30 2726 H 253.427 3.16372 6.21735 0
M  V30 2727 H 249.324 1.93042 6.15959 0
M  V30 2728 H 250.092 3.64622 7.32798 0
M  V30 2729 N 252.755 -1.56801 0.158532 0
M  V30 2730 C 254.001 -1.96781 -0.490405 0
M  V30 2731 C 254.334 -1.04397 -1.63753 0
M  V30 2732 O 253.609 -0.0885805 -1.94298 0
M  V30 2733 C 253.892 -3.4635 -0.985594 0
M  V30 2734 C 253.745 -4.49512 0.160824 0
M  V30 2735 C 255.064 -3.98697 -1.86355 0
M  V30 2736 H 252.183 -0.715482 -0.176788 0
M  V30 2737 H 254.825 -1.88451 0.242088 0
M  V30 2738 H 252.975 -3.53579 -1.60978 0
M  V30 2739 H 254.647 -4.54353 0.797537 0
M  V30 2740 H 252.89 -4.26013 0.818256 0
M  V30 2741 H 253.561 -5.51531 -0.227569 0
M  V30 2742 H 256.037 -3.94019 -1.33746 0
M  V30 2743 H 254.913 -5.03792 -2.17909 0
M  V30 2744 H 255.174 -3.41744 -2.8047 0
M  V30 2745 N 254.233 0.115231 -1.57178 0
M  V30 2746 C 255.458 0.840354 -1.89612 0
M  V30 2747 C 255.883 1.72464 -0.750845 0
M  V30 2748 O 255.241 1.78826 0.298478 0
M  V30 2749 C 255.289 1.64654 -3.20814 0
M  V30 2750 O 254.393 2.7538 -3.06985 0
M  V30 2751 H 253.734 0.232158 -0.622092 0
M  V30 2752 H 256.264 0.0964977 -2.04372 0
M  V30 2753 H 256.274 2.03499 -3.53627 0
M  V30 2754 H 254.949 0.997416 -4.03763 0
M  V30 2755 H 253.526 2.3971 -2.85646 0
M  V30 2756 N 255.711 1.52812 0.385517 0
M  V30 2757 C 256.957 1.68275 1.13188 0
M  V30 2758 C 257.29 0.423179 1.89533 0
M  V30 2759 O 256.565 -0.579113 1.85679 0
M  V30 2760 C 256.848 2.92001 2.1073 0
M  V30 2761 C 256.701 4.28067 1.38125 0
M  V30 2762 C 258.02 3.11283 3.11113 0
M  V30 2763 H 255.139 0.612352 0.410115 0
M  V30 2764 H 257.781 1.85415 0.414869 0
M  V30 2765 H 255.931 2.77519 2.71874 0
M  V30 2766 H 257.603 4.54324 0.799187 0
M  V30 2767 H 255.846 4.28388 0.683092 0
M  V30 2768 H 256.517 5.10733 2.09417 0
M  V30 2769 H 258.993 3.2482 2.6006 0
M  V30 2770 H 257.869 3.99325 3.76605 0
M  V30 2771 H 258.13 2.25656 3.80173 0
M  V30 2772 N 257.189 -0.644168 1.43834 0
M  V30 2773 C 258.137 -1.77793 1.49974 0
M  V30 2774 C 259.131 -1.65253 0.372536 0
M  V30 2775 O 260.337 -1.7149 0.546924 0
M  V30 2776 H 256.712 -0.58675 0.47035 0
M  V30 2777 H 258.683 -1.69736 2.45423 0
M  V30 2778 C 257.432 -3.16087 1.4486 0
M  V30 2779 H 256.755 -3.26378 2.30905 0
M  V30 2780 H 258.195 -3.95349 1.53217 0
M  V30 2781 C 256.654 -3.36484 0.167463 0
M  V30 2782 O 257.184 -3.94298 -0.767609 0
M  V30 2783 N 255.39 -2.90504 0.0747556 0
M  V30 2784 H 254.937 -2.4364 0.836507 0
M  V30 2785 H 254.895 -3.04527 -0.781714 0
M  V30 2786 N 258.668 -1.30515 -0.883378 0
M  V30 2787 C 259.916 -1.19194 -1.63209 0
M  V30 2788 C 260.237 0.253205 -1.93349 0
M  V30 2789 O 259.507 1.17025 -1.57105 0
M  V30 2790 H 258.087 -0.438148 -0.605009 0
M  V30 2791 H 260.749 -1.63663 -1.05832 0
M  V30 2792 H 259.845 -1.75396 -2.58153 0
M  V30 2793 N 260.146 1.09593 -1.13257 0
M  V30 2794 C 261.109 2.14359 -0.811358 0
M  V30 2795 C 262.109 1.59808 0.178377 0
M  V30 2796 O 263.299 1.74132 -0.0484911 0
M  V30 2797 C 260.431 3.40269 -0.207276 0
M  V30 2798 H 261.624 2.44284 -1.73969 0
M  V30 2799 H 259.177 1.25102 -0.936973 0
M  V30 2800 H 259.912 3.15969 0.73036 0
M  V30 2801 H 259.697 3.81154 -0.919992 0
M  V30 2802 H 261.187 4.176 0.000667944 0
M  V30 2803 N 261.624 0.925811 1.2754 0
M  V30 2804 C 262.852 0.581509 1.9856 0
M  V30 2805 C 263.267 -0.840041 1.69082 0
M  V30 2806 O 262.624 -1.55805 0.950312 0
M  V30 2807 C 262.675 0.795589 3.52637 0
M  V30 2808 O 262.396 2.16121 3.81082 0
M  V30 2809 C 263.897 0.459744 4.4091 0
M  V30 2810 H 261.117 0.220538 0.633722 0
M  V30 2811 H 263.661 1.24232 1.6244 0
M  V30 2812 H 261.816 0.18161 3.86974 0
M  V30 2813 H 262.23 2.2098 4.75676 0
M  V30 2814 H 263.704 0.660244 5.48037 0
M  V30 2815 H 264.181 -0.604625 4.35018 0
M  V30 2816 H 264.787 1.05178 4.12089 0
M  V30 2817 N 263.102 -1.41638 0.69111 0
M  V30 2818 C 264.065 -2.29178 0.0319786 0
M  V30 2819 C 265.065 -1.44153 -0.712496 0
M  V30 2820 O 266.255 -1.65354 -0.548053 0
M  V30 2821 C 263.387 -3.26952 -0.965161 0
M  V30 2822 H 264.58 -2.88959 0.802681 0
M  V30 2823 H 262.133 -1.4955 0.454356 0
M  V30 2824 H 262.868 -2.72142 -1.76378 0
M  V30 2825 H 262.653 -3.89685 -0.434522 0
M  V30 2826 H 264.143 -3.92561 -1.42428 0
M  V30 2827 N 264.58 -0.43555 -1.51462 0
M  V30 2828 C 265.53 0.394701 -2.24558 0
M  V30 2829 C 266.514 0.99157 -1.26715 0
M  V30 2830 O 267.706 0.910007 -1.51815 0
M  V30 2831 C 264.835 1.4963 -3.08975 0
M  V30 2832 C 263.921 0.908912 -4.14246 0
M  V30 2833 N 264.312 0.0505335 -5.05775 0
M  V30 2834 C 262.61 1.17668 -4.30198 0
M  V30 2835 C 263.311 -0.279161 -5.8103 0
M  V30 2836 N 262.287 0.336767 -5.42556 0
M  V30 2837 H 266.089 -0.267106 -2.92684 0
M  V30 2838 H 263.603 -0.247518 -1.60503 0
M  V30 2839 H 265.6 2.10394 -3.59917 0
M  V30 2840 H 264.26 2.16046 -2.42393 0
M  V30 2841 H 265.271 -0.31577 -5.16936 0
M  V30 2842 H 261.948 1.83847 -3.74842 0
M  V30 2843 H 263.338 -0.977553 -6.64751 0
M  V30 2844 N 266.058 1.56714 -0.166846 0
M  V30 2845 C 267.469 1.83378 0.350646 0
M  V30 2846 C 267.82 1.08646 1.63372 0
M  V30 2847 O 266.945 0.338058 2.13743 0
M  V30 2848 C 267.54 3.32643 0.642963 0
M  V30 2849 C 266.099 3.59818 1.10491 0
M  V30 2850 C 265.246 2.76954 0.138411 0
M  V30 2851 H 268.197 1.53803 -0.391193 0
M  V30 2852 H 268.218 3.49878 1.49551 0
M  V30 2853 H 267.73 3.87007 -0.291055 0
M  V30 2854 H 265.831 3.1086 2.05418 0
M  V30 2855 H 265.944 4.68178 1.01716 0
M  V30 2856 H 264.308 2.4666 0.634911 0
M  V30 2857 H 265.091 3.34097 -0.789549 0
M  V30 2858 N 267.536 -0.106894 1.57237 0
M  V30 2859 C 268.486 -1.1366 1.9765 0
M  V30 2860 C 269.47 -1.36416 0.853203 0
M  V30 2861 O 270.662 -1.37305 1.11697 0
M  V30 2862 C 267.791 -2.46 2.39455 0
M  V30 2863 C 266.877 -2.26668 3.58445 0
M  V30 2864 N 267.268 -1.77176 4.73754 0
M  V30 2865 C 265.566 -2.57279 3.64312 0
M  V30 2866 C 266.267 -1.71836 5.5574 0
M  V30 2867 N 265.243 -2.16623 4.98573 0
M  V30 2868 H 269.045 -0.74669 2.84256 0
M  V30 2869 H 266.559 -0.314483 1.59326 0
M  V30 2870 H 268.556 -3.2049 2.6663 0
M  V30 2871 H 267.216 -2.85738 1.54219 0
M  V30 2872 H 268.227 -1.46545 4.96734 0
M  V30 2873 H 264.904 -3.00622 2.89711 0
M  V30 2874 H 266.294 -1.34723 6.58255 0
M  V30 2875 N 269.014 -1.53014 -0.377408 0
M  V30 2876 C 270.263 -1.67845 -1.11853 0
M  V30 2877 C 270.576 -0.430625 -1.90801 0
M  V30 2878 O 271.782 -0.459261 -2.67587 0
M  V30 2879 C 270.238 -2.96668 -2.03756 0
M  V30 2880 C 269.846 -4.28671 -1.30175 0
M  V30 2881 C 271.59 -3.20865 -2.77932 0
M  V30 2882 C 269.497 -5.48591 -2.20911 0
M  V30 2883 H 268.427 -0.625343 -0.421263 0
M  V30 2884 H 271.078 -1.79514 -0.380409 0
M  V30 2885 H 269.46 -2.78773 -2.8125 0
M  V30 2886 H 270.634 -4.57157 -0.578259 0
M  V30 2887 H 268.949 -4.10825 -0.679108 0
M  V30 2888 H 271.546 -4.07642 -3.46024 0
M  V30 2889 H 271.889 -2.36424 -3.4265 0
M  V30 2890 H 272.422 -3.39379 -2.07525 0
M  V30 2891 H 269.161 -6.35474 -1.6079 0
M  V30 2892 H 268.681 -5.244 -2.91144 0
M  V30 2893 H 270.36 -5.8292 -2.80736 0
M  V30 2894 N 270.492 0.636531 -1.44174 0
M  V30 2895 C 271.402 1.77754 -1.53103 0
M  V30 2896 C 272.418 1.68928 -0.417034 0
M  V30 2897 O 273.594 1.89801 -0.6736 0
M  V30 2898 C 270.659 3.14115 -1.46741 0
M  V30 2899 C 269.72 3.34612 -2.68948 0
M  V30 2900 C 268.953 4.64467 -2.6288 0
M  V30 2901 O 269.176 5.44919 -1.68581 0
M  V30 2902 O 268.11 4.87049 -3.53648 0
M  V30 2903 H 271.936 1.73174 -2.49489 0
M  V30 2904 H 269.521 0.79709 -1.2636 0
M  V30 2905 H 271.403 3.95412 -1.45696 0
M  V30 2906 H 270.078 3.19249 -0.534975 0
M  V30 2907 H 268.985 2.53014 -2.75562 0
M  V30 2908 H 270.318 3.34336 -3.61221 0
M  V30 2909 N 271.97 1.30982 0.876444 0
M  V30 2910 C 272.918 1.18006 2.00443 0
M  V30 2911 C 273.912 0.0898871 1.69161 0
M  V30 2912 O 275.118 0.251333 1.78237 0
M  V30 2913 H 271.493 0.365196 0.65737 0
M  V30 2914 H 273.464 2.13453 2.0852 0
M  V30 2915 C 272.213 0.897521 3.35916 0
M  V30 2916 H 271.536 1.7285 3.60504 0
M  V30 2917 H 272.976 0.846874 4.15456 0
M  V30 2918 C 271.435 -0.399674 3.34521 0
M  V30 2919 O 271.965 -1.41852 3.7582 0
M  V30 2920 N 270.171 -0.413893 2.87637 0
M  V30 2921 H 269.718 0.41571 2.54224 0
M  V30 2922 H 269.676 -1.28175 2.87086 0
M  V30 2923 N 273.449 -1.08991 1.13837 0
M  V30 2924 C 274.726 -1.77863 0.813876 0
M  V30 2925 C 275.106 -1.99375 -0.693746 0
M  V30 2926 O 274.454 -1.59875 -1.63255 0
M  V30 2927 C 274.664 -3.0986 1.60586 0
M  V30 2928 C 276.012 -3.84493 1.8014 0
M  V30 2929 O 277.036 -3.19624 1.57222 0
M  V30 2930 O 275.895 -5.00957 2.18413 0
M  V30 2931 H 272.989 -0.771589 0.297624 0
M  V30 2932 H 275.535 -1.15507 1.24323 0
M  V30 2933 H 274.307 -2.89715 2.63022 0
M  V30 2934 H 273.93 -3.79942 1.17173 0
M  V30 2935 N 274.927 -0.932562 -1.27047 0
M  V30 2936 C 276.175 -0.574422 -1.93765 0
M  V30 2937 C 276.496 0.887993 -1.73608 0
M  V30 2938 O 275.766 1.62999 -1.08665 0
M  V30 2939 H 274.346 -0.209451 -0.717035 0
M  V30 2940 H 277.008 -1.18601 -1.5466 0
M  V30 2941 H 276.104 -0.784841 -3.02071 0
M  V30 2942 N 276.405 1.4127 -0.698611 0
M  V30 2943 C 277.633 2.05503 -0.239992 0
M  V30 2944 C 278.048 1.52584 1.11191 0
M  V30 2945 O 277.405 0.675323 1.69545 0
M  V30 2946 C 277.456 3.60987 -0.192429 0
M  V30 2947 O 277.177 4.1195 -1.49094 0
M  V30 2948 C 278.678 4.42371 0.28681 0
M  V30 2949 H 275.898 0.661748 -0.111045 0
M  V30 2950 H 278.442 1.80987 -0.95205 0
M  V30 2951 H 276.597 3.84533 0.470472 0
M  V30 2952 H 277.011 5.06018 -1.38007 0
M  V30 2953 H 278.485 5.51344 0.26896 0
M  V30 2954 H 278.962 4.18699 1.32619 0
M  V30 2955 H 279.568 4.23897 -0.345201 0
M  V30 2956 N 277.883 0.443576 1.51229 0
M  V30 2957 C 279.129 -0.120975 2.02439 0
M  V30 2958 C 279.462 -1.41815 1.32674 0
M  V30 2959 O 278.737 -1.89373 0.443622 0
M  V30 2960 C 279.02 -0.333291 3.58554 0
M  V30 2961 C 278.873 0.982968 4.38928 0
M  V30 2962 C 280.192 -1.10028 4.26124 0
M  V30 2963 H 277.311 -0.0424923 0.735774 0
M  V30 2964 H 279.953 0.583794 1.80809 0
M  V30 2965 H 278.103 -0.933614 3.77115 0
M  V30 2966 H 279.775 1.61775 4.32003 0
M  V30 2967 H 278.018 1.58611 4.03763 0
M  V30 2968 H 278.689 0.788379 5.46341 0
M  V30 2969 H 281.165 -0.591711 4.11871 0
M  V30 2970 H 280.041 -1.21761 5.35225 0
M  V30 2971 H 280.302 -2.12996 3.87408 0
M  V30 2972 N 279.361 -1.56624 0.175154 0
M  V30 2973 C 280.591 -2.01082 -0.474283 0
M  V30 2974 C 280.999 -1.05447 -1.57091 0
M  V30 2975 O 280.342 -0.0480595 -1.83637 0
M  V30 2976 C 280.404 -3.41963 -1.10911 0
M  V30 2977 C 280.068 -4.56742 -0.153666 0
M  V30 2978 C 281.065 -5.16076 0.629448 0
M  V30 2979 C 278.75 -5.02277 -0.0483776 0
M  V30 2980 C 280.744 -6.19377 1.50501 0
M  V30 2981 C 278.431 -6.05427 0.830768 0
M  V30 2982 C 279.429 -6.63849 1.60605 0
M  V30 2983 O 279.117 -7.64998 2.47049 0
M  V30 2984 H 278.849 -0.664261 -0.125432 0
M  V30 2985 H 281.403 -2.03549 0.275163 0
M  V30 2986 H 279.633 -3.36422 -1.90676 0
M  V30 2987 H 281.322 -3.70352 -1.66114 0
M  V30 2988 H 282.088 -4.81776 0.558297 0
M  V30 2989 H 277.967 -4.56513 -0.641611 0
M  V30 2990 H 281.511 -6.64906 2.1106 0
M  V30 2991 H 277.408 -6.39151 0.903107 0
M  V30 2992 H 278.176 -7.82336 2.40607 0
M  V30 2993 N 280.839 0.0985539 -1.57292 0
M  V30 2994 C 281.787 1.1387 -2.02821 0
M  V30 2995 C 282.781 1.41676 -0.928666 0
M  V30 2996 O 283.987 1.41398 -1.11385 0
M  V30 2997 H 280.362 0.384419 -0.646317 0
M  V30 2998 H 282.333 0.728347 -2.89375 0
M  V30 2999 C 281.082 2.45166 -2.46554 0
M  V30 3000 H 280.405 2.24613 -3.3074 0
M  V30 3001 H 281.845 3.16456 -2.8219 0
M  V30 3002 C 280.304 3.09216 -1.33742 0
M  V30 3003 O 280.834 3.96163 -0.66464 0
M  V30 3004 N 279.04 2.69413 -1.08928 0
M  V30 3005 H 278.587 1.98801 -1.63817 0
M  V30 3006 H 278.545 3.12594 -0.336458 0
M  V30 3007 N 282.317 1.53212 0.369288 0
M  V30 3008 C 283.566 1.68436 1.10961 0
M  V30 3009 C 283.879 0.440738 1.9057 0
M  V30 3010 O 285.085 0.473446 2.6734 0
M  V30 3011 C 283.541 2.97744 2.0218 0
M  V30 3012 C 283.149 4.29355 1.279 0
M  V30 3013 C 284.893 3.22334 2.76226 0
M  V30 3014 C 282.8 5.49755 2.17999 0
M  V30 3015 H 281.73 0.627568 0.41794 0
M  V30 3016 H 284.381 1.79713 0.370884 0
M  V30 3017 H 282.763 2.8026 2.79768 0
M  V30 3018 H 283.937 4.57458 0.554007 0
M  V30 3019 H 282.252 4.11179 0.657311 0
M  V30 3020 H 284.849 4.09471 3.43857 0
M  V30 3021 H 285.192 2.38238 3.41392 0
M  V30 3022 H 285.725 3.40475 2.05723 0
M  V30 3023 H 282.464 6.36318 1.57417 0
M  V30 3024 H 281.984 5.25937 2.88359 0
M  V30 3025 H 283.663 5.84401 2.77641 0
M  V30 3026 N 283.795 -0.628877 1.44509 0
M  V30 3027 C 285.043 -1.38565 1.4712 0
M  V30 3028 C 285.364 -1.94712 0.105899 0
M  V30 3029 O 284.634 -1.75912 -0.862079 0
M  V30 3030 H 283.214 -0.514333 0.541729 0
M  V30 3031 H 285.876 -0.740018 1.80305 0
M  V30 3032 H 284.972 -2.21583 2.19789 0
M  V30 3033 N 285.273 -1.31445 -0.869486 0
M  V30 3034 C 286.221 -1.19067 -1.99814 0
M  V30 3035 C 287.215 -0.0988569 -1.69111 0
M  V30 3036 O 288.421 -0.260781 -1.78101 0
M  V30 3037 H 284.796 -0.368677 -0.655425 0
M  V30 3038 H 286.767 -2.14555 -2.07385 0
M  V30 3039 C 285.516 -0.915323 -3.35436 0
M  V30 3040 H 284.839 -1.74759 -3.59582 0
M  V30 3041 H 286.279 -0.868895 -4.15001 0
M  V30 3042 C 284.738 0.381928 -3.34728 0
M  V30 3043 O 285.268 1.39857 -3.76567 0
M  V30 3044 N 283.474 0.398633 -2.87853 0
M  V30 3045 H 283.021 -0.429186 -2.54 0
M  V30 3046 H 282.979 1.26651 -2.87762 0
M  V30 3047 N 286.751 1.08385 -1.14413 0
M  V30 3048 C 287.991 1.8238 -0.922868 0
M  V30 3049 C 288.355 1.84225 0.540842 0
M  V30 3050 O 289.556 2.53985 0.880058 0
M  V30 3051 C 287.827 3.24048 -1.50757 0
M  V30 3052 S 289.386 4.14917 -1.4279 0
M  V30 3053 H 286.204 0.628524 -0.332384 0
M  V30 3054 H 288.806 1.30278 -1.45766 0
M  V30 3055 H 287.51 3.20288 -2.56601 0
M  V30 3056 H 287.041 3.81224 -0.971178 0
M  V30 3057 H 289.056 4.94473 -0.413582 0
M  V30 3058 N 288.23 0.939286 1.26551 0
M  V30 3059 C 289.477 0.585847 1.9384 0
M  V30 3060 C 289.805 -0.874784 1.73718 0
M  V30 3061 O 289.06 -1.64092 1.06642 0
M  V30 3062 C 289.359 0.872106 3.46596 0
M  V30 3063 C 289.025 2.31632 3.86856 0
M  V30 3064 C 287.687 2.71111 3.97558 0
M  V30 3065 C 290.039 3.25494 4.07066 0
M  V30 3066 C 287.367 4.03553 4.25866 0
M  V30 3067 C 289.719 4.57531 4.36862 0
M  V30 3068 C 288.383 4.96828 4.45778 0
M  V30 3069 H 287.653 0.214377 0.709312 0
M  V30 3070 H 290.3 1.18544 1.50398 0
M  V30 3071 H 288.605 0.18996 3.91339 0
M  V30 3072 H 290.302 0.577442 3.96821 0
M  V30 3073 H 286.892 2.00008 3.79071 0
M  V30 3074 H 291.076 2.9619 3.98227 0
M  V30 3075 H 286.332 4.33665 4.30981 0
M  V30 3076 H 290.506 5.30254 4.51446 0
M  V30 3077 H 288.133 5.99482 4.67468 0
M  V30 3078 N 289.708 -1.40897 0.706093 0
M  V30 3079 C 290.956 -2.00657 0.241054 0
M  V30 3080 C 291.277 -1.56241 -1.16678 0
M  V30 3081 O 290.547 -0.79765 -1.78926 0
M  V30 3082 H 289.127 -0.742018 0.0861308 0
M  V30 3083 H 291.789 -1.72372 0.909604 0
M  V30 3084 H 290.885 -3.10958 0.266705 0
M  V30 3085 N 291.186 -0.45159 -1.50991 0
M  V30 3086 C 292.133 0.352625 -2.2809 0
M  V30 3087 C 293.103 1.0044 -1.32291 0
M  V30 3088 O 294.288 1.02058 -1.6121 0
M  V30 3089 C 291.428 1.43983 -3.13629 0
M  V30 3090 C 290.541 0.804772 -4.24438 0
M  V30 3091 C 289.676 1.86822 -4.97263 0
M  V30 3092 C 288.715 1.21236 -5.99973 0
M  V30 3093 N 287.852 2.2178 -6.66152 0
M  V30 3094 H 292.692 -0.311186 -2.96371 0
M  V30 3095 H 290.229 -0.165308 -1.46168 0
M  V30 3096 H 292.187 2.08161 -3.61559 0
M  V30 3097 H 290.817 2.07307 -2.47434 0
M  V30 3098 H 289.869 0.0509129 -3.80366 0
M  V30 3099 H 291.181 0.286076 -4.97979 0
M  V30 3100 H 290.335 2.58628 -5.48813 0
M  V30 3101 H 289.074 2.42068 -4.23385 0
M  V30 3102 H 288.079 0.479828 -5.47702 0
M  V30 3103 H 289.304 0.667051 -6.75816 0
M  V30 3104 H 287.25 2.76079 -5.95077 0
M  V30 3105 H 287.167 1.74841 -7.35504 0
M  V30 3106 H 288.435 2.93026 -7.22327 0
M  V30 3107 N 292.664 1.56529 -0.183458 0
M  V30 3108 C 293.612 2.19873 0.758845 0
M  V30 3109 C 294.606 1.16638 1.22849 0
M  V30 3110 O 295.812 1.3481 1.19274 0
M  V30 3111 H 292.187 0.7045 0.263029 0
M  V30 3112 H 294.158 2.97724 0.200755 0
M  V30 3113 C 292.907 2.86314 1.9728 0
M  V30 3114 H 292.23 3.65487 1.62047 0
M  V30 3115 H 293.67 3.3409 2.61075 0
M  V30 3116 C 292.129 1.86729 2.80418 0
M  V30 3117 O 292.659 1.36031 3.77966 0
M  V30 3118 N 290.865 1.55216 2.45675 0
M  V30 3119 H 290.412 1.96636 1.66409 0
M  V30 3120 H 290.37 0.888388 3.01588 0
M  V30 3121 N 294.142 -0.090211 1.57342 0
M  V30 3122 C 295.389 -0.792807 1.86335 0
M  V30 3123 C 295.717 -1.78494 0.772662 0
M  V30 3124 O 294.972 -1.94305 -0.233258 0
M  V30 3125 C 295.271 -1.55222 3.21933 0
M  V30 3126 C 294.937 -0.701765 4.45406 0
M  V30 3127 C 293.599 -0.467334 4.78925 0
M  V30 3128 C 295.951 -0.11086 5.21082 0
M  V30 3129 C 293.279 0.367785 5.85546 0
M  V30 3130 C 295.631 0.711609 6.28585 0
M  V30 3131 C 294.295 0.956086 6.60617 0
M  V30 3132 H 293.565 -0.290109 0.681849 0
M  V30 3133 H 296.212 -0.0541332 1.91423 0
M  V30 3134 H 294.517 -2.3626 3.12551 0
M  V30 3135 H 296.214 -2.10032 3.41595 0
M  V30 3136 H 292.804 -0.894598 4.1916 0
M  V30 3137 H 296.988 -0.279129 4.95514 0
M  V30 3138 H 292.244 0.566128 6.08773 0
M  V30 3139 H 296.418 1.17632 6.86393 0
M  V30 3140 H 294.045 1.60499 7.43064 0
M  V30 3141 N 295.62 -1.53406 -0.361157 0
M  V30 3142 C 296.845 -1.74024 -1.12829 0
M  V30 3143 C 297.27 -0.470069 -1.82132 0
M  V30 3144 O 296.628 0.57619 -1.719 0
M  V30 3145 C 296.676 -2.90903 -2.13091 0
M  V30 3146 O 295.78 -2.59821 -3.20261 0
M  V30 3147 H 295.121 -0.577804 -0.327168 0
M  V30 3148 H 297.651 -2.00307 -0.41693 0
M  V30 3149 H 297.661 -3.17194 -2.56616 0
M  V30 3150 H 296.336 -3.83034 -1.62042 0
M  V30 3151 H 294.913 -2.44362 -2.81677 0
M  V30 3152 N 297.098 0.621204 -1.44841 0
M  V30 3153 C 298.347 1.37658 -1.47422 0
M  V30 3154 C 298.66 1.95264 -0.114629 0
M  V30 3155 O 299.866 2.71494 -0.0180199 0
M  V30 3156 C 298.322 2.49285 -2.59586 0
M  V30 3157 C 297.93 1.98149 -4.01797 0
M  V30 3158 C 299.674 3.26409 -2.71399 0
M  V30 3159 C 297.581 3.07178 -5.05367 0
M  V30 3160 H 296.511 0.517344 -0.548517 0
M  V30 3161 H 299.162 0.667257 -1.70938 0
M  V30 3162 H 297.544 3.22839 -2.29328 0
M  V30 3163 H 298.718 1.31395 -4.41669 0
M  V30 3164 H 297.033 1.33812 -3.94314 0
M  V30 3165 H 299.63 4.07706 -3.45948 0
M  V30 3166 H 299.973 3.76535 -1.77559 0
M  V30 3167 H 300.506 2.5995 -3.01116 0
M  V30 3168 H 297.245 2.61985 -6.00869 0
M  V30 3169 H 296.765 3.72542 -4.70077 0
M  V30 3170 H 298.444 3.71789 -5.29511 0
M  V30 3171 N 298.576 1.31904 0.862503 0
M  V30 3172 C 299.539 1.20131 1.95195 0
M  V30 3173 C 300.539 0.126409 1.60302 0
M  V30 3174 O 301.729 0.376234 1.70089 0
M  V30 3175 C 298.861 0.845691 3.30244 0
M  V30 3176 H 300.054 2.16943 2.07064 0
M  V30 3177 H 297.607 1.15622 1.05172 0
M  V30 3178 H 298.342 -0.120957 3.24074 0
M  V30 3179 H 298.127 1.62276 3.56944 0
M  V30 3180 H 299.617 0.787418 4.10109 0
M  V30 3181 N 300.054 -1.07777 1.14986 0
M  V30 3182 C 301.284 -1.83752 0.944402 0
M  V30 3183 C 301.692 -1.8218 -0.51058 0
M  V30 3184 O 301.035 -1.22852 -1.36576 0
M  V30 3185 C 301.097 -3.32128 1.37592 0
M  V30 3186 C 300.761 -3.57425 2.84775 0
M  V30 3187 C 301.758 -3.5173 3.8286 0
M  V30 3188 C 299.443 -3.8523 3.2234 0
M  V30 3189 C 301.437 -3.73482 5.16517 0
M  V30 3190 C 299.124 -4.06634 4.56171 0
M  V30 3191 C 300.122 -4.00754 5.53069 0
M  V30 3192 O 299.81 -4.2159 6.84483 0
M  V30 3193 H 299.542 -0.58673 0.335744 0
M  V30 3194 H 302.096 -1.36982 1.53052 0
M  V30 3195 H 300.326 -3.79686 0.733165 0
M  V30 3196 H 302.015 -3.89555 1.14024 0
M  V30 3197 H 302.781 -3.30256 3.55184 0
M  V30 3198 H 298.66 -3.88923 2.47508 0
M  V30 3199 H 302.204 -3.68808 5.92137 0
M  V30 3200 H 298.101 -4.27593 4.83564 0
M  V30 3201 H 298.869 -4.38961 6.90837 0
M  V30 3202 N 301.532 -0.945985 -1.26051 0
M  V30 3203 C 302.48 -0.450259 -2.282 0
M  V30 3204 C 303.474 0.47497 -1.62605 0
M  V30 3205 O 304.68 0.352653 -1.76512 0
M  V30 3206 H 301.055 -0.127081 -0.741184 0
M  V30 3207 H 303.026 -1.32422 -2.67408 0
M  V30 3208 C 301.775 0.26467 -3.46691 0
M  V30 3209 H 301.098 -0.438123 -3.97392 0
M  V30 3210 H 302.538 0.575678 -4.20074 0
M  V30 3211 C 300.997 1.48416 -3.02447 0
M  V30 3212 O 301.527 2.58227 -3.07704 0
M  V30 3213 N 299.733 1.34243 -2.57735 0
M  V30 3214 H 299.28 0.448994 -2.53657 0
M  V30 3215 H 299.238 2.15957 -2.28495 0
M  V30 3216 N 303.011 1.40521 -0.713556 0
M  V30 3217 C 304.26 2.00155 -0.249192 0
M  V30 3218 C 304.573 1.57224 1.16362 0
M  V30 3219 O 305.779 2.09542 1.72639 0
M  V30 3220 C 304.235 3.5773 -0.3946 0
M  V30 3221 C 303.843 4.09635 -1.81392 0
M  V30 3222 C 305.587 4.24499 0.00907364 0
M  V30 3223 C 303.494 5.59707 -1.91003 0
M  V30 3224 H 302.424 0.74868 -0.0894114 0
M  V30 3225 H 305.075 1.60784 -0.884352 0
M  V30 3226 H 303.457 3.94792 0.30911 0
M  V30 3227 H 304.631 3.83955 -2.54785 0
M  V30 3228 H 302.946 3.55456 -2.16888 0
M  V30 3229 H 305.543 5.34683 -0.0420404 0
M  V30 3230 H 305.886 4.02824 1.05065 0
M  V30 3231 H 306.419 3.92536 -0.645007 0
M  V30 3232 H 303.158 5.86234 -2.93275 0
M  V30 3233 H 302.678 5.87258 -1.22019 0
M  V30 3234 H 304.357 6.24776 -1.6812 0
M  V30 3235 N 304.489 0.459591 1.5075 0
M  V30 3236 C 305.735 -0.0994966 2.02556 0
M  V30 3237 C 306.068 -1.40399 1.3417 0
M  V30 3238 O 305.343 -1.88892 0.463683 0
M  V30 3239 C 305.626 -0.295242 3.58888 0
M  V30 3240 C 305.479 1.02947 4.37861 0
M  V30 3241 C 306.798 -1.05502 4.27267 0
M  V30 3242 H 303.917 -0.034686 0.736183 0
M  V30 3243 H 306.559 0.602938 1.8018 0
M  V30 3244 H 304.709 -0.893563 3.78084 0
M  V30 3245 H 306.381 1.66348 4.30263 0
M  V30 3246 H 304.624 1.62885 4.02058 0
M  V30 3247 H 305.295 0.846281 5.45474 0
M  V30 3248 H 307.771 -0.547993 4.12476 0
M  V30 3249 H 306.647 -1.16077 5.36486 0
M  V30 3250 H 306.908 -2.08875 3.89645 0
M  V30 3251 N 305.967 -1.56429 0.191757 0
M  V30 3252 C 306.914 -2.18936 -0.730454 0
M  V30 3253 C 307.884 -1.13557 -1.21219 0
M  V30 3254 O 309.069 -1.41794 -1.27668 0
M  V30 3255 C 306.209 -2.85013 -1.9458 0
M  V30 3256 C 305.322 -4.04909 -1.50574 0
M  V30 3257 C 304.457 -4.58853 -2.67634 0
M  V30 3258 C 303.496 -5.71114 -2.20217 0
M  V30 3259 N 302.633 -6.19478 -3.30442 0
M  V30 3260 H 307.473 -2.97389 -0.190664 0
M  V30 3261 H 305.01 -1.46869 -0.0823694 0
M  V30 3262 H 306.968 -3.21492 -2.65893 0
M  V30 3263 H 305.598 -2.09129 -2.45896 0
M  V30 3264 H 304.65 -3.74115 -0.688605 0
M  V30 3265 H 305.962 -4.86113 -1.11784 0
M  V30 3266 H 305.116 -4.97619 -3.47074 0
M  V30 3267 H 303.855 -3.76749 -3.09696 0
M  V30 3268 H 302.86 -5.31879 -1.3923 0
M  V30 3269 H 304.085 -6.55033 -1.79189 0
M  V30 3270 H 302.031 -5.40297 -3.72041 0
M  V30 3271 H 301.948 -6.95725 -2.9581 0
M  V30 3272 H 303.216 -6.62898 -4.10106 0
M  V30 3273 N 307.445 0.0818655 -1.57387 0
M  V30 3274 C 308.694 0.781681 -1.85937 0
M  V30 3275 C 309.007 1.79246 -0.782957 0
M  V30 3276 O 310.213 2.54112 -0.955987 0
M  V30 3277 C 308.669 1.44109 -3.29789 0
M  V30 3278 C 308.277 0.469396 -4.45534 0
M  V30 3279 C 310.021 2.12386 -3.67549 0
M  V30 3280 C 307.928 1.13415 -5.80423 0
M  V30 3281 H 306.858 0.295682 -0.693605 0
M  V30 3282 H 309.509 0.0348051 -1.83467 0
M  V30 3283 H 307.891 2.23588 -3.2684 0
M  V30 3284 H 309.065 -0.294856 -4.59856 0
M  V30 3285 H 307.38 -0.108383 -4.16259 0
M  V30 3286 H 309.977 2.62878 -4.65617 0
M  V30 3287 H 310.32 2.91877 -2.96839 0
M  V30 3288 H 310.853 1.39751 -3.72444 0
M  V30 3289 H 307.592 0.379771 -6.54399 0
M  V30 3290 H 307.112 1.8695 -5.69921 0
M  V30 3291 H 308.791 1.65686 -6.25426 0
M  V30 3292 N 308.923 1.53595 0.353017 0
M  V30 3293 C 310.334 1.61937 0.929153 0
M  V30 3294 C 310.685 0.494686 1.89861 0
M  V30 3295 O 309.81 -0.377017 2.1309 0
M  V30 3296 C 310.405 2.93526 1.69199 0
M  V30 3297 C 308.964 3.04161 2.21727 0
M  V30 3298 C 308.111 2.57322 1.03348 0
M  V30 3299 H 311.062 1.58155 0.131431 0
M  V30 3300 H 311.083 2.82034 2.55416 0
M  V30 3301 H 310.595 3.75362 0.986144 0
M  V30 3302 H 308.696 2.26938 2.95516 0
M  V30 3303 H 308.809 4.09465 2.48748 0
M  V30 3304 H 307.173 2.12499 1.40414 0
M  V30 3305 H 307.956 3.41588 0.342428 0
M  V30 3306 N 310.401 -0.613514 1.45168 0
M  V30 3307 C 311.812 -1.19539 1.43413 0
M  V30 3308 C 312.163 -1.95558 0.158632 0
M  V30 3309 O 311.288 -2.0335 -0.740119 0
M  V30 3310 C 311.883 -2.17445 2.59813 0
M  V30 3311 C 310.442 -2.71022 2.61197 0
M  V30 3312 C 309.589 -1.46323 2.35552 0
M  V30 3313 H 312.54 -0.403163 1.53494 0
M  V30 3314 H 312.561 -3.00373 2.33574 0
M  V30 3315 H 312.073 -1.62089 3.52631 0
M  V30 3316 H 310.174 -3.30332 1.7237 0
M  V30 3317 H 310.287 -3.15859 3.60236 0
M  V30 3318 H 308.651 -1.75072 1.84992 0
M  V30 3319 H 309.434 -0.92844 3.30507 0
M  V30 3320 N 311.879 -1.3236 -0.855495 0
M  V30 3321 C 312.809 -1.23833 -1.97958 0
M  V30 3322 C 313.79 -0.122361 -1.69659 0
M  V30 3323 O 314.975 -0.30939 -1.9172 0
M  V30 3324 C 312.105 -0.959772 -3.33775 0
M  V30 3325 C 311.059 -2.03689 -3.76424 0
M  V30 3326 C 310.385 -1.61075 -5.09862 0
M  V30 3327 C 311.685 -3.4518 -3.9198 0
M  V30 3328 H 313.379 -2.1788 -2.0535 0
M  V30 3329 H 310.925 -1.04891 -0.986605 0
M  V30 3330 H 312.878 -0.886678 -4.11966 0
M  V30 3331 H 311.602 0.0163404 -3.26596 0
M  V30 3332 H 310.261 -2.10012 -3.00484 0
M  V30 3333 H 309.909 -0.622107 -4.99138 0
M  V30 3334 H 309.609 -2.33143 -5.39368 0
M  V30 3335 H 311.133 -1.55201 -5.90546 0
M  V30 3336 H 312.547 -3.4145 -4.60526 0
M  V30 3337 H 310.944 -4.1559 -4.32903 0
M  V30 3338 H 312.014 -3.84903 -2.94919 0
M  V30 3339 N 313.357 1.07166 -1.15556 0
M  V30 3340 C 314.289 2.14341 -0.811815 0
M  V30 3341 C 315.302 1.61835 0.177015 0
M  V30 3342 O 316.491 1.78439 -0.0464996 0
M  V30 3343 C 313.591 3.38387 -0.186481 0
M  V30 3344 C 312.764 4.20238 -1.21321 0
M  V30 3345 C 311.823 5.2266 -0.609302 0
M  V30 3346 O 310.849 5.54719 -1.27576 0
M  V30 3347 N 312.051 5.77306 0.608099 0
M  V30 3348 H 314.816 2.44431 -1.73417 0
M  V30 3349 H 312.377 1.23089 -1.0517 0
M  V30 3350 H 314.369 4.04044 0.230339 0
M  V30 3351 H 312.939 3.05994 0.639249 0
M  V30 3352 H 312.159 3.50369 -1.80652 0
M  V30 3353 H 313.447 4.71736 -1.90638 0
M  V30 3354 H 312.845 5.53513 1.1679 0
M  V30 3355 H 311.402 6.44583 0.96725 0
M  V30 3356 N 314.835 0.952656 1.25548 0
M  V30 3357 C 315.798 0.475794 2.24207 0
M  V30 3358 C 316.798 -0.419428 1.55234 0
M  V30 3359 O 317.988 -0.216994 1.72843 0
M  V30 3360 C 315.12 -0.312814 3.39462 0
M  V30 3361 H 316.313 1.34779 2.67908 0
M  V30 3362 H 313.866 0.735739 1.37901 0
M  V30 3363 H 314.601 -1.20257 3.01179 0
M  V30 3364 H 314.386 0.329404 3.90714 0
M  V30 3365 H 315.876 -0.635986 4.12729 0
M  V30 3366 N 316.313 -1.40141 0.720998 0
M  V30 3367 C 317.59 -1.94677 0.189757 0
M  V30 3368 C 317.97 -1.65879 -1.30566 0
M  V30 3369 O 317.318 -0.979391 -2.06447 0
M  V30 3370 C 317.528 -3.45279 0.508304 0
M  V30 3371 C 318.876 -4.22209 0.449934 0
M  V30 3372 O 319.9 -3.53413 0.444677 0
M  V30 3373 O 318.759 -5.44788 0.432189 0
M  V30 3374 H 315.853 -0.826459 0.0299026 0
M  V30 3375 H 318.399 -1.49719 0.7989 0
M  V30 3376 H 317.171 -3.59619 1.54239 0
M  V30 3377 H 316.794 -3.97386 -0.130525 0
M  V30 3378 N 317.792 -0.46758 -1.50504 0
M  V30 3379 C 318.739 0.328413 -2.28452 0
M  V30 3380 C 319.709 0.990313 -1.33349 0
M  V30 3381 O 320.894 1.00343 -1.62284 0
M  V30 3382 C 318.034 1.40648 -3.15138 0
M  V30 3383 C 317.147 0.759709 -4.25267 0
M  V30 3384 C 316.282 1.81537 -4.99217 0
M  V30 3385 C 315.321 1.14866 -6.01226 0
M  V30 3386 N 314.458 2.14702 -6.68467 0
M  V30 3387 H 319.298 -0.342603 -2.96024 0
M  V30 3388 H 316.835 -0.180801 -1.45985 0
M  V30 3389 H 318.793 2.04315 -3.63746 0
M  V30 3390 H 317.423 2.04671 -2.49619 0
M  V30 3391 H 316.475 0.0105671 -3.80399 0
M  V30 3392 H 317.787 0.233243 -4.98254 0
M  V30 3393 H 316.941 2.52793 -5.51526 0
M  V30 3394 H 315.68 2.37564 -4.25928 0
M  V30 3395 H 314.685 0.42171 -5.4818 0
M  V30 3396 H 315.91 0.595334 -6.76485 0
M  V30 3397 H 313.856 2.69752 -5.97972 0
M  V30 3398 H 313.773 1.6703 -7.37317 0
M  V30 3399 H 315.041 2.85348 -7.25394 0
M  V30 3400 N 319.27 1.56325 -0.20005 0
M  V30 3401 C 320.18 2.22931 0.730668 0
M  V30 3402 C 321.196 1.22997 1.23076 0
M  V30 3403 O 322.372 1.55748 1.27689 0
M  V30 3404 C 319.437 2.87948 1.93098 0
M  V30 3405 C 318.498 4.03166 1.47497 0
M  V30 3406 C 317.731 4.65073 2.61807 0
M  V30 3407 O 317.954 4.25913 3.79413 0
M  V30 3408 O 316.888 5.54452 2.34237 0
M  V30 3409 H 320.714 3.03084 0.193391 0
M  V30 3410 H 318.299 1.49371 0.0294621 0
M  V30 3411 H 320.181 3.29063 2.6324 0
M  V30 3412 H 318.856 2.10771 2.45677 0
M  V30 3413 H 317.763 3.66664 0.742201 0
M  V30 3414 H 319.096 4.82022 0.995796 0
M  V30 3415 N 320.748 -0.0735177 1.57428 0
M  V30 3416 C 322.025 -0.805903 1.78226 0
M  V30 3417 C 322.405 -1.95874 0.787189 0
M  V30 3418 O 321.753 -2.2779 -0.180029 0
M  V30 3419 C 321.963 -1.28045 3.24662 0
M  V30 3420 C 323.311 -1.71453 3.88444 0
M  V30 3421 O 324.335 -1.37616 3.28543 0
M  V30 3422 O 323.194 -2.34093 4.93825 0
M  V30 3423 H 320.288 -0.386041 0.73137 0
M  V30 3424 H 322.834 -0.0537269 1.69615 0
M  V30 3425 H 321.606 -0.455476 3.8864 0
M  V30 3426 H 321.229 -2.094 3.37991 0
M  V30 3427 N 322.226 -1.5378 -0.344866 0
M  V30 3428 C 323.637 -1.62428 -0.920552 0
M  V30 3429 C 323.988 -0.504747 -1.89596 0
M  V30 3430 O 323.113 0.365711 -2.13287 0
M  V30 3431 C 323.708 -2.94419 -1.67639 0
M  V30 3432 C 322.267 -3.05333 -2.20111 0
M  V30 3433 C 321.414 -2.57866 -1.01982 0
M  V30 3434 H 324.365 -1.58222 -0.123042 0
M  V30 3435 H 324.386 -2.83384 -2.53917 0
M  V30 3436 H 323.898 -3.7588 -0.966224 0
M  V30 3437 H 321.999 -2.28502 -2.94308 0
M  V30 3438 H 322.112 -4.10778 -2.46573 0
M  V30 3439 H 320.476 -2.13241 -1.39285 0
M  V30 3440 H 321.259 -3.41765 -0.324308 0
M  V30 3441 N 323.704 0.605807 -1.45491 0
M  V30 3442 C 324.953 1.36086 -1.48874 0
M  V30 3443 C 325.266 1.95131 -0.135333 0
M  V30 3444 O 326.472 2.7146 -0.0468144 0
M  V30 3445 C 324.928 2.46518 -2.62215 0
M  V30 3446 C 324.536 1.93877 -4.03876 0
M  V30 3447 C 326.28 3.23512 -2.74846 0
M  V30 3448 C 324.187 3.01801 -5.08596 0
M  V30 3449 H 323.117 0.511497 -0.553974 0
M  V30 3450 H 325.768 0.649089 -1.71636 0
M  V30 3451 H 324.15 3.20388 -2.32739 0
M  V30 3452 H 325.324 1.26704 -4.43038 0
M  V30 3453 H 323.639 1.29622 -3.95711 0
M  V30 3454 H 326.236 4.04013 -3.50253 0
M  V30 3455 H 326.579 3.74631 -1.81542 0
M  V30 3456 H 327.112 2.56742 -3.03856 0
M  V30 3457 H 323.851 2.55597 -6.03614 0
M  V30 3458 H 323.371 3.67535 -4.74002 0
M  V30 3459 H 325.05 3.66152 -5.33424 0
M  V30 3460 N 325.182 1.32811 0.848464 0
M  V30 3461 C 326.407 1.26882 1.6406 0
M  V30 3462 C 326.832 -0.15913 1.87426 0
M  V30 3463 O 326.19 -1.11258 1.43148 0
M  V30 3464 C 326.238 2.03997 2.97351 0
M  V30 3465 O 325.342 1.39201 3.88197 0
M  V30 3466 H 324.683 0.436982 0.499943 0
M  V30 3467 H 327.213 1.75224 1.0563 0
M  V30 3468 H 327.223 2.14403 3.47124 0
M  V30 3469 H 325.898 3.0783 2.79666 0
M  V30 3470 H 324.475 1.37381 3.46671 0
M  V30 3471 N 326.66 -1.06551 1.16123 0
M  V30 3472 C 327.607 -2.13961 0.865414 0
M  V30 3473 C 328.577 -1.65066 -0.185055 0
M  V30 3474 O 329.762 -1.90732 -0.05083 0
M  V30 3475 C 326.902 -3.43113 0.369776 0
M  V30 3476 C 326.015 -4.05756 1.48276 0
M  V30 3477 C 325.15 -5.22773 0.942414 0
M  V30 3478 C 324.189 -5.77395 2.03179 0
M  V30 3479 N 323.326 -6.85731 1.50721 0
M  V30 3480 H 328.166 -2.38605 1.78527 0
M  V30 3481 H 325.703 -1.17072 0.890646 0
M  V30 3482 H 327.661 -4.17151 0.0640643 0
M  V30 3483 H 326.291 -3.18695 -0.513143 0
M  V30 3484 H 325.343 -3.29292 1.9045 0
M  V30 3485 H 326.655 -4.42351 2.30493 0
M  V30 3486 H 325.809 -6.03827 0.589729 0
M  V30 3487 H 324.548 -4.87618 0.0895191 0
M  V30 3488 H 323.553 -4.94981 2.3932 0
M  V30 3489 H 324.778 -6.14603 2.8886 0
M  V30 3490 H 322.724 -6.52499 0.676811 0
M  V30 3491 H 322.641 -7.21254 2.26557 0
M  V30 3492 H 323.909 -7.7047 1.18303 0
M  V30 3493 N 328.138 -0.959301 -1.25041 0
M  V30 3494 C 329.363 -0.633507 -1.97488 0
M  V30 3495 C 329.788 0.788555 -1.70773 0
M  V30 3496 O 329.146 1.53394 -0.966431 0
M  V30 3497 C 329.194 -0.904057 -3.49083 0
M  V30 3498 O 328.298 0.0147939 -4.12397 0
M  V30 3499 H 327.639 -0.240368 -0.618966 0
M  V30 3500 H 330.169 -1.28717 -1.59038 0
M  V30 3501 H 330.179 -0.832203 -3.99423 0
M  V30 3502 H 328.854 -1.94048 -3.67856 0
M  V30 3503 H 327.431 -0.109664 -3.72739 0
M  V30 3504 N 329.616 1.39756 -0.72842 0
M  V30 3505 C 330.526 2.34444 -0.0855374 0
M  V30 3506 C 331.542 1.57976 0.729356 0
M  V30 3507 O 332.718 1.90301 0.659346 0
M  V30 3508 C 329.783 3.36965 0.815798 0
M  V30 3509 C 328.844 4.29299 -0.0105996 0
M  V30 3510 C 328.077 5.26923 0.84781 0
M  V30 3511 O 328.3 5.30859 2.08673 0
M  V30 3512 O 327.234 6.01249 0.279969 0
M  V30 3513 H 331.06 2.91065 -0.866892 0
M  V30 3514 H 328.645 1.4117 -0.48902 0
M  V30 3515 H 330.527 3.99804 1.33171 0
M  V30 3516 H 329.202 2.82739 1.57608 0
M  V30 3517 H 328.109 3.69703 -0.571877 0
M  V30 3518 H 329.442 4.86712 -0.73295 0
M  V30 3519 N 331.094 0.475555 1.50254 0
M  V30 3520 C 332.343 -0.0795996 2.01543 0
M  V30 3521 C 332.656 -1.4038 1.36209 0
M  V30 3522 O 333.862 -2.04415 1.7868 0
M  V30 3523 C 332.318 -0.192363 3.59386 0
M  V30 3524 C 331.926 1.12367 4.33679 0
M  V30 3525 C 333.67 -0.699238 4.18701 0
M  V30 3526 C 331.577 0.974453 5.83317 0
M  V30 3527 H 330.507 -0.0335228 0.753254 0
M  V30 3528 H 333.158 0.611128 1.73025 0
M  V30 3529 H 331.54 -0.946974 3.84511 0
M  V30 3530 H 332.714 1.88958 4.20276 0
M  V30 3531 H 331.029 1.562 3.85993 0
M  V30 3532 H 333.626 -0.827978 5.28251 0
M  V30 3533 H 333.969 -1.69171 3.80377 0
M  V30 3534 H 334.502 -0.00188807 3.978 0
M  V30 3535 H 331.241 1.94042 6.26121 0
M  V30 3536 H 330.761 0.248998 5.99283 0
M  V30 3537 H 332.44 0.642867 6.43798 0
M  V30 3538 N 332.573 -1.56217 0.208337 0
M  V30 3539 C 333.819 -1.98242 -0.427552 0
M  V30 3540 C 334.152 -1.09554 -1.60348 0
M  V30 3541 O 333.427 -0.15035 -1.93918 0
M  V30 3542 C 333.71 -3.4931 -0.874907 0
M  V30 3543 C 333.563 -4.48773 0.303751 0
M  V30 3544 C 334.882 -4.04424 -1.73577 0
M  V30 3545 H 332.001 -0.720744 -0.153936 0
M  V30 3546 H 334.643 -1.87586 0.30192 0
M  V30 3547 H 332.793 -3.58522 -1.49648 0
M  V30 3548 H 334.465 -4.51586 0.941682 0
M  V30 3549 H 332.708 -4.23194 0.953375 0
M  V30 3550 H 333.379 -5.51976 -0.0519883 0
M  V30 3551 H 335.855 -3.98075 -1.21143 0
M  V30 3552 H 334.731 -5.1047 -2.01771 0
M  V30 3553 H 334.992 -3.50494 -2.69456 0
M  V30 3554 N 334.051 0.0651679 -1.57465 0
M  V30 3555 C 335.297 0.764193 -1.87851 0
M  V30 3556 C 335.63 1.76889 -0.801495 0
M  V30 3557 O 334.905 1.93594 0.187528 0
M  V30 3558 C 335.188 1.46625 -3.28897 0
M  V30 3559 C 335.041 0.477515 -4.47258 0
M  V30 3560 C 336.36 2.4095 -3.68281 0
M  V30 3561 H 333.479 0.276351 -0.683227 0
M  V30 3562 H 336.121 0.0272868 -1.8998 0
M  V30 3563 H 334.271 2.09438 -3.27212 0
M  V30 3564 H 335.943 -0.145922 -4.61069 0
M  V30 3565 H 334.186 -0.206576 -4.33308 0
M  V30 3566 H 334.857 1.0065 -5.42746 0
M  V30 3567 H 337.333 1.88209 -3.71102 0
M  V30 3568 H 336.209 2.87072 -4.67847 0
M  V30 3569 H 336.47 3.26049 -2.98571 0
M  V30 3570 N 335.529 1.53961 0.336706 0
M  V30 3571 C 336.461 1.78751 1.4346 0
M  V30 3572 C 337.474 0.669019 1.48418 0
M  V30 3573 O 338.663 0.945884 1.51378 0
M  V30 3574 C 335.763 1.87844 2.82078 0
M  V30 3575 C 334.936 3.17854 3.00479 0
M  V30 3576 C 333.995 3.17816 4.19379 0
M  V30 3577 O 333.021 3.91511 4.13168 0
M  V30 3578 N 334.223 2.40669 5.2826 0
M  V30 3579 H 336.988 2.73493 1.22563 0
M  V30 3580 H 334.549 1.53096 0.526625 0
M  V30 3581 H 336.541 1.85261 3.59806 0
M  V30 3582 H 335.111 1.00257 2.96086 0
M  V30 3583 H 334.331 3.33504 2.10163 0
M  V30 3584 H 335.619 4.03718 3.0966 0
M  V30 3585 H 335.017 1.8036 5.36178 0
M  V30 3586 H 333.574 2.43877 6.04456 0
M  V30 3587 N 337.007 -0.598083 1.45811 0
M  V30 3588 C 338.254 -1.35681 1.50323 0
M  V30 3589 C 338.582 -1.9393 0.148739 0
M  V30 3590 O 337.837 -1.76094 -0.853787 0
M  V30 3591 C 338.136 -2.51669 2.53766 0
M  V30 3592 C 337.802 -2.11508 3.98215 0
M  V30 3593 C 336.464 -2.0027 4.37545 0
M  V30 3594 C 338.816 -1.80308 4.89018 0
M  V30 3595 C 336.144 -1.56067 5.65562 0
M  V30 3596 C 338.496 -1.37589 6.17456 0
M  V30 3597 C 337.16 -1.24916 6.55708 0
M  V30 3598 H 336.43 -0.496492 0.550069 0
M  V30 3599 H 339.077 -0.675052 1.79207 0
M  V30 3600 H 337.382 -3.25225 2.18486 0
M  V30 3601 H 339.079 -3.09895 2.54492 0
M  V30 3602 H 335.669 -2.21185 3.67117 0
M  V30 3603 H 339.853 -1.87884 4.59362 0
M  V30 3604 H 335.109 -1.44886 5.93985 0
M  V30 3605 H 339.283 -1.12495 6.87254 0
M  V30 3606 H 336.91 -0.904386 7.54801 0
M  V30 3607 N 338.485 -1.33259 -0.841409 0
M  V30 3608 C 339.896 -1.22066 -1.41269 0
M  V30 3609 C 340.247 0.161479 -1.95534 0
M  V30 3610 O 339.372 1.06094 -1.88608 0
M  V30 3611 C 339.967 -2.20996 -2.568 0
M  V30 3612 C 338.526 -2.13649 -3.09888 0
M  V30 3613 C 337.673 -2.08623 -1.82679 0
M  V30 3614 H 340.624 -1.44895 -0.647395 0
M  V30 3615 H 340.645 -1.81621 -3.34356 0
M  V30 3616 H 340.157 -3.2158 -2.17274 0
M  V30 3617 H 338.258 -1.16359 -3.53965 0
M  V30 3618 H 338.371 -3.04079 -3.70234 0
M  V30 3619 H 336.735 -1.54061 -2.02824 0
M  V30 3620 H 337.518 -3.1101 -1.45353 0
M  V30 3621 N 339.963 1.05934 -1.16686 0
M  V30 3622 C 341.203 1.80382 -0.961345 0
M  V30 3623 C 341.567 1.85331 0.501643 0
M  V30 3624 O 342.768 2.55795 0.825986 0
M  V30 3625 C 341.039 3.20777 -1.57596 0
M  V30 3626 S 342.598 4.11795 -1.51559 0
M  V30 3627 H 339.416 0.621332 -0.345641 0
M  V30 3628 H 342.018 1.27157 -1.48497 0
M  V30 3629 H 340.722 3.14773 -2.63337 0
M  V30 3630 H 340.253 3.79078 -1.05182 0
M  V30 3631 H 342.268 4.93485 -0.518374 0
M  V30 3632 N 341.441 0.965919 1.2453 0
M  V30 3633 C 342.666 0.643971 1.97149 0
M  V30 3634 C 343.091 -0.779487 1.71189 0
M  V30 3635 O 342.449 -1.5288 0.974553 0
M  V30 3636 C 342.497 0.922557 3.48599 0
M  V30 3637 O 341.601 0.00707672 4.12399 0
M  V30 3638 H 340.942 0.243647 0.617683 0
M  V30 3639 H 343.472 1.29558 1.58353 0
M  V30 3640 H 343.482 0.853373 3.98976 0
M  V30 3641 H 342.157 1.95996 3.66822 0
M  V30 3642 H 340.734 0.12943 3.72675 0
M  V30 3643 N 342.919 -1.39368 0.735821 0
M  V30 3644 C 344.196 -1.94465 0.210395 0
M  V30 3645 C 344.576 -1.67254 -1.28799 0
M  V30 3646 O 343.924 -1.00123 -2.05396 0
M  V30 3647 C 344.134 -3.4472 0.544897 0
M  V30 3648 C 345.482 -4.21708 0.494689 0
M  V30 3649 O 346.506 -3.52922 0.482136 0
M  V30 3650 O 345.365 -5.44299 0.489947 0
M  V30 3651 H 342.459 -0.826096 0.0386666 0
M  V30 3652 H 345.005 -1.48863 0.814735 0
M  V30 3653 H 343.777 -3.57963 1.58045 0
M  V30 3654 H 343.4 -3.97502 -0.08837 0
M  V30 3655 N 344.397 -0.483516 -1.5 0
M  V30 3656 C 345.813 -0.138404 -1.58999 0
M  V30 3657 C 346.013 1.35597 -1.4905 0
M  V30 3658 O 345.069 2.13039 -1.35539 0
M  V30 3659 C 346.382 -0.699658 -2.92447 0
M  V30 3660 C 347.93 -0.664195 -3.05872 0
M  V30 3661 C 348.405 -1.20321 -4.41913 0
M  V30 3662 N 349.896 -1.16315 -4.48358 0
M  V30 3663 C 350.631 -1.55058 -5.52037 0
M  V30 3664 N 350.127 -2.01311 -6.62907 0
M  V30 3665 N 351.92 -1.46584 -5.42651 0
M  V30 3666 H 344.071 -1.45529 -1.5471 0
M  V30 3667 H 346.334 -0.60258 -0.731848 0
M  V30 3668 H 346.04 -1.747 -3.05242 0
M  V30 3669 H 345.914 -0.150194 -3.76901 0
M  V30 3670 H 348.301 0.374272 -2.92717 0
M  V30 3671 H 348.382 -1.25061 -2.23144 0
M  V30 3672 H 348.026 -2.24037 -4.55818 0
M  V30 3673 H 347.956 -0.592896 -5.23252 0
M  V30 3674 H 350.447 -0.824058 -3.68806 0
M  V30 3675 H 350.76 -2.2899 -7.38095 0
M  V30 3676 H 349.105 -2.05273 -6.63994 0
M  V30 3677 H 352.296 -1.10281 -4.54924 0
M  V30 3678 H 352.469 -1.77103 -6.23329 0
M  V30 3679 N 345.875 1.56104 -0.216619 0
M  V30 3680 C 347.122 1.98172 0.416416 0
M  V30 3681 C 347.45 1.10413 1.60122 0
M  V30 3682 O 346.705 0.147967 1.9514 0
M  V30 3683 C 347.004 3.45923 0.898464 0
M  V30 3684 C 346.67 4.50559 -0.175288 0
M  V30 3685 C 345.332 4.78897 -0.470271 0
M  V30 3686 C 347.684 5.1334 -0.901728 0
M  V30 3687 C 345.012 5.67299 -1.4963 0
M  V30 3688 C 347.364 6.02853 -1.91705 0
M  V30 3689 C 346.028 6.29537 -2.21901 0
M  V30 3690 H 345.298 0.725164 0.152377 0
M  V30 3691 H 347.945 1.88839 -0.318103 0
M  V30 3692 H 346.25 3.52434 1.71165 0
M  V30 3693 H 347.947 3.75841 1.39803 0
M  V30 3694 H 344.537 4.28551 0.0647806 0
M  V30 3695 H 348.721 4.91521 -0.687072 0
M  V30 3696 H 343.977 5.86239 -1.73592 0
M  V30 3697 H 348.151 6.50552 -2.48505 0
M  V30 3698 H 345.778 6.97835 -3.01548 0
M  V30 3699 N 347.353 -0.0568162 1.57498 0
M  V30 3700 C 348.3 -1.06591 2.04712 0
M  V30 3701 C 349.27 -1.3758 0.930644 0
M  V30 3702 O 350.455 -1.48392 1.19935 0
M  V30 3703 C 347.595 -2.3701 2.50839 0
M  V30 3704 C 346.708 -2.12421 3.76167 0
M  V30 3705 C 345.843 -3.36511 4.11015 0
M  V30 3706 C 344.882 -3.07353 5.2934 0
M  V30 3707 N 344.019 -4.23816 5.59754 0
M  V30 3708 H 348.859 -0.65631 2.90683 0
M  V30 3709 H 346.396 -0.312481 1.43743 0
M  V30 3710 H 348.354 -3.13175 2.7564 0
M  V30 3711 H 346.984 -2.75744 1.67825 0
M  V30 3712 H 346.036 -1.2688 3.58616 0
M  V30 3713 H 347.348 -1.86894 4.62463 0
M  V30 3714 H 346.502 -4.21062 4.36797 0
M  V30 3715 H 345.241 -3.65128 3.23315 0
M  V30 3716 H 344.246 -2.212 5.03339 0
M  V30 3717 H 345.471 -2.80043 6.1867 0
M  V30 3718 H 343.417 -4.52436 4.75014 0
M  V30 3719 H 343.334 -4.01614 6.40501 0
M  V30 3720 H 344.602 -5.0932 5.90096 0
M  V30 3721 N 348.832 -1.54138 -0.328536 0
M  V30 3722 C 350.243 -1.63395 -0.903272 0
M  V30 3723 C 350.594 -0.524828 -1.8905 0
M  V30 3724 O 349.719 0.343068 -2.13663 0
M  V30 3725 C 350.314 -2.9618 -1.64507 0
M  V30 3726 C 348.873 -3.0765 -2.1686 0
M  V30 3727 C 348.02 -2.58933 -0.992416 0
M  V30 3728 H 350.971 -1.58344 -0.106253 0
M  V30 3729 H 350.992 -2.86061 -2.50897 0
M  V30 3730 H 350.504 -3.76884 -0.926302 0
M  V30 3731 H 348.605 -2.31611 -2.91868 0
M  V30 3732 H 348.718 -4.1337 -2.42202 0
M  V30 3733 H 347.082 -2.14706 -1.37016 0
M  V30 3734 H 347.865 -3.42089 -0.288041 0
M  V30 3735 N 350.31 0.590341 -1.46126 0
M  V30 3736 C 351.535 1.37991 -1.54833 0
M  V30 3737 C 351.96 1.87163 -0.187506 0
M  V30 3738 O 351.318 1.61133 0.831008 0
M  V30 3739 C 351.366 2.54867 -2.55098 0
M  V30 3740 O 350.47 3.56061 -2.08073 0
M  V30 3741 H 349.811 0.411265 -0.521303 0
M  V30 3742 H 352.341 0.716819 -1.91632 0
M  V30 3743 H 352.351 3.01886 -2.74461 0
M  V30 3744 H 351.026 2.18429 -3.53923 0
M  V30 3745 H 349.603 3.15574 -1.98664 0
M  V30 3746 N 351.788 1.33704 0.83433 0
M  V30 3747 C 353.018 1.28281 1.6195 0
M  V30 3748 C 353.426 -0.147603 1.88623 0
M  V30 3749 O 352.769 -1.1016 1.47005 0
M  V30 3750 C 352.831 1.99386 2.99141 0
M  V30 3751 C 352.495 3.48681 2.95416 0
M  V30 3752 C 353.492 4.438 2.70809 0
M  V30 3753 C 351.177 3.90925 3.15409 0
M  V30 3754 C 353.171 5.79138 2.66229 0
M  V30 3755 C 350.858 5.26366 3.10454 0
M  V30 3756 C 351.856 6.20284 2.85895 0
M  V30 3757 O 351.544 7.53245 2.80852 0
M  V30 3758 H 351.276 0.44315 0.510484 0
M  V30 3759 H 353.83 1.76711 1.04702 0
M  V30 3760 H 352.06 1.45554 3.58261 0
M  V30 3761 H 353.749 1.87403 3.60049 0
M  V30 3762 H 354.515 4.12485 2.5511 0
M  V30 3763 H 350.394 3.18229 3.33543 0
M  V30 3764 H 353.938 6.52416 2.4698 0
M  V30 3765 H 349.835 5.57304 3.25703 0
M  V30 3766 H 350.603 7.62846 2.96661 0
M  V30 3767 N 353.266 -1.05314 1.17247 0
M  V30 3768 C 354.512 -1.78557 0.961513 0
M  V30 3769 C 354.845 -1.87419 -0.508697 0
M  V30 3770 O 354.12 -1.37307 -1.37757 0
M  V30 3771 C 354.403 -3.22514 1.60176 0
M  V30 3772 C 354.256 -3.21673 3.14399 0
M  V30 3773 C 355.575 -4.20318 1.30463 0
M  V30 3774 H 352.694 -0.6482 0.350723 0
M  V30 3775 H 355.336 -1.23102 1.44727 0
M  V30 3776 H 353.486 -3.69867 1.18871 0
M  V30 3777 H 355.158 -2.82405 3.64753 0
M  V30 3778 H 353.401 -2.60048 3.47214 0
M  V30 3779 H 354.072 -4.23271 3.54324 0
M  V30 3780 H 356.548 -3.81454 1.66229 0
M  V30 3781 H 355.424 -5.19289 1.77848 0
M  V30 3782 H 355.685 -4.41526 0.22521 0
M  V30 3783 N 354.744 -0.972509 -1.24016 0
M  V30 3784 C 355.694 -0.477561 -2.22942 0
M  V30 3785 C 356.678 0.44308 -1.54679 0
M  V30 3786 O 357.87 0.273219 -1.74879 0
M  V30 3787 C 354.999 0.226348 -3.42553 0
M  V30 3788 C 354.085 -0.713403 -4.18057 0
M  V30 3789 N 354.476 -1.8527 -4.70647 0
M  V30 3790 C 352.774 -0.525145 -4.42898 0
M  V30 3791 C 353.475 -2.44089 -5.28011 0
M  V30 3792 N 352.451 -1.72556 -5.15486 0
M  V30 3793 H 356.253 -1.34678 -2.61226 0
M  V30 3794 H 353.767 -0.832196 -1.39457 0
M  V30 3795 H 355.764 0.598184 -4.12586 0
M  V30 3796 H 354.424 1.09195 -3.05788 0
M  V30 3797 H 355.435 -2.2341 -4.67235 0
M  V30 3798 H 352.112 0.296096 -4.16449 0
M  V30 3799 H 353.502 -3.40259 -5.79374 0
M  V30 3800 N 356.222 1.38976 -0.743202 0
M  V30 3801 C 357.447 2.05161 -0.303936 0
M  V30 3802 C 357.872 1.55677 1.05576 0
M  V30 3803 O 357.23 0.704131 1.67068 0
M  V30 3804 C 357.278 3.59138 -0.324373 0
M  V30 3805 O 356.382 4.06668 0.685204 0
M  V30 3806 H 355.723 0.649815 -0.136518 0
M  V30 3807 H 358.253 1.77852 -1.01142 0
M  V30 3808 H 358.263 4.07639 -0.171618 0
M  V30 3809 H 356.938 3.94515 -1.31647 0
M  V30 3810 H 355.515 3.69561 0.497913 0
M  V30 3811 N 357.7 0.491464 1.49741 0
M  V30 3812 C 358.947 -0.0564256 2.02421 0
M  V30 3813 C 359.275 -1.37872 1.37192 0
M  V30 3814 O 358.53 -1.89375 0.493508 0
M  V30 3815 C 358.829 -0.267329 3.56399 0
M  V30 3816 C 358.495 0.975775 4.40215 0
M  V30 3817 C 357.157 1.31655 4.62839 0
M  V30 3818 C 359.509 1.80251 4.89039 0
M  V30 3819 C 356.837 2.48375 5.31532 0
M  V30 3820 C 359.189 2.96116 5.59015 0
M  V30 3821 C 357.853 3.30585 5.79888 0
M  V30 3822 H 357.123 -0.0206476 0.740712 0
M  V30 3823 H 359.77 0.649686 1.80143 0
M  V30 3824 H 358.075 -1.05588 3.77304 0
M  V30 3825 H 359.772 -0.705549 3.94744 0
M  V30 3826 H 356.362 0.700315 4.2284 0
M  V30 3827 H 360.546 1.55239 4.71396 0
M  V30 3828 H 355.802 2.7533 5.45897 0
M  V30 3829 H 359.976 3.60509 5.95824 0
M  V30 3830 H 357.603 4.21132 6.32892 0
M  V30 3831 N 359.178 -1.55987 0.224894 0
M  V30 3832 C 360.426 -1.97998 -0.405099 0
M  V30 3833 C 360.747 -1.11387 -1.60056 0
M  V30 3834 O 360.017 -0.191645 -1.9496 0
M  V30 3835 H 358.597 -0.731235 -0.152658 0
M  V30 3836 H 361.259 -1.92279 0.318567 0
M  V30 3837 H 360.355 -3.03463 -0.729167 0
M  V30 3838 N 360.656 0.0484629 -1.57525 0
M  V30 3839 C 361.586 1.0549 -2.08313 0
M  V30 3840 C 362.567 1.38929 -0.981463 0
M  V30 3841 O 363.752 1.48151 -1.25558 0
M  V30 3842 C 360.882 2.36162 -2.54646 0
M  V30 3843 C 359.836 2.17016 -3.68901 0
M  V30 3844 C 359.162 3.53278 -4.01371 0
M  V30 3845 C 360.462 1.57219 -4.98076 0
M  V30 3846 H 362.156 0.632195 -2.92649 0
M  V30 3847 H 359.702 0.302654 -1.40784 0
M  V30 3848 H 361.655 3.06882 -2.88793 0
M  V30 3849 H 360.379 2.80456 -1.67368 0
M  V30 3850 H 359.038 1.48733 -3.35073 0
M  V30 3851 H 358.686 3.95185 -3.11188 0
M  V30 3852 H 358.386 3.41299 -4.78318 0
M  V30 3853 H 359.91 4.25391 -4.38035 0
M  V30 3854 H 361.324 2.17832 -5.30304 0
M  V30 3855 H 359.721 1.55871 -5.79503 0
M  V30 3856 H 360.791 0.535956 -4.81929 0
M  V30 3857 N 362.134 1.5431 0.320358 0
M  V30 3858 C 363.362 1.76636 1.07738 0
M  V30 3859 C 363.777 0.51649 1.81598 0
M  V30 3860 O 363.134 -0.512942 1.75143 0
M  V30 3861 C 363.185 2.96158 2.07299 0
M  V30 3862 O 362.906 4.16313 1.36438 0
M  V30 3863 C 364.407 3.3072 2.95193 0
M  V30 3864 H 361.627 0.589597 0.320339 0
M  V30 3865 H 364.171 2.01207 0.36551 0
M  V30 3866 H 362.326 2.73851 2.74016 0
M  V30 3867 H 362.74 4.83565 2.03138 0
M  V30 3868 H 364.214 4.17643 3.60941 0
M  V30 3869 H 364.691 2.48026 3.62463 0
M  V30 3870 H 365.297 3.55117 2.34034 0
M  V30 3871 N 363.613 -0.582584 1.46437 0
M  V30 3872 C 365.024 -1.1647 1.45916 0
M  V30 3873 C 365.375 -1.95177 0.200077 0
M  V30 3874 O 364.5 -2.04874 -0.696819 0
M  V30 3875 C 365.095 -2.11885 2.64367 0
M  V30 3876 C 363.654 -2.65421 2.66887 0
M  V30 3877 C 362.801 -1.41294 2.38603 0
M  V30 3878 H 365.752 -0.370514 1.54314 0
M  V30 3879 H 365.773 -2.9535 2.39892 0
M  V30 3880 H 365.285 -1.54573 3.5599 0
M  V30 3881 H 363.386 -3.26602 1.79338 0
M  V30 3882 H 363.499 -3.08147 3.66854 0
M  V30 3883 H 361.863 -1.71109 1.88663 0
M  V30 3884 H 362.646 -0.858125 3.32402 0
M  V30 3885 N 365.091 -1.34144 -0.827227 0
M  V30 3886 C 366.039 -1.25364 -1.95925 0
M  V30 3887 C 367.033 -0.152608 -1.68711 0
M  V30 3888 O 368.239 -0.317311 -1.77181 0
M  V30 3889 H 364.614 -0.389342 -0.643364 0
M  V30 3890 H 366.585 -2.21045 -2.00454 0
M  V30 3891 C 365.334 -1.02158 -3.32354 0
M  V30 3892 H 364.657 -1.86111 -3.5384 0
M  V30 3893 H 366.097 -1.00048 -4.12027 0
M  V30 3894 C 364.556 0.275244 -3.35774 0
M  V30 3895 O 365.086 1.27806 -3.80826 0
M  V30 3896 N 363.292 0.306853 -2.88975 0
M  V30 3897 H 362.839 -0.509777 -2.52506 0
M  V30 3898 H 362.797 1.17432 -2.91646 0
M  V30 3899 N 366.569 1.04691 -1.17803 0
M  V30 3900 C 367.799 1.81183 -0.992788 0
M  V30 3901 C 368.207 1.8347 0.462098 0
M  V30 3902 O 367.55 1.2643 1.33271 0
M  V30 3903 C 367.612 3.28363 -1.46349 0
M  V30 3904 C 367.276 3.49749 -2.94151 0
M  V30 3905 C 368.273 3.41456 -3.92051 0
M  V30 3906 C 365.958 3.76548 -3.32441 0
M  V30 3907 C 367.952 3.59656 -5.26238 0
M  V30 3908 C 365.639 3.94396 -4.66792 0
M  V30 3909 C 366.637 3.8595 -5.635 0
M  V30 3910 O 366.325 4.03294 -6.9542 0
M  V30 3911 H 366.057 0.577622 -0.351182 0
M  V30 3912 H 368.611 1.32876 -1.5663 0
M  V30 3913 H 366.841 3.77609 -0.833574 0
M  V30 3914 H 368.53 3.86395 -1.24313 0
M  V30 3915 H 369.296 3.20723 -3.63815 0
M  V30 3916 H 365.175 3.82224 -2.57732 0
M  V30 3917 H 368.719 3.52979 -6.01707 0
M  V30 3918 H 364.616 4.14622 -4.94731 0
M  V30 3919 H 365.384 4.2049 -7.02232 0
M  V30 3920 N 368.047 0.979072 1.23499 0
M  V30 3921 C 369.296 0.642751 1.91185 0
M  V30 3922 C 369.609 -0.827253 1.77245 0
M  V30 3923 O 370.815 -1.27458 2.39722 0
M  V30 3924 C 369.271 1.09901 3.42709 0
M  V30 3925 C 368.879 2.59327 3.65313 0
M  V30 3926 C 370.623 0.836371 4.16179 0
M  V30 3927 C 368.53 2.98627 5.10467 0
M  V30 3928 H 367.46 0.236698 0.715884 0
M  V30 3929 H 370.111 1.1868 1.39955 0
M  V30 3930 H 368.493 0.48319 3.93041 0
M  V30 3931 H 369.667 3.26136 3.25533 0
M  V30 3932 H 367.982 2.83323 3.05151 0
M  V30 3933 H 370.579 1.10586 5.23139 0
M  V30 3934 H 370.922 -0.227509 4.15678 0
M  V30 3935 H 371.455 1.41371 3.71832 0
M  V30 3936 H 368.194 4.04133 5.16098 0
M  V30 3937 H 367.714 2.3651 5.51201 0
M  V30 3938 H 369.393 2.89159 5.78788 0
M  V30 3939 N 369.525 -1.3858 0.750561 0
M  V30 3940 C 370.771 -2.00481 0.305825 0
M  V30 3941 C 371.104 -1.5944 -1.10872 0
M  V30 3942 O 370.379 -0.83052 -1.75877 0
M  V30 3943 C 370.662 -3.5758 0.425287 0
M  V30 3944 C 370.515 -4.08594 1.88072 0
M  V30 3945 C 371.834 -4.39719 -0.183122 0
M  V30 3946 H 368.953 -0.728348 0.112598 0
M  V30 3947 H 371.595 -1.64566 0.949638 0
M  V30 3948 H 369.745 -3.88306 -0.122828 0
M  V30 3949 H 371.417 -3.88523 2.48691 0
M  V30 3950 H 369.66 -3.61574 2.39681 0
M  V30 3951 H 370.331 -5.177 1.91548 0
M  V30 3952 H 372.807 -4.15128 0.284303 0
M  V30 3953 H 371.683 -5.48856 -0.0692757 0
M  V30 3954 H 371.944 -4.23434 -1.27106 0
M  V30 3955 N 371.003 -0.499398 -1.49478 0
M  V30 3956 C 372.25 0.0456899 -2.02448 0
M  V30 3957 C 372.578 1.37142 -1.37921 0
M  V30 3958 O 371.833 1.89111 -0.503544 0
M  V30 3959 C 372.132 0.248424 -3.56536 0
M  V30 3960 C 371.798 -0.999107 -4.39692 0
M  V30 3961 C 370.46 -1.34108 -4.62135 0
M  V30 3962 C 372.812 -1.82842 -4.88076 0
M  V30 3963 C 370.14 -2.51191 -5.30208 0
M  V30 3964 C 372.492 -2.99076 -5.57437 0
M  V30 3965 C 371.156 -3.33655 -5.78127 0
M  V30 3966 H 370.426 0.0167191 -0.740811 0
M  V30 3967 H 373.073 -0.65923 -1.79795 0
M  V30 3968 H 371.378 1.03586 -3.77859 0
M  V30 3969 H 373.075 0.684605 -3.95113 0
M  V30 3970 H 369.665 -0.722729 -4.22463 0
M  V30 3971 H 373.849 -1.57737 -4.70566 0
M  V30 3972 H 369.105 -2.78221 -5.44429 0
M  V30 3973 H 373.279 -3.63664 -5.93904 0
M  V30 3974 H 370.906 -4.24483 -6.30649 0
M  V30 3975 N 372.481 1.55866 -0.233164 0
M  V30 3976 C 373.727 1.98897 0.395959 0
M  V30 3977 C 374.06 1.12091 1.58585 0
M  V30 3978 O 373.335 0.181182 1.93654 0
M  V30 3979 C 373.618 3.50658 0.819224 0
M  V30 3980 C 373.471 4.48233 -0.375109 0
M  V30 3981 C 374.79 4.07135 1.67121 0
M  V30 3982 H 371.909 0.723102 0.142451 0
M  V30 3983 H 374.551 1.87082 -0.331725 0
M  V30 3984 H 372.701 3.60857 1.43925 0
M  V30 3985 H 374.373 4.50031 -1.01341 0
M  V30 3986 H 372.616 4.21624 -1.02058 0
M  V30 3987 H 373.287 5.51988 -0.0358328 0
M  V30 3988 H 375.763 3.99952 1.14795 0
M  V30 3989 H 374.639 5.13615 1.93625 0
M  V30 3990 H 374.9 3.54736 2.63846 0
M  V30 3991 N 373.959 -0.0401083 1.57549 0
M  V30 3992 C 374.869 -1.06133 2.0922 0
M  V30 3993 C 375.885 -1.40356 1.0284 0
M  V30 3994 O 377.061 -1.49897 1.34509 0
M  V30 3995 C 374.126 -2.34658 2.55218 0
M  V30 3996 C 373.187 -2.07117 3.76033 0
M  V30 3997 C 372.42 -3.29514 4.19829 0
M  V30 3998 O 372.643 -4.39794 3.63232 0
M  V30 3999 O 371.577 -3.15863 5.12362 0
M  V30 4000 H 375.403 -0.652244 2.96613 0
M  V30 4001 H 372.988 -0.256368 1.47184 0
M  V30 4002 H 374.87 -3.10239 2.85184 0
M  V30 4003 H 373.545 -2.74883 1.70941 0
M  V30 4004 H 372.452 -1.29139 3.51104 0
M  V30 4005 H 373.785 -1.71754 4.61261 0
M  V30 4006 N 375.437 -1.54477 -0.31217 0
M  V30 4007 C 376.665 -1.77205 -1.068 0
M  V30 4008 C 377.08 -0.526114 -1.81321 0
M  V30 4009 O 376.437 0.503647 -1.75413 0
M  V30 4010 C 376.488 -2.97253 -2.05725 0
M  V30 4011 O 376.209 -4.1703 -1.34228 0
M  V30 4012 C 377.71 -3.32281 -2.93435 0
M  V30 4013 H 374.93 -0.591287 -0.317208 0
M  V30 4014 H 377.474 -2.01398 -0.354834 0
M  V30 4015 H 375.629 -2.753 -2.72559 0
M  V30 4016 H 376.043 -4.84636 -2.00571 0
M  V30 4017 H 377.517 -4.19551 -3.58721 0
M  V30 4018 H 377.994 -2.49945 -3.61143 0
M  V30 4019 H 378.6 -3.56353 -2.32147 0
M  V30 4020 N 376.915 0.57481 -1.46744 0
M  V30 4021 C 378.326 1.15695 -1.46532 0
M  V30 4022 C 378.677 1.95068 -0.210425 0
M  V30 4023 O 377.802 2.05241 0.685944 0
M  V30 4024 C 378.397 2.1048 -2.65487 0
M  V30 4025 C 376.956 2.64002 -2.68291 0
M  V30 4026 C 376.103 1.40026 -2.39349 0
M  V30 4027 H 379.054 0.362325 -1.54509 0
M  V30 4028 H 379.075 2.94074 -2.41455 0
M  V30 4029 H 378.587 1.52683 -3.56805 0
M  V30 4030 H 376.688 3.25646 -1.81067 0
M  V30 4031 H 376.801 3.06197 -3.68483 0
M  V30 4032 H 375.165 1.70106 -1.89568 0
M  V30 4033 H 375.948 0.840485 -3.32852 0
M  V30 4034 N 378.394 1.34581 0.820102 0
M  V30 4035 C 379.64 1.27285 1.57881 0
M  V30 4036 C 379.973 -0.156137 1.93571 0
M  V30 4037 O 379.248 -1.10222 1.60254 0
M  V30 4038 C 379.531 2.16639 2.87645 0
M  V30 4039 C 379.384 3.68088 2.58517 0
M  V30 4040 C 380.703 2.05378 3.8924 0
M  V30 4041 H 377.822 0.463714 0.572833 0
M  V30 4042 H 380.464 1.64859 0.944539 0
M  V30 4043 H 378.614 1.84725 3.41773 0
M  V30 4044 H 380.286 4.10382 2.10676 0
M  V30 4045 H 378.529 3.89038 1.91917 0
M  V30 4046 H 379.2 4.2598 3.51063 0
M  V30 4047 H 381.676 2.33404 3.44473 0
M  V30 4048 H 380.552 2.7012 4.77835 0
M  V30 4049 H 380.813 1.0316 4.29896 0
M  V30 4050 N 379.872 -1.04064 1.18357 0
M  V30 4051 C 380.819 -2.12077 0.910603 0
M  V30 4052 C 381.789 -1.65421 -0.15 0
M  V30 4053 O 382.974 -1.90797 -0.0103614 0
M  V30 4054 C 380.114 -3.42252 0.442472 0
M  V30 4055 C 379.227 -4.0252 1.5685 0
M  V30 4056 C 378.362 -5.20657 1.05309 0
M  V30 4057 C 377.401 -5.72955 2.1538 0
M  V30 4058 N 376.538 -6.8238 1.65233 0
M  V30 4059 H 381.378 -2.34764 1.83548 0
M  V30 4060 H 378.915 -1.15157 0.915279 0
M  V30 4061 H 380.873 -4.16921 0.152534 0
M  V30 4062 H 379.503 -3.19712 -0.445428 0
M  V30 4063 H 378.555 -3.25178 1.97391 0
M  V30 4064 H 379.867 -4.37362 2.39824 0
M  V30 4065 H 379.021 -6.0244 0.717677 0
M  V30 4066 H 377.76 -4.87318 0.19293 0
M  V30 4067 H 376.765 -4.89793 2.49766 0
M  V30 4068 H 377.99 -6.08337 3.01832 0
M  V30 4069 H 375.936 -6.50917 0.815064 0
M  V30 4070 H 375.853 -7.16286 2.41805 0
M  V30 4071 H 377.121 -7.67788 1.34619 0
M  V30 4072 N 381.35 -0.985608 -1.22978 0
M  V30 4073 C 382.599 -0.652881 -1.90841 0
M  V30 4074 C 382.912 0.817842 -1.77681 0
M  V30 4075 O 384.118 1.26185 -2.40395 0
M  V30 4076 C 382.574 -1.11717 -3.42122 0
M  V30 4077 C 382.182 -2.6126 -3.63933 0
M  V30 4078 C 383.926 -0.85843 -4.1573 0
M  V30 4079 C 381.833 -3.0133 -5.08876 0
M  V30 4080 H 380.763 -0.240491 -0.714619 0
M  V30 4081 H 383.414 -1.1942 -1.39324 0
M  V30 4082 H 381.796 -0.504027 -3.92779 0
M  V30 4083 H 382.97 -3.27858 -3.23799 0
M  V30 4084 H 381.285 -2.84937 -3.03644 0
M  V30 4085 H 383.882 -1.13359 -5.22546 0
M  V30 4086 H 384.225 0.205461 -4.15793 0
M  V30 4087 H 384.758 -1.43341 -3.71077 0
M  V30 4088 H 381.497 -4.06864 -5.13947 0
M  V30 4089 H 381.017 -2.3943 -5.49939 0
M  V30 4090 H 382.696 -2.92224 -5.77247 0
M  V30 4091 N 382.828 1.3818 -0.7579 0
M  V30 4092 C 383.776 2.32277 -0.122482 0
M  V30 4093 C 384.77 1.54238 0.700505 0
M  V30 4094 O 385.976 1.69737 0.599119 0
M  V30 4095 H 382.351 0.751712 -0.0208143 0
M  V30 4096 H 384.322 2.83469 -0.932099 0
M  V30 4097 C 383.071 3.39447 0.753076 0
M  V30 4098 H 382.394 3.99591 0.129184 0
M  V30 4099 H 383.834 4.07684 1.16489 0
M  V30 4100 C 382.293 2.78375 1.8976 0
M  V30 4101 O 382.823 2.68025 2.99208 0
M  V30 4102 N 381.029 2.36121 1.69397 0
M  V30 4103 H 380.576 2.4474 0.803762 0
M  V30 4104 H 380.534 1.95602 2.46145 0
M  V30 4105 N 384.306 0.507319 1.49211 0
M  V30 4106 C 385.236 -0.256939 2.32082 0
M  V30 4107 C 386.217 -0.956609 1.40652 0
M  V30 4108 O 387.402 -0.946788 1.69557 0
M  V30 4109 C 384.532 -1.31802 3.21318 0
M  V30 4110 C 383.486 -0.737855 4.21592 0
M  V30 4111 C 382.812 -1.89992 4.99807 0
M  V30 4112 C 384.112 0.275325 5.21574 0
M  V30 4113 H 385.806 0.434798 2.96226 0
M  V30 4114 H 383.352 0.210546 1.42452 0
M  V30 4115 H 385.305 -1.86045 3.78107 0
M  V30 4116 H 384.029 -2.03903 2.5513 0
M  V30 4117 H 382.688 -0.217126 3.65956 0
M  V30 4118 H 382.336 -2.60877 4.30061 0
M  V30 4119 H 382.036 -1.51777 5.6766 0
M  V30 4120 H 383.56 -2.44657 5.59442 0
M  V30 4121 H 384.974 -0.179193 5.7302 0
M  V30 4122 H 383.371 0.573649 5.97352 0
M  V30 4123 H 384.441 1.18903 4.70096 0
M  V30 4124 N 385.784 -1.5574 0.241426 0
M  V30 4125 C 387.031 -1.9881 -0.384836 0
M  V30 4126 C 387.359 -1.12947 -1.58346 0
M  V30 4127 O 386.614 -0.178993 -1.9488 0
M  V30 4128 C 386.913 -3.47308 -0.843317 0
M  V30 4129 C 386.579 -4.50223 0.246946 0
M  V30 4130 C 385.241 -4.78088 0.546399 0
M  V30 4131 C 387.593 -5.11841 0.983282 0
M  V30 4132 C 384.921 -5.64846 1.58636 0
M  V30 4133 C 387.273 -5.99727 2.01272 0
M  V30 4134 C 385.937 -6.25927 2.31888 0
M  V30 4135 H 385.207 -0.727496 -0.140821 0
M  V30 4136 H 387.854 -1.8831 0.348106 0
M  V30 4137 H 386.159 -3.55112 -1.65537 0
M  V30 4138 H 387.856 -3.78017 -1.33806 0
M  V30 4139 H 384.446 -4.286 0.00340639 0
M  V30 4140 H 388.63 -4.90366 0.765182 0
M  V30 4141 H 383.886 -5.83403 1.82896 0
M  V30 4142 H 388.06 -6.46517 2.58823 0
M  V30 4143 H 385.687 -6.92949 3.12611 0
M  V30 4144 N 387.262 0.0317525 -1.57568 0
M  V30 4145 C 388.209 1.0332 -2.06382 0
M  V30 4146 C 389.179 1.36082 -0.952414 0
M  V30 4147 O 390.364 1.46466 -1.2228 0
M  V30 4148 C 387.504 2.32989 -2.54578 0
M  V30 4149 C 386.617 2.0641 -3.79498 0
M  V30 4150 C 385.752 3.2993 -4.16317 0
M  V30 4151 C 384.791 2.98893 -5.34162 0
M  V30 4152 N 383.928 4.14857 -5.66426 0
M  V30 4153 H 388.768 0.609982 -2.9169 0
M  V30 4154 H 386.305 0.289573 -1.44222 0
M  V30 4155 H 388.263 3.0875 -2.80587 0
M  V30 4156 H 386.893 2.73039 -1.7219 0
M  V30 4157 H 385.945 1.21158 -3.6059 0
M  V30 4158 H 387.257 1.79513 -4.65378 0
M  V30 4159 H 386.411 4.1406 -4.4344 0
M  V30 4160 H 385.15 3.59938 -3.29083 0
M  V30 4161 H 384.155 2.13164 -5.06795 0
M  V30 4162 H 385.38 2.70165 -6.23047 0
M  V30 4163 H 383.326 4.44821 -4.82151 0
M  V30 4164 H 383.243 3.91374 -6.4681 0
M  V30 4165 H 384.511 4.99868 -5.98124 0
M  V30 4166 N 388.74 1.54641 0.303973 0
M  V30 4167 C 389.987 1.7378 1.03955 0
M  V30 4168 C 390.315 0.521986 1.87365 0
M  V30 4169 O 389.57 -0.496099 1.89308 0
M  V30 4170 C 389.869 2.97753 1.97681 0
M  V30 4171 C 389.535 4.31671 1.30271 0
M  V30 4172 C 388.197 4.68075 1.11619 0
M  V30 4173 C 390.549 5.147 0.82055 0
M  V30 4174 C 387.877 5.8509 0.434304 0
M  V30 4175 C 390.229 6.32416 0.152395 0
M  V30 4176 C 388.893 6.67484 -0.0461067 0
M  V30 4177 H 388.163 0.635908 0.380398 0
M  V30 4178 H 390.81 1.88896 0.314718 0
M  V30 4179 H 389.115 2.77406 2.76682 0
M  V30 4180 H 390.812 3.09756 2.54661 0
M  V30 4181 H 387.402 4.03041 1.45795 0
M  V30 4182 H 391.586 4.87077 0.952374 0
M  V30 4183 H 386.842 6.10806 0.269495 0
M  V30 4184 H 391.016 6.96023 -0.229126 0
M  V30 4185 H 388.643 7.58011 -0.576494 0
M  V30 4186 N 390.218 -0.567019 1.47046 0
M  V30 4187 C 391.148 -1.68482 1.61667 0
M  V30 4188 C 392.129 -1.6358 0.466418 0
M  V30 4189 O 393.314 -1.81354 0.694574 0
M  V30 4190 C 390.444 -3.07124 1.62148 0
M  V30 4191 C 389.398 -3.26867 2.76301 0
M  V30 4192 C 388.724 -4.66196 2.61849 0
M  V30 4193 C 390.024 -3.13186 4.17986 0
M  V30 4194 H 391.718 -1.56502 2.5524 0
M  V30 4195 H 389.264 -0.751486 1.22836 0
M  V30 4196 H 391.217 -3.8516 1.70968 0
M  V30 4197 H 389.941 -3.2004 0.651287 0
M  V30 4198 H 388.6 -2.51237 2.66975 0
M  V30 4199 H 388.248 -4.75898 1.62879 0
M  V30 4200 H 387.948 -4.80356 3.38425 0
M  V30 4201 H 389.472 -5.46379 2.72584 0
M  V30 4202 H 390.886 -3.81049 4.2834 0
M  V30 4203 H 389.283 -3.3886 4.95272 0
M  V30 4204 H 390.353 -2.10057 4.3704 0
M  V30 4205 N 391.696 -1.35014 -0.812953 0
M  V30 4206 C 392.921 -1.31187 -1.60639 0
M  V30 4207 C 393.346 0.109382 -1.87782 0
M  V30 4208 O 392.704 1.07424 -1.46047 0
M  V30 4209 C 392.752 -2.11809 -2.91838 0
M  V30 4210 O 391.856 -1.49444 -3.8437 0
M  V30 4211 H 391.197 -0.450084 -0.488181 0
M  V30 4212 H 393.727 -1.77963 -1.00947 0
M  V30 4213 H 393.737 -2.23531 -3.41318 0
M  V30 4214 H 392.412 -3.15137 -2.71407 0
M  V30 4215 H 390.989 -1.46524 -3.42907 0
M  V30 4216 N 393.175 1.03435 -1.18907 0
M  V30 4217 C 394.4 1.80919 -1.01406 0
M  V30 4218 C 394.825 1.83055 0.432721 0
M  V30 4219 O 394.183 1.25252 1.31079 0
M  V30 4220 C 394.231 3.24091 -1.58105 0
M  V30 4221 O 393.335 4.04434 -0.806669 0
M  V30 4222 H 392.676 0.558709 -0.358803 0
M  V30 4223 H 395.206 1.30223 -1.57807 0
M  V30 4224 H 395.216 3.74853 -1.61087 0
M  V30 4225 H 393.891 3.21851 -2.6341 0
M  V30 4226 H 392.468 3.63091 -0.849666 0
M  V30 4227 N 394.653 0.992116 1.22453 0
M  V30 4228 C 395.899 0.678177 1.91761 0
M  V30 4229 C 396.254 -0.781141 1.75829 0
M  V30 4230 O 395.547 -1.55747 1.11595 0
M  V30 4231 C 395.741 1.01832 3.42586 0
M  V30 4232 C 395.57 2.50916 3.73191 0
M  V30 4233 C 394.34 3.17308 3.93248 0
M  V30 4234 C 396.538 3.49032 3.77732 0
M  V30 4235 N 394.52 4.55876 4.11157 0
M  V30 4236 C 395.891 4.73055 4.00773 0
M  V30 4237 C 397.946 3.43349 3.60577 0
M  V30 4238 C 396.649 5.92089 4.0844 0
M  V30 4239 C 398.675 4.61759 3.69503 0
M  V30 4240 C 398.037 5.84582 3.92993 0
M  V30 4241 H 394.136 0.299425 0.722405 0
M  V30 4242 H 396.72 1.27197 1.47408 0
M  V30 4243 H 394.891 0.453118 3.85748 0
M  V30 4244 H 396.623 0.660454 3.99274 0
M  V30 4245 H 393.378 2.67778 3.9063 0
M  V30 4246 H 393.802 5.27748 4.24042 0
M  V30 4247 H 398.444 2.49408 3.41402 0
M  V30 4248 H 396.162 6.86435 4.26418 0
M  V30 4249 H 399.748 4.58951 3.57569 0
M  V30 4250 H 398.628 6.74676 3.99728 0
M  V30 4251 N 396.131 -1.37776 0.765217 0
M  V30 4252 C 397.356 -2.04651 0.336537 0
M  V30 4253 C 397.781 -1.57337 -1.03086 0
M  V30 4254 O 397.139 -0.730621 -1.65927 0
M  V30 4255 C 397.187 -3.58577 0.381468 0
M  V30 4256 O 396.291 -4.07706 -0.62042 0
M  V30 4257 H 395.632 -0.64756 0.146838 0
M  V30 4258 H 398.162 -1.76221 1.03959 0
M  V30 4259 H 398.172 -4.07314 0.236448 0
M  V30 4260 H 396.847 -3.9237 1.37907 0
M  V30 4261 H 395.424 -3.70306 -0.439056 0
M  V30 4262 N 397.609 -0.515225 -1.4894 0
M  V30 4263 C 398.539 0.244628 -2.32215 0
M  V30 4264 C 399.52 0.949136 -1.41157 0
M  V30 4265 O 400.705 0.937783 -1.70057 0
M  V30 4266 C 397.835 1.30096 -3.22013 0
M  V30 4267 C 396.789 0.715486 -4.21977 0
M  V30 4268 C 396.115 1.87339 -5.00808 0
M  V30 4269 C 397.415 -0.302982 -5.2142 0
M  V30 4270 H 399.109 -0.450501 -2.95991 0
M  V30 4271 H 396.655 -0.218098 -1.42339 0
M  V30 4272 H 398.608 1.84037 -3.79089 0
M  V30 4273 H 397.332 2.02547 -2.56207 0
M  V30 4274 H 395.991 0.197715 -3.66066 0
M  V30 4275 H 395.639 2.58592 -4.31438 0
M  V30 4276 H 395.339 1.48764 -5.68457 0
M  V30 4277 H 396.863 2.41686 -5.60732 0
M  V30 4278 H 398.277 0.148802 -5.73107 0
M  V30 4279 H 396.674 -0.60532 -5.97039 0
M  V30 4280 H 397.744 -1.21395 -4.69459 0
M  V30 4281 N 399.087 1.5561 -0.249682 0
M  V30 4282 C 400.333 2.00044 0.367952 0
M  V30 4283 C 400.688 1.1349 1.55363 0
M  V30 4284 O 399.981 0.191079 1.90645 0
M  V30 4285 C 400.175 3.4775 0.824887 0
M  V30 4286 C 400.004 4.48596 -0.314973 0
M  V30 4287 C 398.774 4.99077 -0.790555 0
M  V30 4288 C 400.972 5.0144 -1.14291 0
M  V30 4289 N 398.954 5.83675 -1.90254 0
M  V30 4290 C 400.325 5.83236 -2.10322 0
M  V30 4291 C 402.38 4.83736 -1.17916 0
M  V30 4292 C 401.083 6.49217 -3.09692 0
M  V30 4293 C 403.109 5.50497 -2.16117 0
M  V30 4294 C 402.471 6.32084 -3.10884 0
M  V30 4295 H 398.57 0.775512 0.100522 0
M  V30 4296 H 401.154 1.91193 -0.367896 0
M  V30 4297 H 399.325 3.56994 1.53002 0
M  V30 4298 H 401.057 3.79056 1.4177 0
M  V30 4299 H 397.812 4.72119 -0.374218 0
M  V30 4300 H 398.236 6.30671 -2.46137 0
M  V30 4301 H 402.878 4.20286 -0.460352 0
M  V30 4302 H 400.596 7.11832 -3.8252 0
M  V30 4303 H 404.182 5.38752 -2.19631 0
M  V30 4304 H 403.062 6.82832 -3.8563 0
M  V30 4305 N 400.565 -0.0233959 1.57583 0
M  V30 4306 C 401.813 -0.711654 1.89156 0
M  V30 4307 C 402.134 -1.75591 0.848096 0
M  V30 4308 O 401.404 -1.95547 -0.117566 0
M  V30 4309 H 399.984 -0.265835 0.698098 0
M  V30 4310 H 402.646 0.0119948 1.94896 0
M  V30 4311 H 401.742 -1.19766 2.88206 0
M  V30 4312 N 402.043 -1.548 -0.295768 0
M  V30 4313 C 403.006 -1.85363 -1.34808 0
M  V30 4314 C 404.006 -0.726817 -1.43436 0
M  V30 4315 O 405.196 -0.995088 -1.42981 0
M  V30 4316 C 402.328 -2.03859 -2.73229 0
M  V30 4317 H 403.521 -2.7941 -1.08949 0
M  V30 4318 H 401.074 -1.46942 -0.532702 0
M  V30 4319 H 401.809 -1.12117 -3.04303 0
M  V30 4320 H 401.594 -2.8588 -2.68356 0
M  V30 4321 H 403.084 -2.28857 -3.49305 0
M  V30 4322 N 403.521 0.559213 -1.47345 0
M  V30 4323 C 404.469 1.68747 -1.60085 0
M  V30 4324 C 405.463 1.628 -0.46825 0
M  V30 4325 O 406.669 1.68009 -0.645977 0
M  V30 4326 H 403.044 0.558329 -0.503759 0
M  V30 4327 H 405.015 1.55138 -2.54902 0
M  V30 4328 C 403.764 3.07103 -1.63042 0
M  V30 4329 H 403.087 3.12361 -2.49541 0
M  V30 4330 H 404.527 3.85743 -1.76006 0
M  V30 4331 C 402.986 3.34935 -0.363357 0
M  V30 4332 O 403.516 3.98102 0.536416 0
M  V30 4333 N 401.722 2.89574 -0.244 0
M  V30 4334 H 401.269 2.38348 -0.977133 0
M  V30 4335 H 401.227 3.08566 0.602836 0
M  V30 4336 N 404.999 1.35443 0.805782 0
M  V30 4337 C 406.229 1.31687 1.59192 0
M  V30 4338 C 406.637 -0.10756 1.88894 0
M  V30 4339 O 405.98 -1.07017 1.49309 0
M  V30 4340 C 406.042 2.05686 2.94845 0
M  V30 4341 C 405.706 3.54868 2.87954 0
M  V30 4342 C 406.703 4.49444 2.61335 0
M  V30 4343 C 404.388 3.97528 3.07046 0
M  V30 4344 C 406.382 5.84655 2.53885 0
M  V30 4345 C 404.069 5.32833 2.99219 0
M  V30 4346 C 405.067 6.26209 2.72674 0
M  V30 4347 O 404.755 7.59032 2.64811 0
M  V30 4348 H 404.487 0.453878 0.50097 0
M  V30 4349 H 407.041 1.78892 1.0093 0
M  V30 4350 H 405.271 1.5312 3.55093 0
M  V30 4351 H 406.96 1.94998 3.55993 0
M  V30 4352 H 407.726 4.17804 2.46303 0
M  V30 4353 H 403.605 3.25233 3.26718 0
M  V30 4354 H 407.149 6.57508 2.33086 0
M  V30 4355 H 403.046 5.64087 3.13809 0
M  V30 4356 H 403.814 7.68967 2.80413 0
M  V30 4357 N 406.477 -1.02803 1.19454 0
M  V30 4358 C 407.41 -2.107 0.876396 0
M  V30 4359 C 408.388 -1.61741 -0.166897 0
M  V30 4360 O 409.572 -1.88451 -0.0430195 0
M  V30 4361 C 406.699 -3.37262 0.311758 0
M  V30 4362 C 405.745 -4.05093 1.33424 0
M  V30 4363 S 406.578 -4.50498 2.89503 0
M  V30 4364 C 407.734 -5.80277 2.34584 0
M  V30 4365 H 407.967 -2.37362 1.79016 0
M  V30 4366 H 405.5 -1.15755 1.02177 0
M  V30 4367 H 407.458 -4.10499 -0.00748752 0
M  V30 4368 H 406.119 -3.08693 -0.58032 0
M  V30 4369 H 405.312 -4.9611 0.888302 0
M  V30 4370 H 404.914 -3.3803 1.60037 0
M  V30 4371 H 407.206 -6.54873 1.73633 0
M  V30 4372 H 408.149 -6.29651 3.23952 0
M  V30 4373 H 408.557 -5.3599 1.77131 0
M  V30 4374 N 407.956 -0.998596 -1.21925 0
M  V30 4375 C 409.233 -0.593401 -1.86382 0
M  V30 4376 C 409.613 0.92916 -1.89552 0
M  V30 4377 O 408.961 1.81347 -1.39017 0
M  V30 4378 C 409.171 -1.22039 -3.26967 0
M  V30 4379 C 410.519 -1.32449 -4.03413 0
M  V30 4380 O 411.543 -1.17522 -3.36254 0
M  V30 4381 O 410.402 -1.56395 -5.23644 0
M  V30 4382 H 407.496 -0.202385 -0.801854 0
M  V30 4383 H 410.042 -1.09484 -1.29659 0
M  V30 4384 H 408.814 -2.26158 -3.19325 0
M  V30 4385 H 408.437 -0.704906 -3.91301 0
M  V30 4386 N 409.434 1.37368 -0.772513 0
M  V30 4387 C 410.674 2.01512 -0.342361 0
M  V30 4388 C 411.038 1.59997 1.06136 0
M  V30 4389 O 412.239 2.16609 1.59167 0
M  V30 4390 C 410.51 3.54134 -0.482048 0
M  V30 4391 S 412.069 4.38585 -0.137272 0
M  V30 4392 H 408.887 0.698699 -0.131686 0
M  V30 4393 H 411.489 1.67552 -1.0073 0
M  V30 4394 H 410.193 3.81837 -1.50428 0
M  V30 4395 H 409.724 3.92894 0.199413 0
M  V30 4396 H 411.739 4.84594 1.06692 0
M  V30 4397 N 410.912 0.523116 1.48665 0
M  V30 4398 C 412.159 -0.0134763 2.02496 0
M  V30 4399 C 412.487 -1.3493 1.40086 0
M  V30 4400 O 411.742 -1.88286 0.533567 0
M  V30 4401 C 412.041 -0.191671 3.56886 0
M  V30 4402 C 411.707 1.06893 4.38046 0
M  V30 4403 C 410.369 1.41443 4.59943 0
M  V30 4404 C 412.721 1.90584 4.85106 0
M  V30 4405 C 410.049 2.59594 5.26144 0
M  V30 4406 C 412.401 3.07907 5.52609 0
M  V30 4407 C 411.065 3.42811 5.72745 0
M  V30 4408 H 410.335 -0.00493133 0.740984 0
M  V30 4409 H 412.982 0.687751 1.78724 0
M  V30 4410 H 411.287 -0.97561 3.79459 0
M  V30 4411 H 412.984 -0.621659 3.96152 0
M  V30 4412 H 409.574 0.789848 4.21259 0
M  V30 4413 H 413.758 1.65203 4.67997 0
M  V30 4414 H 409.014 2.86847 5.39934 0
M  V30 4415 H 413.188 3.73066 5.88043 0
M  V30 4416 H 410.815 4.34462 6.23816 0
M  V30 4417 N 412.39 -1.55475 0.257931 0
M  V30 4418 C 413.3 -2.2549 -0.647425 0
M  V30 4419 C 414.316 -1.2748 -1.18427 0
M  V30 4420 O 415.492 -1.6038 -1.2182 0
M  V30 4421 C 412.557 -2.94916 -1.82278 0
M  V30 4422 C 411.618 -4.08363 -1.32432 0
M  V30 4423 C 410.851 -4.74469 -2.44366 0
M  V30 4424 O 411.074 -4.39701 -3.63344 0
M  V30 4425 O 410.008 -5.62763 -2.13497 0
M  V30 4426 H 413.834 -3.03593 -0.0807707 0
M  V30 4427 H 411.419 -1.49377 0.0259962 0
M  V30 4428 H 413.301 -3.38606 -2.50846 0
M  V30 4429 H 411.976 -2.19744 -2.37685 0
M  V30 4430 H 410.883 -3.69166 -0.605605 0
M  V30 4431 H 412.216 -4.85385 -0.816211 0
M  V30 4432 N 413.868 0.0150385 -1.57593 0
M  V30 4433 C 415.093 0.718067 -1.94573 0
M  V30 4434 C 415.518 1.6734 -0.859005 0
M  V30 4435 O 414.876 1.80362 0.184147 0
M  V30 4436 C 414.924 1.43918 -3.30636 0
M  V30 4437 O 414.028 2.55299 -3.23876 0
M  V30 4438 H 413.369 0.192125 -0.635597 0
M  V30 4439 H 415.899 -0.0336708 -2.04572 0
M  V30 4440 H 415.909 1.80598 -3.65853 0
M  V30 4441 H 414.584 0.738619 -4.09289 0
M  V30 4442 H 413.161 2.21058 -3.00312 0
M  V30 4443 N 415.346 1.54954 0.287554 0
M  V30 4444 C 416.294 1.87606 1.37502 0
M  V30 4445 C 417.288 0.751001 1.51843 0
M  V30 4446 O 418.494 0.935169 1.53801 0
M  V30 4447 H 414.869 0.595231 0.459569 0
M  V30 4448 H 416.84 2.78477 1.07206 0
M  V30 4449 C 415.589 2.15183 2.73115 0
M  V30 4450 H 414.912 3.01234 2.62866 0
M  V30 4451 H 416.352 2.4196 3.48183 0
M  V30 4452 C 414.811 0.954686 3.2309 0
M  V30 4453 O 415.341 0.181949 4.01288 0
M  V30 4454 N 413.547 0.756368 2.80584 0
M  V30 4455 H 413.094 1.38643 2.17108 0
M  V30 4456 H 413.052 -0.0430391 3.14371 0
M  V30 4457 N 416.824 -0.551391 1.4764 0
M  V30 4458 C 417.734 -1.68525 1.63207 0
M  V30 4459 C 418.75 -1.6621 0.514815 0
M  V30 4460 O 419.926 -1.85551 0.783113 0
M  V30 4461 C 416.991 -3.05025 1.64805 0
M  V30 4462 C 416.052 -3.18362 2.88 0
M  V30 4463 C 415.285 -4.4835 2.89513 0
M  V30 4464 O 415.508 -5.34163 2.00065 0
M  V30 4465 O 414.442 -4.65602 3.81443 0
M  V30 4466 H 418.268 -1.58333 2.59161 0
M  V30 4467 H 415.853 -0.722063 1.30792 0
M  V30 4468 H 417.735 -3.86245 1.68502 0
M  V30 4469 H 416.41 -3.15587 0.720197 0
M  V30 4470 H 415.317 -2.36518 2.89845 0
M  V30 4471 H 416.65 -3.12707 3.80099 0
M  V30 4472 N 418.302 -1.35869 -0.798587 0
M  V30 4473 C 419.53 -1.32722 -1.58722 0
M  V30 4474 C 419.945 0.0935631 -1.88568 0
M  V30 4475 O 419.302 1.04784 -1.49421 0
M  V30 4476 C 419.353 -2.13974 -2.91371 0
M  V30 4477 O 419.074 -3.50514 -2.62815 0
M  V30 4478 C 420.575 -2.18504 -3.85708 0
M  V30 4479 H 417.795 -0.45562 -0.492596 0
M  V30 4480 H 420.339 -1.78837 -0.991843 0
M  V30 4481 H 418.494 -1.71438 -3.47402 0
M  V30 4482 H 418.908 -3.92806 -3.47568 0
M  V30 4483 H 420.382 -2.79732 -4.75872 0
M  V30 4484 H 420.859 -1.18597 -4.22885 0
M  V30 4485 H 421.465 -2.61236 -3.35612 0
M  V30 4486 N 419.78 1.02168 -1.19998 0
M  V30 4487 C 420.713 2.10232 -0.887558 0
M  V30 4488 C 421.691 1.61827 0.158317 0
M  V30 4489 O 422.875 1.88471 0.0330249 0
M  V30 4490 C 420.002 3.37092 -0.32964 0
M  V30 4491 C 419.048 4.0438 -1.3557 0
M  V30 4492 S 419.881 4.48956 -2.91888 0
M  V30 4493 C 421.037 5.79024 -2.37658 0
M  V30 4494 H 421.27 2.36409 -1.80272 0
M  V30 4495 H 418.803 1.15211 -1.0279 0
M  V30 4496 H 420.761 4.10498 -0.0142824 0
M  V30 4497 H 419.422 3.08996 0.563941 0
M  V30 4498 H 418.615 4.95632 -0.9146 0
M  V30 4499 H 418.217 3.37176 -1.61828 0
M  V30 4500 H 420.509 6.53942 -1.77103 0
M  V30 4501 H 421.452 6.27924 -3.27287 0
M  V30 4502 H 421.86 5.35043 -1.79971 0
M  V30 4503 N 421.258 1.00505 1.21394 0
M  V30 4504 C 422.506 0.686415 1.90086 0
M  V30 4505 C 422.827 -0.785264 1.7849 0
M  V30 4506 O 422.097 -1.56387 1.17983 0
M  V30 4507 H 420.677 0.2509 0.703604 0
M  V30 4508 H 423.339 1.27417 1.47482 0
M  V30 4509 H 422.435 0.959621 2.96981 0
M  V30 4510 N 422.737 -1.36956 0.779787 0
M  V30 4511 C 423.983 -1.99787 0.348281 0
M  V30 4512 C 424.316 -1.61756 -1.07465 0
M  V30 4513 O 423.591 -0.867639 -1.74075 0
M  V30 4514 C 423.874 -3.56597 0.50104 0
M  V30 4515 C 423.727 -4.04513 1.96697 0
M  V30 4516 C 425.046 -4.40008 -0.0898097 0
M  V30 4517 H 422.165 -0.725796 0.128022 0
M  V30 4518 H 424.807 -1.62514 0.984331 0
M  V30 4519 H 422.957 -3.88479 -0.0404347 0
M  V30 4520 H 424.629 -3.83161 2.56876 0
M  V30 4521 H 422.872 -3.56408 2.47297 0
M  V30 4522 H 423.543 -5.1352 2.02486 0
M  V30 4523 H 426.019 -4.14431 0.372293 0
M  V30 4524 H 424.895 -5.4888 0.0471605 0
M  V30 4525 H 425.156 -4.26035 -1.18096 0
M  V30 4526 N 424.215 -0.530993 -1.48385 0
M  V30 4527 C 425.461 -0.00538653 -2.03399 0
M  V30 4528 C 425.816 1.31899 -1.40073 0
M  V30 4529 O 425.109 1.83901 -0.537676 0
M  V30 4530 C 425.303 0.172742 -3.56982 0
M  V30 4531 C 425.132 -1.13282 -4.35198 0
M  V30 4532 C 423.902 -1.69296 -4.76096 0
M  V30 4533 C 426.1 -2.04367 -4.71952 0
M  V30 4534 N 424.082 -2.9413 -5.38851 0
M  V30 4535 C 425.453 -3.13777 -5.34737 0
M  V30 4536 C 427.508 -2.04681 -4.53883 0
M  V30 4537 C 426.211 -4.23567 -5.81363 0
M  V30 4538 C 428.237 -3.13466 -5.01491 0
M  V30 4539 C 427.599 -4.21595 -5.64302 0
M  V30 4540 H 423.698 -0.0434945 -0.780789 0
M  V30 4541 H 426.282 -0.712495 -1.81195 0
M  V30 4542 H 424.453 0.848937 -3.79009 0
M  V30 4543 H 426.185 0.698046 -3.98634 0
M  V30 4544 H 422.94 -1.23422 -4.57235 0
M  V30 4545 H 423.364 -3.57689 -5.74794 0
M  V30 4546 H 428.006 -1.22378 -4.04702 0
M  V30 4547 H 425.724 -5.06648 -6.2955 0
M  V30 4548 H 429.31 -3.14765 -4.893 0
M  V30 4549 H 428.19 -5.04384 -6.00472 0
M  V30 4550 N 425.693 1.55336 -0.266172 0
M  V30 4551 C 426.623 2.25146 0.618981 0
M  V30 4552 C 427.604 1.23845 1.16604 0
M  V30 4553 O 428.789 1.52544 1.20183 0
M  V30 4554 C 425.919 2.96572 1.80728 0
M  V30 4555 C 424.873 4.04726 1.39215 0
M  V30 4556 C 424.199 4.63678 2.66283 0
M  V30 4557 C 425.499 5.19407 0.548942 0
M  V30 4558 H 427.193 2.99377 0.0368116 0
M  V30 4559 H 424.739 1.43991 0.0162651 0
M  V30 4560 H 426.692 3.44116 2.43232 0
M  V30 4561 H 425.416 2.19861 2.41514 0
M  V30 4562 H 424.075 3.57979 0.790351 0
M  V30 4563 H 423.723 3.83646 3.25308 0
M  V30 4564 H 423.423 5.367 2.39222 0
M  V30 4565 H 424.947 5.13967 3.29651 0
M  V30 4566 H 426.361 5.63059 1.07876 0
M  V30 4567 H 424.758 5.98936 0.373593 0
M  V30 4568 H 425.828 4.8295 -0.434394 0
M  V30 4569 N 427.171 -0.0066808 1.57599 0
M  V30 4570 C 428.121 -1.0086 2.04478 0
M  V30 4571 C 429.105 -1.30714 0.938231 0
M  V30 4572 O 430.297 -1.29924 1.20203 0
M  V30 4573 C 427.426 -2.30273 2.54615 0
M  V30 4574 C 426.512 -2.03413 3.72134 0
M  V30 4575 N 426.903 -1.46688 4.84062 0
M  V30 4576 C 425.201 -2.33589 3.79937 0
M  V30 4577 C 425.902 -1.36146 5.65543 0
M  V30 4578 N 424.878 -1.84477 5.1134 0
M  V30 4579 H 428.68 -0.564402 2.8843 0
M  V30 4580 H 426.194 -0.212521 1.61003 0
M  V30 4581 H 428.191 -3.02885 2.86472 0
M  V30 4582 H 426.851 -2.75352 1.72079 0
M  V30 4583 H 427.862 -1.14658 5.05049 0
M  V30 4584 H 424.539 -2.81589 3.08243 0
M  V30 4585 H 425.929 -0.925873 6.6549 0
M  V30 4586 N 428.649 -1.55105 -0.279332 0
M  V30 4587 C 429.898 -1.74618 -1.00952 0
M  V30 4588 C 430.211 -0.551096 -1.87676 0
M  V30 4589 O 431.417 -0.628507 -2.64125 0
M  V30 4590 C 429.873 -3.09025 -1.84476 0
M  V30 4591 C 429.481 -4.36081 -1.0265 0
M  V30 4592 C 431.225 -3.37891 -2.56963 0
M  V30 4593 C 429.132 -5.6153 -1.85576 0
M  V30 4594 H 428.062 -0.650868 -0.38064 0
M  V30 4595 H 430.713 -1.81569 -0.265475 0
M  V30 4596 H 429.095 -2.96095 -2.62952 0
M  V30 4597 H 430.269 -4.59909 -0.286354 0
M  V30 4598 H 428.584 -4.14312 -0.416464 0
M  V30 4599 H 431.181 -4.28822 -3.19399 0
M  V30 4600 H 431.524 -2.57737 -3.26921 0
M  V30 4601 H 432.057 -3.5189 -1.85522 0
M  V30 4602 H 428.796 -6.44413 -1.2005 0
M  V30 4603 H 428.316 -5.41854 -2.57204 0
M  V30 4604 H 429.995 -5.99594 -2.43096 0
M  V30 4605 N 430.127 0.543554 -1.4793 0
M  V30 4606 C 431.09 1.63156 -1.60975 0
M  V30 4607 C 432.09 1.53346 -0.483899 0
M  V30 4608 O 433.28 1.5726 -0.749339 0
M  V30 4609 C 430.412 3.02743 -1.56716 0
M  V30 4610 H 431.605 1.52934 -2.57975 0
M  V30 4611 H 429.158 0.764557 -1.36324 0
M  V30 4612 H 429.893 3.18484 -0.611418 0
M  V30 4613 H 429.678 3.11272 -2.38438 0
M  V30 4614 H 431.168 3.81871 -1.6901 0
M  V30 4615 N 431.605 1.3629 0.791371 0
M  V30 4616 C 432.882 1.20962 1.53712 0
M  V30 4617 C 433.262 -0.205021 2.10102 0
M  V30 4618 O 432.61 -1.21042 1.93807 0
M  V30 4619 C 432.82 2.29002 2.63361 0
M  V30 4620 C 434.168 2.65572 3.31295 0
M  V30 4621 O 435.192 2.2803 2.73643 0
M  V30 4622 O 434.051 3.3018 4.35481 0
M  V30 4623 H 431.145 0.47086 0.679867 0
M  V30 4624 H 433.691 1.48016 0.830021 0
M  V30 4625 H 432.463 3.2382 2.19674 0
M  V30 4626 H 432.086 2.03303 3.41692 0
M  V30 4627 N 433.083 -1.0153 1.20538 0
M  V30 4628 C 434.03 -2.10098 0.955383 0
M  V30 4629 C 435 -1.65702 -0.114878 0
M  V30 4630 O 436.185 -1.90776 0.0301118 0
M  V30 4631 C 433.325 -3.41236 0.514969 0
M  V30 4632 C 432.438 -3.99102 1.65353 0
M  V30 4633 C 431.573 -5.18306 1.16329 0
M  V30 4634 C 430.612 -5.68258 2.27485 0
M  V30 4635 N 429.749 -6.78722 1.7967 0
M  V30 4636 H 434.589 -2.30818 1.88486 0
M  V30 4637 H 432.126 -1.13189 0.939499 0
M  V30 4638 H 434.084 -4.16504 0.240935 0
M  V30 4639 H 432.714 -3.20585 -0.377512 0
M  V30 4640 H 431.766 -3.20918 2.04245 0
M  V30 4641 H 433.078 -4.32177 2.49047 0
M  V30 4642 H 432.232 -6.00782 0.845302 0
M  V30 4643 H 430.971 -4.86799 0.296254 0
M  V30 4644 H 429.976 -4.84385 2.60099 0
M  V30 4645 H 431.201 -6.01798 3.14667 0
M  V30 4646 H 429.147 -6.49042 0.95295 0
M  V30 4647 H 429.064 -7.10996 2.56944 0
M  V30 4648 H 430.332 -7.64759 1.50875 0
M  V30 4649 N 434.561 -1.01147 -1.20859 0
M  V30 4650 C 435.508 -0.577354 -2.23462 0
M  V30 4651 C 436.478 0.399922 -1.61214 0
M  V30 4652 O 437.663 0.300515 -1.88419 0
M  V30 4653 C 434.803 0.083372 -3.44999 0
M  V30 4654 C 433.916 -0.937856 -4.21697 0
M  V30 4655 C 433.051 -0.248717 -5.30617 0
M  V30 4656 C 432.09 -1.25705 -5.99053 0
M  V30 4657 N 431.227 -0.594939 -6.99575 0
M  V30 4658 H 436.067 -1.45695 -2.59956 0
M  V30 4659 H 433.604 -0.729428 -1.27741 0
M  V30 4660 H 435.562 0.483535 -4.14388 0
M  V30 4661 H 434.192 0.926645 -3.09214 0
M  V30 4662 H 433.244 -1.45622 -3.51423 0
M  V30 4663 H 434.556 -1.70493 -4.68757 0
M  V30 4664 H 433.71 0.207215 -6.06346 0
M  V30 4665 H 432.449 0.55071 -4.84581 0
M  V30 4666 H 431.454 -1.72343 -5.2209 0
M  V30 4667 H 432.679 -2.05767 -6.47176 0
M  V30 4668 H 430.625 0.184713 -6.5574 0
M  V30 4669 H 430.542 -1.30017 -7.44736 0
M  V30 4670 H 431.81 -0.162427 -7.79331 0
M  V30 4671 N 436.039 1.36541 -0.78704 0
M  V30 4672 C 437.455 1.52571 -0.46844 0
M  V30 4673 C 437.655 1.7415 1.01361 0
M  V30 4674 O 436.711 1.77163 1.79915 0
M  V30 4675 C 438.024 2.71299 -1.29682 0
M  V30 4676 C 439.572 2.85169 -1.29027 0
M  V30 4677 C 440.047 4.06898 -2.10233 0
M  V30 4678 N 441.538 4.1404 -2.07666 0
M  V30 4679 C 442.273 5.07301 -2.67271 0
M  V30 4680 N 441.769 6.06021 -3.35724 0
M  V30 4681 N 443.562 4.99898 -2.57018 0
M  V30 4682 H 435.713 1.20788 -1.74711 0
M  V30 4683 H 437.976 0.589364 -0.742532 0
M  V30 4684 H 437.682 2.61868 -2.34773 0
M  V30 4685 H 437.556 3.6539 -0.936479 0
M  V30 4686 H 439.943 2.94062 -0.247284 0
M  V30 4687 H 440.024 1.91992 -1.69035 0
M  V30 4688 H 439.668 3.98766 -3.1456 0
M  V30 4689 H 439.598 4.99218 -1.67597 0
M  V30 4690 H 442.089 3.43357 -1.57843 0
M  V30 4691 H 442.402 6.73741 -3.78541 0
M  V30 4692 H 440.747 6.06253 -3.39826 0
M  V30 4693 H 443.938 4.21724 -2.03142 0
M  V30 4694 H 444.111 5.72392 -3.03761 0
M  V30 4695 N 437.518 0.538854 1.48102 0
M  V30 4696 C 438.465 -0.219042 2.29758 0
M  V30 4697 C 439.435 -0.925562 1.37922 0
M  V30 4698 O 440.62 -0.924855 1.66886 0
M  V30 4699 C 437.76 -1.25452 3.2149 0
M  V30 4700 C 436.873 -0.555943 4.28408 0
M  V30 4701 C 436.008 -1.57512 5.0731 0
M  V30 4702 C 435.047 -0.860498 6.06021 0
M  V30 4703 N 434.184 -1.82564 6.77949 0
M  V30 4704 H 439.024 0.483449 2.94052 0
M  V30 4705 H 436.561 0.250247 1.44956 0
M  V30 4706 H 438.519 -1.86727 3.7308 0
M  V30 4707 H 437.149 -1.92528 2.591 0
M  V30 4708 H 436.201 0.170938 3.80016 0
M  V30 4709 H 437.513 0.00474616 4.988 0
M  V30 4710 H 436.667 -2.26191 5.62959 0
M  V30 4711 H 435.406 -2.16972 4.36778 0
M  V30 4712 H 434.411 -0.159686 5.49568 0
M  V30 4713 H 435.636 -0.271897 6.78555 0
M  V30 4714 H 433.582 -2.40915 6.10161 0
M  V30 4715 H 433.499 -1.31662 7.44447 0
M  V30 4716 H 434.767 -2.50414 7.38182 0
M  V30 4717 N 438.996 -1.55193 0.274407 0
M  V30 4718 C 439.943 -2.225 -0.613374 0
M  V30 4719 C 440.913 -1.19823 -1.15029 0
M  V30 4720 O 442.098 -1.48362 -1.19973 0
M  V30 4721 C 439.238 -2.94927 -1.79199 0
M  V30 4722 C 438.351 -4.12322 -1.28899 0
M  V30 4723 C 437.486 -4.72394 -2.42934 0
M  V30 4724 C 436.525 -5.81984 -1.89634 0
M  V30 4725 N 435.662 -6.36123 -2.9714 0
M  V30 4726 H 440.502 -2.97982 -0.032756 0
M  V30 4727 H 438.039 -1.47099 -0.00440146 0
M  V30 4728 H 439.997 -3.35134 -2.48478 0
M  V30 4729 H 438.627 -2.2187 -2.34465 0
M  V30 4730 H 437.679 -3.7724 -0.489327 0
M  V30 4731 H 438.991 -4.91355 -0.858587 0
M  V30 4732 H 438.145 -5.15317 -3.20208 0
M  V30 4733 H 436.884 -3.92636 -2.8929 0
M  V30 4734 H 435.889 -5.38511 -1.1084 0
M  V30 4735 H 437.114 -6.6361 -1.44215 0
M  V30 4736 H 435.06 -5.59259 -3.42878 0
M  V30 4737 H 434.977 -7.10427 -2.58515 0
M  V30 4738 H 436.245 -6.83704 -3.74391 0
M  V30 4739 N 440.474 -0.00167713 -1.576 0
M  V30 4740 C 441.704 0.692754 -1.94639 0
M  V30 4741 C 442.112 1.67744 -0.87513 0
M  V30 4742 O 441.455 1.8305 0.154382 0
M  V30 4743 C 441.517 1.47881 -3.27676 0
M  V30 4744 C 441.181 0.655518 -4.52274 0
M  V30 4745 C 442.178 -0.0575214 -5.19868 0
M  V30 4746 C 439.863 0.600994 -4.98692 0
M  V30 4747 C 441.857 -0.814052 -6.3218 0
M  V30 4748 C 439.544 -0.15926 -6.10892 0
M  V30 4749 C 440.542 -0.865515 -6.77494 0
M  V30 4750 O 440.23 -1.61336 -7.87544 0
M  V30 4751 H 439.962 0.197792 -0.646417 0
M  V30 4752 H 442.516 -0.049423 -2.05341 0
M  V30 4753 H 440.746 2.2655 -3.13388 0
M  V30 4754 H 442.435 2.05874 -3.49816 0
M  V30 4755 H 443.201 -0.0245611 -4.84994 0
M  V30 4756 H 439.08 1.14025 -4.46676 0
M  V30 4757 H 442.624 -1.36584 -6.84098 0
M  V30 4758 H 438.521 -0.194035 -6.45208 0
M  V30 4759 H 439.289 -1.53025 -8.04068 0
M  V30 4760 N 441.952 1.55251 0.271103 0
M  V30 4761 C 442.882 1.9127 1.33933 0
M  V30 4762 C 443.863 0.77478 1.5143 0
M  V30 4763 O 445.048 1.03307 1.64442 0
M  V30 4764 C 442.178 2.18627 2.69851 0
M  V30 4765 C 441.132 3.34442 2.67081 0
M  V30 4766 C 440.458 3.47284 4.06569 0
M  V30 4767 C 441.758 4.70784 2.26185 0
M  V30 4768 H 443.452 2.80744 1.04035 0
M  V30 4769 H 440.998 1.35077 0.499017 0
M  V30 4770 H 442.951 2.42413 3.44694 0
M  V30 4771 H 441.675 1.25955 3.01335 0
M  V30 4772 H 440.334 3.10627 1.94695 0
M  V30 4773 H 439.982 2.52074 4.35279 0
M  V30 4774 H 439.682 4.25152 4.0561 0
M  V30 4775 H 441.206 3.73363 4.83148 0
M  V30 4776 H 442.62 4.94102 2.90751 0
M  V30 4777 H 441.017 5.51582 2.36384 0
M  V30 4778 H 442.087 4.69478 1.21319 0
M  V30 4779 N 443.43 -0.535701 1.48216 0
M  V30 4780 C 444.378 -1.66179 1.62749 0
M  V30 4781 C 445.372 -1.62034 0.49409 0
M  V30 4782 O 446.578 -1.6696 0.672624 0
M  V30 4783 H 442.953 -0.550244 0.512578 0
M  V30 4784 H 444.924 -1.51063 2.57337 0
M  V30 4785 C 443.673 -3.04471 1.67907 0
M  V30 4786 H 442.996 -3.08351 2.54479 0
M  V30 4787 H 444.436 -3.82894 1.82121 0
M  V30 4788 C 442.895 -3.34314 0.416596 0
M  V30 4789 O 443.425 -3.98905 -0.473014 0
M  V30 4790 N 441.631 -2.89149 0.290038 0
M  V30 4791 H 441.178 -2.36764 1.01493 0
M  V30 4792 H 441.136 -3.09486 -0.55367 0
M  V30 4793 N 444.908 -1.36708 -0.784132 0
M  V30 4794 C 445.856 -1.31533 -1.91838 0
M  V30 4795 C 446.85 -0.206205 -1.6814 0
M  V30 4796 O 448.056 -0.373519 -1.76082 0
M  V30 4797 H 444.431 -0.409613 -0.630651 0
M  V30 4798 H 446.402 -2.2731 -1.9332 0
M  V30 4799 C 445.151 -1.12679 -3.28936 0
M  V30 4800 H 444.474 -1.97274 -3.4774 0
M  V30 4801 H 445.914 -1.13106 -4.08636 0
M  V30 4802 C 444.373 0.168281 -3.36479 0
M  V30 4803 O 444.903 1.15625 -3.84699 0
M  V30 4804 N 443.109 0.214762 -2.89805 0
M  V30 4805 H 442.656 -0.589852 -2.50756 0
M  V30 4806 H 442.614 1.08094 -2.95234 0
M  V30 4807 N 446.386 1.0089 -1.21074 0
M  V30 4808 C 447.333 2.09588 -0.966512 0
M  V30 4809 C 448.303 1.65761 0.106089 0
M  V30 4810 O 449.488 1.90758 -0.0402287 0
M  V30 4811 C 446.628 3.40958 -0.533058 0
M  V30 4812 C 445.741 3.9822 -1.67467 0
M  V30 4813 C 444.876 5.17682 -1.19076 0
M  V30 4814 C 443.915 5.67043 -2.30496 0
M  V30 4815 N 443.052 6.77759 -1.83267 0
M  V30 4816 H 447.892 2.29815 -1.89708 0
M  V30 4817 H 445.429 1.12689 -0.945489 0
M  V30 4818 H 447.387 4.1637 -0.263019 0
M  V30 4819 H 446.017 3.20781 0.360505 0
M  V30 4820 H 445.069 3.1983 -2.05944 0
M  V30 4821 H 446.381 4.3085 -2.51336 0
M  V30 4822 H 445.535 6.00326 -0.877151 0
M  V30 4823 H 444.274 4.86635 -0.322066 0
M  V30 4824 H 443.279 4.82999 -2.62664 0
M  V30 4825 H 444.504 6.00121 -3.17855 0
M  V30 4826 H 442.45 6.48527 -0.987356 0
M  V30 4827 H 442.367 7.09624 -2.60711 0
M  V30 4828 H 443.635 7.63949 -1.54928 0
M  V30 4829 N 447.864 1.01787 1.20321 0
M  V30 4830 C 449.094 0.72614 1.93419 0
M  V30 4831 C 449.502 -0.717317 1.75075 0
M  V30 4832 O 448.845 -1.49836 1.06278 0
M  V30 4833 C 448.907 0.983621 3.45782 0
M  V30 4834 C 448.571 2.41645 3.87888 0
M  V30 4835 C 449.568 3.39732 3.93545 0
M  V30 4836 C 447.253 2.75752 4.19841 0
M  V30 4837 C 449.247 4.69988 4.30569 0
M  V30 4838 C 446.934 4.06221 4.56539 0
M  V30 4839 C 447.932 5.0315 4.61876 0
M  V30 4840 O 447.62 6.31284 4.97731 0
M  V30 4841 H 447.352 0.265824 0.621541 0
M  V30 4842 H 449.906 1.3623 1.53722 0
M  V30 4843 H 448.136 0.290301 3.85609 0
M  V30 4844 H 449.825 0.683279 4.00108 0
M  V30 4845 H 450.591 3.14718 3.69022 0
M  V30 4846 H 446.47 2.00993 4.14877 0
M  V30 4847 H 450.014 5.45642 4.3465 0
M  V30 4848 H 445.911 4.31013 4.80518 0
M  V30 4849 H 446.679 6.35591 5.15719 0
M  V30 4850 N 449.342 -1.36122 0.79427 0
M  V30 4851 C 450.758 -1.5232 0.476525 0
M  V30 4852 C 450.958 -1.74685 -1.00436 0
M  V30 4853 O 450.014 -1.78115 -1.78973 0
M  V30 4854 C 451.327 -2.70607 1.31119 0
M  V30 4855 C 452.875 -2.8448 1.30537 0
M  V30 4856 C 453.35 -4.05778 2.12387 0
M  V30 4857 N 454.841 -4.12933 2.09859 0
M  V30 4858 C 455.576 -5.05876 2.69957 0
M  V30 4859 N 455.072 -6.04232 3.38934 0
M  V30 4860 N 456.865 -4.98528 2.59665 0
M  V30 4861 H 449.016 -1.1986 1.75349 0
M  V30 4862 H 451.279 -0.585418 0.745647 0
M  V30 4863 H 450.985 -2.60619 2.36158 0
M  V30 4864 H 450.859 -3.64888 0.955843 0
M  V30 4865 H 453.246 -2.93927 0.262876 0
M  V30 4866 H 453.327 -1.91093 1.70051 0
M  V30 4867 H 452.971 -3.97092 3.1667 0
M  V30 4868 H 452.901 -4.98323 1.70242 0
M  V30 4869 H 455.392 -3.42515 1.59662 0
M  V30 4870 H 455.705 -6.71724 3.82109 0
M  V30 4871 H 454.05 -6.04443 3.43036 0
M  V30 4872 H 457.241 -4.20641 2.05375 0
M  V30 4873 H 457.414 -5.70773 3.06793 0
M  V30 4874 N 450.82 -0.546701 -1.47814 0
M  V30 4875 C 452.048 -0.0232857 -2.06887 0
M  V30 4876 C 452.463 1.26571 -1.4009 0
M  V30 4877 O 451.82 1.7569 -0.493906 0
M  V30 4878 C 451.871 0.186975 -3.61016 0
M  V30 4879 O 451.592 -1.05097 -4.25307 0
M  V30 4880 C 453.093 0.748872 -4.36929 0
M  V30 4881 H 450.313 -0.0410763 -0.669742 0
M  V30 4882 H 452.857 -0.757117 -1.89968 0
M  V30 4883 H 451.012 0.870903 -3.77484 0
M  V30 4884 H 451.426 -0.842121 -5.17695 0
M  V30 4885 H 452.9 0.845334 -5.45489 0
M  V30 4886 H 453.377 1.75772 -4.02493 0
M  V30 4887 H 453.983 0.100979 -4.2518 0
M  V30 4888 N 452.299 1.55045 -0.282633 0
M  V30 4889 C 453.524 2.04628 0.337977 0
M  V30 4890 C 453.949 1.15937 1.48123 0
M  V30 4891 O 453.307 0.159532 1.80597 0
M  V30 4892 C 453.355 3.51854 0.78936 0
M  V30 4893 O 452.459 3.66236 1.89592 0
M  V30 4894 H 451.8 0.660434 0.0687261 0
M  V30 4895 H 454.33 2.00261 -0.419124 0
M  V30 4896 H 454.34 3.93361 1.08311 0
M  V30 4897 H 453.015 4.15873 -0.0470419 0
M  V30 4898 H 451.592 3.36633 1.60413 0
M  V30 4899 N 453.777 0.010035 1.57597 0
M  V30 4900 C 455.188 -0.531426 1.78977 0
M  V30 4901 C 455.539 -1.73375 0.918454 0
M  V30 4902 O 454.664 -2.16047 0.123635 0
M  V30 4903 C 455.259 -0.97086 3.24592 0
M  V30 4904 C 453.818 -1.45756 3.47033 0
M  V30 4905 C 452.965 -0.413384 2.74201 0
M  V30 4906 H 455.916 0.236166 1.56933 0
M  V30 4907 H 455.937 -1.83633 3.33255 0
M  V30 4908 H 455.449 -0.0955893 3.87982 0
M  V30 4909 H 453.55 -2.35339 2.88871 0
M  V30 4910 H 453.663 -1.4781 4.55729 0
M  V30 4911 H 452.027 -0.877266 2.39115 0
M  V30 4912 H 452.81 0.453092 3.40297 0
M  V30 4913 N 455.255 -1.55392 -0.262866 0
M  V30 4914 C 456.502 -1.76476 -0.993109 0
M  V30 4915 C 456.83 -0.571479 -1.85915 0
M  V30 4916 O 456.085 0.445733 -1.90556 0
M  V30 4917 C 456.384 -3.02889 -1.89718 0
M  V30 4918 C 456.05 -4.34974 -1.18781 0
M  V30 4919 C 454.712 -4.7087 -0.991699 0
M  V30 4920 C 457.064 -5.16695 -0.683798 0
M  V30 4921 C 454.392 -5.86036 -0.279024 0
M  V30 4922 C 456.744 -6.32598 0.0153327 0
M  V30 4923 C 455.408 -6.67127 0.223062 0
M  V30 4924 H 454.678 -0.64577 -0.363404 0
M  V30 4925 H 457.325 -1.89664 -0.264525 0
M  V30 4926 H 455.63 -2.84644 -2.6923 0
M  V30 4927 H 457.327 -3.16399 -2.46359 0
M  V30 4928 H 453.917 -4.06765 -1.35058 0
M  V30 4929 H 458.101 -4.8943 -0.8229 0
M  V30 4930 H 453.357 -6.11306 -0.107456 0
M  V30 4931 H 457.531 -6.95171 0.413584 0
M  V30 4932 H 455.158 -7.56216 0.777265 0
M  V30 4933 N 456.733 0.527833 -1.48498 0
M  V30 4934 C 457.681 1.65313 -1.63628 0
M  V30 4935 C 458.675 1.6177 -0.502676 0
M  V30 4936 O 459.881 1.66601 -0.681469 0
M  V30 4937 H 456.256 0.547518 -0.515488 0
M  V30 4938 H 458.227 1.49696 -2.58135 0
M  V30 4939 C 456.976 3.03576 -1.6952 0
M  V30 4940 H 456.299 3.06997 -2.56111 0
M  V30 4941 H 457.739 3.81923 -1.84149 0
M  V30 4942 C 456.198 3.34089 -0.43432 0
M  V30 4943 O 456.728 3.99151 0.451852 0
M  V30 4944 N 454.934 2.88991 -0.305368 0
M  V30 4945 H 454.481 2.36222 -1.02747 0
M  V30 4946 H 454.439 3.09776 0.537249 0
M  V30 4947 N 458.211 1.37122 0.776871 0
M  V30 4948 C 459.141 1.35164 1.90402 0
M  V30 4949 C 460.122 0.221069 1.68657 0
M  V30 4950 O 461.307 0.420642 1.8959 0
M  V30 4951 C 458.437 1.15274 3.27611 0
M  V30 4952 C 457.391 2.25289 3.63908 0
M  V30 4953 C 456.717 1.90527 4.99603 0
M  V30 4954 C 458.017 3.67446 3.71188 0
M  V30 4955 H 459.711 2.29482 1.92297 0
M  V30 4956 H 457.257 1.10465 0.923773 0
M  V30 4957 H 459.21 1.12536 4.06096 0
M  V30 4958 H 457.934 0.174102 3.26136 0
M  V30 4959 H 456.593 2.27174 2.87728 0
M  V30 4960 H 456.241 0.91206 4.94662 0
M  V30 4961 H 455.941 2.64193 5.24858 0
M  V30 4962 H 457.465 1.89367 5.80493 0
M  V30 4963 H 458.879 3.67719 4.39836 0
M  V30 4964 H 457.276 4.40123 4.07936 0
M  V30 4965 H 458.346 4.01443 2.71977 0
M  V30 4966 N 459.689 -1.00246 1.21608 0
M  V30 4967 C 460.936 -1.74061 1.03485 0
M  V30 4968 C 461.264 -1.89658 -0.431308 0
M  V30 4969 O 460.519 -1.42976 -1.33627 0
M  V30 4970 C 460.818 -3.15448 1.68009 0
M  V30 4971 C 460.484 -3.19792 3.17874 0
M  V30 4972 C 459.146 -3.20685 3.58768 0
M  V30 4973 C 461.498 -3.16835 4.13842 0
M  V30 4974 C 458.826 -3.16309 4.94131 0
M  V30 4975 C 461.178 -3.14001 5.49169 0
M  V30 4976 C 459.842 -3.13204 5.89457 0
M  V30 4977 H 459.112 -0.636934 0.378677 0
M  V30 4978 H 461.759 -1.17473 1.51236 0
M  V30 4979 H 460.064 -3.75284 1.12557 0
M  V30 4980 H 461.761 -3.71285 1.51487 0
M  V30 4981 H 458.351 -3.19842 2.85305 0
M  V30 4982 H 462.535 -3.15303 3.83272 0
M  V30 4983 H 457.791 -3.14032 5.24589 0
M  V30 4984 H 461.965 -3.10667 6.23265 0
M  V30 4985 H 459.592 -3.09568 6.94314 0
M  V30 4986 N 461.167 -1.02423 -1.1978 0
M  V30 4987 C 462.117 -0.571689 -2.20716 0
M  V30 4988 C 463.101 0.377077 -1.56419 0
M  V30 4989 O 464.293 0.198801 -1.7588 0
M  V30 4990 C 461.422 0.0808555 -3.43205 0
M  V30 4991 C 460.508 -0.890073 -4.14655 0
M  V30 4992 N 460.899 -2.05065 -4.62366 0
M  V30 4993 C 459.197 -0.71252 -4.40272 0
M  V30 4994 C 459.898 -2.66264 -5.17183 0
M  V30 4995 N 458.874 -1.94264 -5.07703 0
M  V30 4996 H 462.676 -1.45636 -2.55279 0
M  V30 4997 H 460.19 -0.890596 -1.35802 0
M  V30 4998 H 462.187 0.422654 -4.14752 0
M  V30 4999 H 460.847 0.961274 -3.10144 0
M  V30 5000 H 461.858 -2.43026 -4.57339 0
M  V30 5001 H 458.535 0.119199 -4.1733 0
M  V30 5002 H 459.925 -3.64526 -5.64421 0
M  V30 5003 N 462.645 1.35699 -0.801477 0
M  V30 5004 C 463.595 2.2728 -0.181073 0
M  V30 5005 C 464.579 1.47533 0.642098 0
M  V30 5006 O 465.771 1.69785 0.500193 0
M  V30 5007 C 462.9 3.36626 0.673612 0
M  V30 5008 C 461.986 4.23802 -0.159008 0
M  V30 5009 N 462.377 4.90879 -1.2195 0
M  V30 5010 C 460.675 4.45959 0.0602005 0
M  V30 5011 C 461.376 5.5546 -1.72738 0
M  V30 5012 N 460.352 5.33663 -1.03465 0
M  V30 5013 H 464.154 2.76632 -0.992582 0
M  V30 5014 H 461.668 1.49166 -0.642127 0
M  V30 5015 H 463.665 4.01179 1.13408 0
M  V30 5016 H 462.325 2.88828 1.48353 0
M  V30 5017 H 463.336 4.92497 -1.60209 0
M  V30 5018 H 460.013 4.08969 0.839664 0
M  V30 5019 H 461.403 6.18991 -2.61342 0
M  V30 5020 N 464.123 0.554532 1.47522 0
M  V30 5021 C 465.372 0.0273458 2.01681 0
M  V30 5022 C 465.685 -1.32962 1.43459 0
M  V30 5023 O 466.891 -1.94657 1.89265 0
M  V30 5024 C 465.347 -0.00159057 3.599 0
M  V30 5025 C 464.955 1.35197 4.27113 0
M  V30 5026 C 466.699 -0.476311 4.21819 0
M  V30 5027 C 464.606 1.28229 5.77331 0
M  V30 5028 H 463.536 0.00645269 0.753972 0
M  V30 5029 H 466.187 0.701985 1.69542 0
M  V30 5030 H 464.569 -0.741821 3.8899 0
M  V30 5031 H 465.743 2.1097 4.09668 0
M  V30 5032 H 464.058 1.76441 3.77171 0
M  V30 5033 H 466.655 -0.5468 5.31897 0
M  V30 5034 H 466.998 -1.4877 3.8881 0
M  V30 5035 H 467.531 0.20898 3.97251 0
M  V30 5036 H 464.27 2.26959 6.14955 0
M  V30 5037 H 463.79 0.566314 5.97121 0
M  V30 5038 H 465.469 0.983226 6.39485 0
M  V30 5039 N 465.601 -1.54893 0.290851 0
M  V30 5040 C 466.549 -2.24579 -0.605576 0
M  V30 5041 C 467.543 -1.24824 -1.14522 0
M  V30 5042 O 468.749 -1.42706 -1.09704 0
M  V30 5043 H 465.124 -0.720946 -0.213872 0
M  V30 5044 H 467.095 -2.984 0.0048173 0
M  V30 5045 C 465.844 -2.99224 -1.77088 0
M  V30 5046 H 465.167 -3.75782 -1.36484 0
M  V30 5047 H 466.607 -3.51281 -2.3744 0
M  V30 5048 C 465.066 -2.05602 -2.66888 0
M  V30 5049 O 465.596 -1.61745 -3.67698 0
M  V30 5050 N 463.802 -1.71771 -2.34399 0
M  V30 5051 H 463.349 -2.07633 -1.52468 0
M  V30 5052 H 463.307 -1.09403 -2.94751 0
M  V30 5053 N 467.08 -0.0183926 -1.57589 0
M  V30 5054 C 468.308 0.673046 -1.95647 0
M  V30 5055 C 468.723 1.66275 -0.894312 0
M  V30 5056 O 468.08 1.82072 0.124975 0
M  V30 5057 C 468.131 1.38884 -3.33756 0
M  V30 5058 O 467.852 0.438806 -4.35897 0
M  V30 5059 C 469.353 2.1731 -3.86383 0
M  V30 5060 H 466.573 0.186292 -0.644621 0
M  V30 5061 H 469.117 -0.0749748 -2.04363 0
M  V30 5062 H 467.272 2.08835 -3.26293 0
M  V30 5063 H 467.686 0.945869 -5.15901 0
M  V30 5064 H 469.16 2.62863 -4.85394 0
M  V30 5065 H 469.637 3.00764 -3.20059 0
M  V30 5066 H 470.243 1.52339 -3.97081 0
M  V30 5067 N 468.558 1.5553 0.254621 0
M  V30 5068 C 469.788 1.80784 1.00004 0
M  V30 5069 C 470.196 0.59071 1.79742 0
M  V30 5070 O 469.539 -0.449988 1.78103 0
M  V30 5071 C 469.601 2.99268 1.99196 0
M  V30 5072 C 469.265 4.35595 1.38224 0
M  V30 5073 C 470.262 5.13884 0.788611 0
M  V30 5074 C 467.947 4.82281 1.40393 0
M  V30 5075 C 469.941 6.37004 0.224783 0
M  V30 5076 C 467.628 6.05351 0.836243 0
M  V30 5077 C 468.626 6.82551 0.24769 0
M  V30 5078 O 468.314 8.03297 -0.311249 0
M  V30 5079 H 468.046 0.60565 0.300274 0
M  V30 5080 H 470.6 2.03411 0.285143 0
M  V30 5081 H 468.83 2.72377 2.74496 0
M  V30 5082 H 470.519 3.11682 2.60018 0
M  V30 5083 H 471.285 4.78938 0.764423 0
M  V30 5084 H 467.164 4.22189 1.85142 0
M  V30 5085 H 470.708 6.97203 -0.235235 0
M  V30 5086 H 466.605 6.39776 0.857733 0
M  V30 5087 H 467.373 8.1825 -0.20237 0
M  V30 5088 N 470.036 -0.519951 1.48776 0
M  V30 5089 C 470.946 -1.65025 1.66745 0
M  V30 5090 C 471.962 -1.6508 0.549954 0
M  V30 5091 O 473.138 -1.83848 0.822295 0
M  V30 5092 C 470.203 -3.0146 1.71238 0
M  V30 5093 C 469.264 -3.12182 2.94688 0
M  V30 5094 C 468.497 -4.42109 2.98958 0
M  V30 5095 O 468.72 -5.29799 2.1135 0
M  V30 5096 O 467.654 -4.57406 3.91233 0
M  V30 5097 H 471.48 -1.52801 2.62461 0
M  V30 5098 H 469.065 -0.694157 1.32294 0
M  V30 5099 H 470.947 -3.82584 1.76657 0
M  V30 5100 H 469.622 -3.13988 0.786975 0
M  V30 5101 H 468.529 -2.30316 2.94797 0
M  V30 5102 H 469.862 -3.04574 3.86646 0
M  V30 5103 N 471.514 -1.37532 -0.769588 0
M  V30 5104 C 472.791 -1.23392 -1.51768 0
M  V30 5105 C 473.171 0.17157 -2.10402 0
M  V30 5106 O 472.519 1.17943 -1.95708 0
M  V30 5107 C 472.729 -2.33163 -2.59685 0
M  V30 5108 C 474.077 -2.70809 -3.27028 0
M  V30 5109 O 475.101 -2.32355 -2.69981 0
M  V30 5110 O 473.96 -3.37066 -4.30173 0
M  V30 5111 H 471.054 -0.481617 -0.67229 0
M  V30 5112 H 473.6 -1.49318 -0.806368 0
M  V30 5113 H 472.372 -3.27273 -2.14494 0
M  V30 5114 H 471.995 -2.08713 -3.38415 0
M  V30 5115 N 472.992 0.995999 -1.22138 0
M  V30 5116 C 473.94 2.10673 -0.985876 0
M  V30 5117 C 474.934 1.69255 0.0699553 0
M  V30 5118 O 476.14 1.79812 -0.0822176 0
M  V30 5119 H 472.515 0.688865 -0.30161 0
M  V30 5120 H 474.486 2.27711 -1.92848 0
M  V30 5121 C 473.235 3.42881 -0.576909 0
M  V30 5122 H 472.558 3.75191 -1.38101 0
M  V30 5123 H 473.998 4.21589 -0.451518 0
M  V30 5124 C 472.457 3.29265 0.713196 0
M  V30 5125 O 472.987 3.60777 1.76643 0
M  V30 5126 N 471.193 2.82456 0.683162 0
M  V30 5127 H 470.74 2.5701 -0.174242 0
M  V30 5128 H 470.698 2.73727 1.54663 0
M  V30 5129 N 474.47 1.03057 1.19235 0
M  V30 5130 C 475.718 0.726581 1.88587 0
M  V30 5131 C 476.039 -0.747227 1.80115 0
M  V30 5132 O 475.309 -1.53849 1.21274 0
M  V30 5133 H 473.889 0.265768 0.698124 0
M  V30 5134 H 476.551 1.30516 1.44746 0
M  V30 5135 H 475.647 1.0224 2.94879 0
M  V30 5136 N 475.948 -1.35272 0.808662 0
M  V30 5137 C 477.195 -1.98709 0.390003 0
M  V30 5138 C 477.523 -1.64148 -1.04335 0
M  V30 5139 O 476.778 -0.897797 -1.73891 0
M  V30 5140 C 477.077 -3.53556 0.522798 0
M  V30 5141 C 476.743 -4.0799 1.91977 0
M  V30 5142 C 475.405 -4.22568 2.30195 0
M  V30 5143 C 477.757 -4.37442 2.83361 0
M  V30 5144 C 475.085 -4.63918 3.59162 0
M  V30 5145 C 477.437 -4.80232 4.11776 0
M  V30 5146 C 476.101 -4.93016 4.49991 0
M  V30 5147 H 475.371 -0.727127 0.142712 0
M  V30 5148 H 478.018 -1.6145 1.02985 0
M  V30 5149 H 476.323 -3.91287 -0.200494 0
M  V30 5150 H 478.02 -4.00598 0.179608 0
M  V30 5151 H 474.61 -3.97096 1.61284 0
M  V30 5152 H 478.794 -4.25731 2.55083 0
M  V30 5153 H 474.05 -4.72005 3.88615 0
M  V30 5154 H 478.224 -5.01982 4.82687 0
M  V30 5155 H 475.851 -5.24814 5.49976 0
M  V30 5156 N 477.426 -0.562348 -1.47226 0
M  V30 5157 C 478.356 0.170627 -2.32876 0
M  V30 5158 C 479.337 0.903748 -1.44106 0
M  V30 5159 O 480.522 0.883206 -1.72954 0
M  V30 5160 C 477.652 1.19786 -3.25989 0
M  V30 5161 C 476.606 0.580875 -4.2404 0
M  V30 5162 C 475.932 1.71311 -5.06514 0
M  V30 5163 C 477.232 -0.468714 -5.20193 0
M  V30 5164 H 478.926 -0.544441 -2.94408 0
M  V30 5165 H 476.472 -0.263271 -1.41573 0
M  V30 5166 H 478.425 1.71884 -3.84752 0
M  V30 5167 H 477.149 1.94294 -2.62521 0
M  V30 5168 H 475.808 0.0811538 -3.6651 0
M  V30 5169 H 475.456 2.44736 -4.39447 0
M  V30 5170 H 475.156 1.30604 -5.72902 0
M  V30 5171 H 476.68 2.23725 -5.68137 0
M  V30 5172 H 478.094 -0.0336028 -5.7329 0
M  V30 5173 H 476.491 -0.794957 -5.94811 0
M  V30 5174 H 477.561 -1.36269 -4.65359 0
M  V30 5175 N 478.904 1.54736 -0.299062 0
M  V30 5176 C 480.153 1.99279 0.311549 0
M  V30 5177 C 480.466 1.19107 1.55154 0
M  V30 5178 O 481.672 1.53908 2.23662 0
M  V30 5179 C 480.128 3.54768 0.605632 0
M  V30 5180 C 479.736 4.43746 -0.615914 0
M  V30 5181 C 481.48 4.07841 1.17754 0
M  V30 5182 C 479.387 5.90663 -0.29509 0
M  V30 5183 H 478.317 0.744359 0.120187 0
M  V30 5184 H 480.968 1.78919 -0.407464 0
M  V30 5185 H 479.35 3.71021 1.38419 0
M  V30 5186 H 480.524 4.39267 -1.39218 0
M  V30 5187 H 478.839 4.01434 -1.10633 0
M  V30 5188 H 481.436 5.15174 1.43179 0
M  V30 5189 H 481.779 3.58324 2.11918 0
M  V30 5190 H 482.312 3.95123 0.460739 0
M  V30 5191 H 479.051 6.44325 -1.20524 0
M  V30 5192 H 478.571 5.98155 0.44394 0
M  V30 5193 H 480.25 6.46916 0.104048 0
M  V30 5194 N 480.382 0.0267497 1.57577 0
M  V30 5195 C 481.628 -0.653371 1.91987 0
M  V30 5196 C 481.961 -1.71915 0.903263 0
M  V30 5197 O 481.236 -1.94358 -0.0743387 0
M  V30 5198 C 481.519 -1.272 3.36886 0
M  V30 5199 C 481.372 -0.215938 4.49281 0
M  V30 5200 C 482.691 -2.19069 3.81703 0
M  V30 5201 H 479.81 -0.236047 0.698177 0
M  V30 5202 H 482.452 0.0835236 1.89816 0
M  V30 5203 H 480.602 -1.90005 3.38866 0
M  V30 5204 H 482.274 0.41449 4.59434 0
M  V30 5205 H 480.517 0.458855 4.31366 0
M  V30 5206 H 481.188 -0.688347 5.47691 0
M  V30 5207 H 483.664 -1.66253 3.81444 0
M  V30 5208 H 482.54 -2.59307 4.83788 0
M  V30 5209 H 482.801 -3.08087 3.17072 0
M  V30 5210 N 481.861 -1.55662 -0.24637 0
M  V30 5211 C 483.138 -1.68272 -0.997198 0
M  V30 5212 C 483.518 -0.566785 -2.03349 0
M  V30 5213 O 482.866 0.429688 -2.24424 0
M  V30 5214 C 483.076 -3.08594 -1.63006 0
M  V30 5215 C 484.424 -3.6721 -2.13171 0
M  V30 5216 O 485.448 -3.11397 -1.72946 0
M  V30 5217 O 484.307 -4.65054 -2.87031 0
M  V30 5218 H 481.401 -0.684429 -0.464205 0
M  V30 5219 H 483.947 -1.67993 -0.240114 0
M  V30 5220 H 482.719 -3.81264 -0.880527 0
M  V30 5221 H 482.342 -3.12886 -2.45333 0
M  V30 5222 N 483.339 0.512053 -1.4905 0
M  V30 5223 C 484.269 1.62365 -1.67809 0
M  V30 5224 C 485.25 1.61737 -0.526809 0
M  V30 5225 O 486.435 1.78651 -0.761404 0
M  V30 5226 C 483.565 3.00895 -1.73435 0
M  V30 5227 C 482.519 3.16387 -2.88242 0
M  V30 5228 C 481.845 4.56157 -2.78971 0
M  V30 5229 C 483.145 2.97457 -4.29321 0
M  V30 5230 H 484.839 1.46921 -2.60873 0
M  V30 5231 H 482.385 0.705379 -1.2554 0
M  V30 5232 H 484.338 3.78549 -1.85145 0
M  V30 5233 H 483.062 3.17403 -0.769619 0
M  V30 5234 H 481.721 2.41155 -2.76116 0
M  V30 5235 H 481.369 4.69525 -1.8043 0
M  V30 5236 H 481.069 4.67465 -3.5602 0
M  V30 5237 H 482.593 5.35886 -2.92675 0
M  V30 5238 H 484.007 3.64888 -4.42187 0
M  V30 5239 H 482.404 3.20245 -5.07507 0
M  V30 5240 H 483.474 1.93692 -4.44535 0
M  V30 5241 N 484.817 1.37938 0.762283 0
M  V30 5242 C 486.057 1.35076 1.53407 0
M  V30 5243 C 486.421 -0.061546 1.91901 0
M  V30 5244 O 487.622 -0.214973 2.67939 0
M  V30 5245 C 485.893 2.27206 2.75884 0
M  V30 5246 S 487.452 2.42283 3.65848 0
M  V30 5247 H 484.27 0.479387 0.52508 0
M  V30 5248 H 486.872 1.7378 0.895586 0
M  V30 5249 H 485.576 3.28724 2.457 0
M  V30 5250 H 485.107 1.8962 3.44685 0
M  V30 5251 H 487.122 1.64044 4.68299 0
M  V30 5252 N 486.295 -0.989507 1.22664 0
M  V30 5253 C 487.535 -1.7447 1.06488 0
M  V30 5254 C 487.899 -1.8794 -0.392737 0
M  V30 5255 O 489.1 -2.60175 -0.675446 0
M  V30 5256 C 487.371 -3.11043 1.76031 0
M  V30 5257 S 488.93 -4.02258 1.7531 0
M  V30 5258 H 485.748 -0.600123 0.381278 0
M  V30 5259 H 488.35 -1.18283 1.55658 0
M  V30 5260 H 487.054 -2.98884 2.81241 0
M  V30 5261 H 486.585 -3.72301 1.27105 0
M  V30 5262 H 488.6 -4.89623 0.805208 0
M  V30 5263 N 487.773 -1.03688 -1.18687 0
M  V30 5264 C 489.019 -0.74888 -1.89112 0
M  V30 5265 C 489.374 0.715345 -1.78607 0
M  V30 5266 O 488.667 1.51498 -1.17299 0
M  V30 5267 C 488.861 -1.14477 -3.3857 0
M  V30 5268 C 488.69 -2.64594 -3.63621 0
M  V30 5269 C 487.46 -3.31685 -3.812 0
M  V30 5270 C 489.658 -3.62811 -3.64517 0
M  V30 5271 N 487.64 -4.70822 -3.93955 0
M  V30 5272 C 489.011 -4.87603 -3.8294 0
M  V30 5273 C 491.066 -3.56495 -3.47585 0
M  V30 5274 C 489.769 -6.0684 -3.86184 0
M  V30 5275 C 491.795 -4.75155 -3.52111 0
M  V30 5276 C 491.157 -5.98765 -3.71026 0
M  V30 5277 H 487.256 -0.32603 -0.710794 0
M  V30 5278 H 489.84 -1.3258 -1.42586 0
M  V30 5279 H 488.011 -0.595974 -3.838 0
M  V30 5280 H 489.743 -0.808187 -3.96548 0
M  V30 5281 H 486.498 -2.82091 -3.80423 0
M  V30 5282 H 486.922 -5.43122 -4.04163 0
M  V30 5283 H 491.564 -2.61907 -3.31911 0
M  V30 5284 H 489.282 -7.01788 -4.00648 0
M  V30 5285 H 492.868 -4.71905 -3.40289 0
M  V30 5286 H 491.748 -6.89047 -3.74412 0
M  V30 5287 N 489.251 1.34841 -0.815825 0
M  V30 5288 C 490.198 2.29644 -0.230664 0
M  V30 5289 C 491.168 1.53253 0.640533 0
M  V30 5290 O 492.353 1.81653 0.583672 0
M  V30 5291 C 489.493 3.39715 0.607275 0
M  V30 5292 C 488.606 4.31056 -0.28538 0
M  V30 5293 C 487.741 5.28225 0.561446 0
M  V30 5294 C 486.78 6.11204 -0.331035 0
M  V30 5295 N 485.917 7.00483 0.476302 0
M  V30 5296 H 490.757 2.79095 -1.0445 0
M  V30 5297 H 488.294 1.37351 -0.526595 0
M  V30 5298 H 490.252 4.02208 1.10835 0
M  V30 5299 H 488.882 2.91517 1.38629 0
M  V30 5300 H 487.934 3.69487 -0.904621 0
M  V30 5301 H 489.246 4.89239 -0.97193 0
M  V30 5302 H 488.4 5.96135 1.12728 0
M  V30 5303 H 487.139 4.70562 1.28153 0
M  V30 5304 H 486.144 5.42232 -0.909069 0
M  V30 5305 H 487.369 6.70947 -1.04912 0
M  V30 5306 H 485.315 6.45296 1.18019 0
M  V30 5307 H 485.232 7.55847 -0.152008 0
M  V30 5308 H 486.5 7.7273 1.02512 0
M  V30 5309 N 490.729 0.570148 1.46925 0
M  V30 5310 C 491.977 0.0508523 2.02036 0
M  V30 5311 C 492.298 -1.30885 1.44548 0
M  V30 5312 O 491.568 -1.85647 0.625453 0
M  V30 5313 H 490.148 0.0158088 0.746833 0
M  V30 5314 H 492.81 0.743086 1.80178 0
M  V30 5315 H 491.906 -0.027575 3.12088 0
M  V30 5316 N 492.207 -1.54576 0.307264 0
M  V30 5317 C 493.454 -2.00263 -0.300167 0
M  V30 5318 C 493.782 -1.19561 -1.53413 0
M  V30 5319 O 493.037 -0.261487 -1.93945 0
M  V30 5320 C 493.336 -3.50572 -0.695253 0
M  V30 5321 C 493.002 -4.48771 0.437679 0
M  V30 5322 C 491.664 -4.7534 0.748681 0
M  V30 5323 C 494.016 -5.0721 1.19949 0
M  V30 5324 C 491.344 -5.5761 1.8245 0
M  V30 5325 C 493.696 -5.90651 2.26527 0
M  V30 5326 C 492.36 -6.15528 2.58227 0
M  V30 5327 H 491.63 -0.732814 -0.109839 0
M  V30 5328 H 494.277 -1.86664 0.427661 0
M  V30 5329 H 492.582 -3.61814 -1.50326 0
M  V30 5330 H 494.279 -3.83352 -1.17653 0
M  V30 5331 H 490.869 -4.282 0.185187 0
M  V30 5332 H 495.053 -4.86679 0.972474 0
M  V30 5333 H 490.309 -5.75121 2.07476 0
M  V30 5334 H 494.483 -6.34957 2.86011 0
M  V30 5335 H 492.11 -6.79066 3.4172 0
M  V30 5336 N 493.685 -0.035106 -1.57561 0
M  V30 5337 C 494.595 0.960295 -2.14046 0
M  V30 5338 C 495.611 1.3529 -1.0942 0
M  V30 5339 O 496.787 1.43309 -1.41508 0
M  V30 5340 C 493.852 2.22214 -2.66124 0
M  V30 5341 C 492.913 1.8894 -3.85487 0
M  V30 5342 C 492.146 3.09109 -4.35072 0
M  V30 5343 O 492.369 4.21963 -3.83802 0
M  V30 5344 O 491.303 2.91058 -5.26848 0
M  V30 5345 H 495.129 0.509983 -2.99387 0
M  V30 5346 H 492.714 0.185853 -1.48239 0
M  V30 5347 H 494.596 2.96279 -2.99661 0
M  V30 5348 H 493.271 2.66414 -1.83862 0
M  V30 5349 H 492.178 1.12241 -3.56865 0
M  V30 5350 H 493.511 1.49551 -4.6893 0
M  V30 5351 N 495.163 1.55791 0.238111 0
M  V30 5352 C 496.41 1.78033 0.964907 0
M  V30 5353 C 496.738 0.600984 1.84982 0
M  V30 5354 O 495.993 -0.41536 1.91241 0
M  V30 5355 C 496.292 3.05869 1.84875 0
M  V30 5356 C 495.958 4.36808 1.11846 0
M  V30 5357 C 494.62 4.72388 0.916662 0
M  V30 5358 C 496.972 5.17717 0.60151 0
M  V30 5359 C 494.3 5.86406 0.185756 0
M  V30 5360 C 496.652 6.32494 -0.115972 0
M  V30 5361 C 495.316 6.66688 -0.329168 0
M  V30 5362 H 494.586 0.651469 0.353085 0
M  V30 5363 H 497.233 1.90061 0.234318 0
M  V30 5364 H 495.538 2.88891 2.64668 0
M  V30 5365 H 497.235 3.20278 2.41294 0
M  V30 5366 H 493.825 4.08862 1.28569 0
M  V30 5367 H 498.009 4.90678 0.744932 0
M  V30 5368 H 493.265 6.11399 0.0101886 0
M  V30 5369 H 497.439 6.94425 -0.524127 0
M  V30 5370 H 495.066 7.54884 -0.897474 0
M  V30 5371 N 496.642 -0.504142 1.49319 0
M  V30 5372 C 497.888 -1.26033 1.58882 0
M  V30 5373 C 498.221 -1.92268 0.273274 0
M  V30 5374 O 497.496 -1.80567 -0.72291 0
M  V30 5375 C 497.779 -2.32976 2.7458 0
M  V30 5376 C 497.632 -1.71263 4.1592 0
M  V30 5377 C 498.951 -3.34561 2.85932 0
M  V30 5378 H 496.07 -0.456863 0.578312 0
M  V30 5379 H 498.712 -0.558965 1.81592 0
M  V30 5380 H 496.862 -2.92796 2.55348 0
M  V30 5381 H 498.534 -1.15294 4.4666 0
M  V30 5382 H 496.777 -1.01686 4.21714 0
M  V30 5383 H 497.448 -2.48816 4.92742 0
M  V30 5384 H 499.924 -2.84727 3.0343 0
M  V30 5385 H 498.8 -4.06754 3.68568 0
M  V30 5386 H 499.061 -3.96695 1.95154 0
M  V30 5387 N 498.12 -1.38341 -0.754957 0
M  V30 5388 C 499.35 -1.37504 -1.54195 0
M  V30 5389 C 499.758 0.0373787 -1.89163 0
M  V30 5390 O 499.101 1.01402 -1.53178 0
M  V30 5391 C 499.163 -2.16488 -2.87008 0
M  V30 5392 C 498.827 -3.65311 -2.74585 0
M  V30 5393 C 499.824 -4.58834 -2.44474 0
M  V30 5394 C 497.509 -4.08649 -2.9208 0
M  V30 5395 C 499.503 -5.93675 -2.32011 0
M  V30 5396 C 497.19 -5.43571 -2.79237 0
M  V30 5397 C 498.188 -6.35898 -2.49245 0
M  V30 5398 O 497.876 -7.68338 -2.36458 0
M  V30 5399 H 497.608 -0.472159 -0.483779 0
M  V30 5400 H 500.162 -1.82515 -0.94221 0
M  V30 5401 H 498.392 -1.66194 -3.49166 0
M  V30 5402 H 500.081 -2.08076 -3.4851 0
M  V30 5403 H 500.847 -4.26657 -2.30627 0
M  V30 5404 H 496.726 -3.37134 -3.14422 0
M  V30 5405 H 500.27 -6.65706 -2.08522 0
M  V30 5406 H 496.167 -5.75345 -2.92657 0
M  V30 5407 H 496.935 -7.78845 -2.5168 0
M  V30 5408 N 499.598 0.982988 -1.23187 0
M  V30 5409 C 500.546 2.09616 -1.00817 0
M  V30 5410 C 501.54 1.6932 0.0519995 0
M  V30 5411 O 502.746 1.79715 -0.101284 0
M  V30 5412 H 499.121 0.685628 -0.308899 0
M  V30 5413 H 501.092 2.25652 -1.95253 0
M  V30 5414 C 499.841 3.42249 -0.613243 0
M  V30 5415 H 499.164 3.73705 -1.42073 0
M  V30 5416 H 500.604 4.21086 -0.496208 0
M  V30 5417 C 499.063 3.30002 0.678233 0
M  V30 5418 O 499.593 3.6263 1.72807 0
M  V30 5419 N 497.799 2.83164 0.653165 0
M  V30 5420 H 497.346 2.56811 -0.201492 0
M  V30 5421 H 497.304 2.75352 1.51752 0
M  V30 5422 N 501.076 1.04316 1.18135 0
M  V30 5423 C 502.306 0.767003 1.91835 0
M  V30 5424 C 502.714 -0.68002 1.76557 0
M  V30 5425 O 502.057 -1.47548 1.09432 0
M  V30 5426 C 502.119 1.05674 3.43618 0
M  V30 5427 C 501.783 2.49818 3.82675 0
M  V30 5428 C 502.78 3.48003 3.86251 0
M  V30 5429 C 500.465 2.84596 4.13897 0
M  V30 5430 C 502.459 4.79016 4.20503 0
M  V30 5431 C 500.146 4.15813 4.4782 0
M  V30 5432 C 501.144 5.12834 4.51099 0
M  V30 5433 O 500.832 6.41699 4.84229 0
M  V30 5434 H 500.564 0.278948 0.615763 0
M  V30 5435 H 503.118 1.3946 1.50798 0
M  V30 5436 H 501.348 0.372029 3.84906 0
M  V30 5437 H 503.037 0.767994 3.98568 0
M  V30 5438 H 503.803 3.22475 3.62264 0
M  V30 5439 H 499.682 2.09748 4.1052 0
M  V30 5440 H 503.226 5.54739 4.22978 0
M  V30 5441 H 499.123 4.41109 4.71268 0
M  V30 5442 H 499.891 6.46387 5.02121 0
M  V30 5443 N 502.554 -1.34406 0.822964 0
M  V30 5444 C 503.484 -2.32052 0.259608 0
M  V30 5445 C 504.465 -1.58243 -0.623961 0
M  V30 5446 O 505.65 -1.86224 -0.55083 0
M  V30 5447 C 502.78 -3.42434 -0.579314 0
M  V30 5448 C 501.734 -4.27499 0.20712 0
M  V30 5449 C 501.06 -5.29349 -0.754547 0
M  V30 5450 C 502.36 -5.02758 1.41533 0
M  V30 5451 H 504.054 -2.79418 1.07545 0
M  V30 5452 H 501.6 -1.34338 0.518593 0
M  V30 5453 H 503.553 -4.0976 -0.983612 0
M  V30 5454 H 502.277 -2.93717 -1.4282 0
M  V30 5455 H 500.936 -3.61776 0.592787 0
M  V30 5456 H 500.584 -4.76895 -1.59939 0
M  V30 5457 H 500.284 -5.8714 -0.232561 0
M  V30 5458 H 501.808 -5.99544 -1.1567 0
M  V30 5459 H 503.222 -5.62938 1.08504 0
M  V30 5460 H 501.619 -5.70123 1.87296 0
M  V30 5461 H 502.689 -4.32451 2.1935 0
M  V30 5462 N 504.032 -0.577932 -1.46621 0
M  V30 5463 C 505.262 -0.0670668 -2.06491 0
M  V30 5464 C 505.67 1.24119 -1.42798 0
M  V30 5465 O 505.013 1.76016 -0.525759 0
M  V30 5466 C 505.075 0.177995 -3.59059 0
M  V30 5467 C 504.739 -1.04394 -4.44917 0
M  V30 5468 C 505.736 -1.95479 -4.81751 0
M  V30 5469 C 503.421 -1.26444 -4.86125 0
M  V30 5470 C 505.415 -3.06965 -5.58615 0
M  V30 5471 C 503.102 -2.38237 -5.62749 0
M  V30 5472 C 504.1 -3.28327 -5.98908 0
M  V30 5473 O 503.788 -4.38179 -6.73984 0
M  V30 5474 H 503.52 -0.0523159 -0.673973 0
M  V30 5475 H 506.074 -0.796966 -1.89308 0
M  V30 5476 H 504.304 0.962451 -3.74531 0
M  V30 5477 H 505.993 0.636782 -4.00874 0
M  V30 5478 H 506.759 -1.79657 -4.50498 0
M  V30 5479 H 502.638 -0.572316 -4.57434 0
M  V30 5480 H 506.182 -3.77309 -5.86757 0
M  V30 5481 H 502.079 -2.54023 -5.93416 0
M  V30 5482 H 502.847 -4.36486 -6.92403 0
M  V30 5483 N 505.51 1.54411 -0.315457 0
M  V30 5484 C 506.44 2.27002 0.547039 0
M  V30 5485 C 507.421 1.27492 1.12605 0
M  V30 5486 O 508.606 1.5629 1.15269 0
M  V30 5487 C 505.736 3.02171 1.71201 0
M  V30 5488 C 504.69 4.0895 1.26268 0
M  V30 5489 C 504.016 4.71915 2.51396 0
M  V30 5490 C 505.316 5.20891 0.383419 0
M  V30 5491 H 507.01 2.99343 -0.0584517 0
M  V30 5492 H 504.556 1.4397 -0.0295527 0
M  V30 5493 H 506.509 3.51681 2.32161 0
M  V30 5494 H 505.233 2.27433 2.34397 0
M  V30 5495 H 503.892 3.60312 0.676062 0
M  V30 5496 H 503.54 3.93801 3.12937 0
M  V30 5497 H 503.24 5.44039 2.22026 0
M  V30 5498 H 504.764 5.24195 3.13133 0
M  V30 5499 H 506.178 5.66206 0.899082 0
M  V30 5500 H 504.575 5.99821 0.182857 0
M  V30 5501 H 505.645 4.81324 -0.587821 0
M  V30 5502 N 506.988 0.0434614 1.5754 0
M  V30 5503 C 507.951 -0.918696 2.09982 0
M  V30 5504 C 508.951 -1.24488 1.01781 0
M  V30 5505 O 510.141 -1.18284 1.27885 0
M  V30 5506 C 507.273 -2.23093 2.57764 0
M  V30 5507 H 508.466 -0.464229 2.96285 0
M  V30 5508 H 506.019 -0.204818 1.54952 0
M  V30 5509 H 506.754 -2.73137 1.74832 0
M  V30 5510 H 506.539 -2.00724 3.36827 0
M  V30 5511 H 508.029 -2.92028 2.98512 0
M  V30 5512 N 508.466 -1.55915 -0.229846 0
M  V30 5513 C 509.414 -1.9258 -1.30444 0
M  V30 5514 C 510.408 -0.806839 -1.48951 0
M  V30 5515 O 511.614 -0.991606 -1.50224 0
M  V30 5516 H 507.989 -0.611878 -0.437161 0
M  V30 5517 H 509.96 -2.82264 -0.96797 0
M  V30 5518 C 508.709 -2.25171 -2.6494 0
M  V30 5519 H 508.032 -3.10782 -2.51504 0
M  V30 5520 H 509.472 -2.54716 -3.38963 0
M  V30 5521 C 507.931 -1.07394 -3.19324 0
M  V30 5522 O 508.461 -0.330759 -4.00336 0
M  V30 5523 N 506.667 -0.859984 -2.77584 0
M  V30 5524 H 506.214 -1.46605 -2.11813 0
M  V30 5525 H 506.172 -0.0736671 -3.14314 0
M  V30 5526 N 509.944 0.496216 -1.49584 0
M  V30 5527 C 510.874 1.60576 -1.69521 0
M  V30 5528 C 511.855 1.61169 -0.543933 0
M  V30 5529 O 513.04 1.77834 -0.78031 0
M  V30 5530 C 510.17 2.99038 -1.76616 0
M  V30 5531 C 509.124 3.13312 -2.91581 0
M  V30 5532 C 508.45 4.53172 -2.83794 0
M  V30 5533 C 509.75 2.92886 -4.32452 0
M  V30 5534 H 511.444 1.44146 -2.62416 0
M  V30 5535 H 508.99 0.692024 -1.26282 0
M  V30 5536 H 510.943 3.76564 -1.8915 0
M  V30 5537 H 509.667 3.16568 -0.80324 0
M  V30 5538 H 508.326 2.38213 -2.78658 0
M  V30 5539 H 507.974 4.67585 -1.854 0
M  V30 5540 H 507.674 4.63662 -3.60958 0
M  V30 5541 H 509.198 5.32752 -2.98342 0
M  V30 5542 H 510.612 3.60178 -4.46032 0
M  V30 5543 H 509.009 3.14844 -5.10875 0
M  V30 5544 H 510.079 1.88966 -4.46565 0
M  V30 5545 N 511.423 1.38739 0.74761 0
M  V30 5546 C 512.839 1.20067 1.05148 0
M  V30 5547 C 513.039 0.0534835 2.01429 0
M  V30 5548 O 512.095 -0.59886 2.45296 0
M  V30 5549 C 513.408 2.52957 1.62584 0
M  V30 5550 C 514.956 2.59692 1.74726 0
M  V30 5551 C 515.431 3.92772 2.35573 0
M  V30 5552 N 516.922 3.94343 2.42997 0
M  V30 5553 C 517.657 4.9408 2.90985 0
M  V30 5554 N 517.153 6.04214 3.38965 0
M  V30 5555 N 518.946 4.81466 2.9008 0
M  V30 5556 H 511.097 2.12121 0.108808 0
M  V30 5557 H 513.36 0.941491 0.110899 0
M  V30 5558 H 513.066 3.37389 0.993051 0
M  V30 5559 H 512.94 2.71779 2.61565 0
M  V30 5560 H 515.327 1.75651 2.3713 0
M  V30 5561 H 515.408 2.44731 0.744326 0
M  V30 5562 H 515.052 4.77238 1.738 0
M  V30 5563 H 514.982 4.05046 3.36519 0
M  V30 5564 H 517.473 3.14799 2.0907 0
M  V30 5565 H 517.786 6.76241 3.74056 0
M  V30 5566 H 516.131 6.07825 3.37007 0
M  V30 5567 H 519.322 3.94535 2.51912 0
M  V30 5568 H 519.495 5.59344 3.27166 0
M  V30 5569 N 512.901 -0.976442 1.23707 0
M  V30 5570 C 513.811 -2.10359 1.03856 0
M  V30 5571 C 514.827 -1.73991 -0.0180919 0
M  V30 5572 O 516.003 -2.0061 0.178211 0
M  V30 5573 C 513.068 -3.40809 0.636387 0
M  V30 5574 C 512.129 -3.91179 1.76854 0
M  V30 5575 C 511.362 -5.15404 1.38546 0
M  V30 5576 O 511.585 -5.69754 0.27142 0
M  V30 5577 O 510.519 -5.5994 2.20797 0
M  V30 5578 H 514.345 -2.29997 1.98331 0
M  V30 5579 H 511.93 -1.08742 1.02448 0
M  V30 5580 H 513.812 -4.19269 0.423223 0
M  V30 5581 H 512.487 -3.22493 -0.279322 0
M  V30 5582 H 511.394 -3.13819 2.03638 0
M  V30 5583 H 512.727 -4.13958 2.6627 0
M  V30 5584 N 514.379 -1.04941 -1.1758 0
M  V30 5585 C 515.327 -0.64204 -2.23563 0
M  V30 5586 C 516.321 0.335453 -1.66045 0
M  V30 5587 O 517.527 0.20179 -1.78865 0
M  V30 5588 H 513.902 -0.18944 -0.727748 0
M  V30 5589 H 515.873 -1.54609 -2.55223 0
M  V30 5590 C 514.622 -0.0301051 -3.47687 0
M  V30 5591 H 513.945 -0.773339 -3.92249 0
M  V30 5592 H 515.385 0.217592 -4.23441 0
M  V30 5593 C 513.844 1.2225 -3.13937 0
M  V30 5594 O 514.374 2.3122 -3.28482 0
M  V30 5595 N 512.58 1.11917 -2.68185 0
M  V30 5596 H 512.127 0.232403 -2.5655 0
M  V30 5597 H 512.085 1.95814 -2.45976 0
M  V30 5598 N 515.857 1.33968 -0.830081 0
M  V30 5599 C 517.103 1.98773 -0.431394 0
M  V30 5600 C 517.458 1.64598 0.99626 0
M  V30 5601 O 516.751 0.911022 1.68555 0
M  V30 5602 C 516.945 3.52679 -0.57898 0
M  V30 5603 C 516.774 4.01807 -2.01943 0
M  V30 5604 C 515.544 4.30062 -2.65282 0
M  V30 5605 C 517.742 4.18663 -2.98707 0
M  V30 5606 N 515.724 4.65272 -4.00493 0
M  V30 5607 C 517.095 4.57133 -4.18843 0
M  V30 5608 C 519.15 4.00929 -2.95229 0
M  V30 5609 C 517.853 4.79723 -5.35965 0
M  V30 5610 C 519.879 4.2469 -4.11573 0
M  V30 5611 C 519.241 4.63454 -5.30462 0
M  V30 5612 H 515.34 0.75435 -0.206107 0
M  V30 5613 H 517.924 1.62247 -1.07629 0
M  V30 5614 H 516.095 3.88383 0.0360632 0
M  V30 5615 H 517.827 4.04412 -0.152596 0
M  V30 5616 H 514.582 4.21231 -2.16475 0
M  V30 5617 H 515.006 4.87101 -4.70172 0
M  V30 5618 H 519.648 3.70082 -2.04448 0
M  V30 5619 H 517.366 5.09434 -6.27297 0
M  V30 5620 H 520.952 4.12497 -4.10289 0
M  V30 5621 H 519.832 4.81476 -6.18992 0
M  V30 5622 N 517.335 0.585699 1.46312 0
M  V30 5623 C 518.245 -0.148236 2.34131 0
M  V30 5624 C 519.261 -0.882972 1.49932 0
M  V30 5625 O 520.437 -0.845484 1.82794 0
M  V30 5626 C 517.502 -1.14714 3.27172 0
M  V30 5627 C 516.563 -0.416746 4.27272 0
M  V30 5628 C 515.796 -1.36806 5.15868 0
M  V30 5629 O 516.019 -2.60475 5.07454 0
M  V30 5630 O 514.953 -0.877018 5.95476 0
M  V30 5631 H 518.779 0.572882 2.98248 0
M  V30 5632 H 516.364 0.346082 1.45336 0
M  V30 5633 H 518.246 -1.72303 3.84564 0
M  V30 5634 H 516.921 -1.84967 2.65648 0
M  V30 5635 H 515.828 0.201061 3.73559 0
M  V30 5636 H 517.161 0.244872 4.9159 0
M  V30 5637 N 518.813 -1.54241 0.323641 0
M  V30 5638 C 519.723 -2.28033 -0.551205 0
M  V30 5639 C 520.739 -1.32388 -1.12913 0
M  V30 5640 O 521.915 -1.65403 -1.14908 0
M  V30 5641 C 518.98 -3.02382 -1.69606 0
M  V30 5642 C 518.041 -4.13612 -1.14993 0
M  V30 5643 C 517.274 -4.84407 -2.24022 0
M  V30 5644 O 517.497 -4.54716 -3.44368 0
M  V30 5645 O 516.431 -5.71312 -1.89436 0
M  V30 5646 H 520.257 -3.03662 0.048066 0
M  V30 5647 H 517.842 -1.49133 0.0893289 0
M  V30 5648 H 519.724 -3.48941 -2.36259 0
M  V30 5649 H 518.399 -2.29628 -2.28151 0
M  V30 5650 H 517.306 -3.71402 -0.448484 0
M  V30 5651 H 518.639 -4.8841 -0.609608 0
M  V30 5652 N 520.291 -0.0518155 -1.57515 0
M  V30 5653 C 521.537 0.622745 -1.93002 0
M  V30 5654 C 521.87 1.70456 -0.930499 0
M  V30 5655 O 521.145 1.94452 0.0434086 0
M  V30 5656 C 521.428 1.21824 -3.38867 0
M  V30 5657 C 521.281 0.144434 -4.49568 0
M  V30 5658 C 522.6 2.12968 -3.8514 0
M  V30 5659 H 519.719 0.22491 -0.701844 0
M  V30 5660 H 522.361 -0.113711 -1.89659 0
M  V30 5661 H 520.511 1.8459 -3.41846 0
M  V30 5662 H 522.183 -0.48753 -4.58717 0
M  V30 5663 H 520.426 -0.527424 -4.30582 0
M  V30 5664 H 521.097 0.601127 -5.48717 0
M  V30 5665 H 523.573 1.60163 -3.8404 0
M  V30 5666 H 522.449 2.51578 -4.87852 0
M  V30 5667 H 522.71 3.03004 -3.21934 0
M  V30 5668 N 521.769 1.56035 0.221574 0
M  V30 5669 C 522.716 1.92413 1.27459 0
M  V30 5670 C 523.686 0.781323 1.46576 0
M  V30 5671 O 524.871 1.03721 1.60145 0
M  V30 5672 C 522.011 2.24617 2.61995 0
M  V30 5673 C 521.124 3.51831 2.50677 0
M  V30 5674 C 520.259 3.73482 3.77736 0
M  V30 5675 C 519.298 4.94211 3.6114 0
M  V30 5676 N 518.435 5.12252 4.80148 0
M  V30 5677 H 523.275 2.82203 0.957355 0
M  V30 5678 H 520.812 1.39676 0.461415 0
M  V30 5679 H 522.77 2.41298 3.40339 0
M  V30 5680 H 521.4 1.38 2.91815 0
M  V30 5681 H 520.452 3.43343 1.63767 0
M  V30 5682 H 521.764 4.40328 2.34334 0
M  V30 5683 H 520.918 3.9026 4.64523 0
M  V30 5684 H 519.657 2.83266 3.97003 0
M  V30 5685 H 518.662 4.77384 2.72736 0
M  V30 5686 H 519.887 5.85912 3.43343 0
M  V30 5687 H 517.833 4.24978 4.99729 0
M  V30 5688 H 517.75 5.94881 4.66532 0
M  V30 5689 H 519.018 5.33465 5.68362 0
M  V30 5690 N 523.247 -0.488276 1.49845 0
M  V30 5691 C 524.194 -1.58836 1.67451 0
M  V30 5692 C 525.164 -1.57886 0.515857 0
M  V30 5693 O 526.349 -1.75679 0.744403 0
M  V30 5694 C 523.489 -2.96915 1.75885 0
M  V30 5695 C 522.602 -3.07784 3.03138 0
M  V30 5696 C 521.737 -4.36673 3.02473 0
M  V30 5697 C 520.776 -4.41222 4.24252 0
M  V30 5698 N 519.913 -5.61557 4.21424 0
M  V30 5699 H 524.753 -1.43131 2.61376 0
M  V30 5700 H 522.29 -0.696186 1.29583 0
M  V30 5701 H 524.248 -3.76965 1.78755 0
M  V30 5702 H 522.878 -3.11295 0.85414 0
M  V30 5703 H 521.93 -2.20717 3.09819 0
M  V30 5704 H 523.242 -3.07005 3.93128 0
M  V30 5705 H 522.396 -5.25055 3.03977 0
M  V30 5706 H 521.135 -4.40037 2.10283 0
M  V30 5707 H 520.14 -3.5124 4.22978 0
M  V30 5708 H 521.365 -4.39564 5.17649 0
M  V30 5709 H 519.311 -5.65738 3.32078 0
M  V30 5710 H 519.228 -5.62447 5.05163 0
M  V30 5711 H 520.496 -6.52111 4.2705 0
M  V30 5712 N 524.725 -1.39134 -0.740242 0
M  V30 5713 C 525.673 -1.3757 -1.87556 0
M  V30 5714 C 526.667 -0.259593 -1.67399 0
M  V30 5715 O 527.873 -0.429349 -1.74804 0
M  V30 5716 H 524.248 -0.42947 -0.6173 0
M  V30 5717 H 526.219 -2.33345 -1.85991 0
M  V30 5718 C 524.968 -1.23087 -3.25184 0
M  V30 5719 H 524.291 -2.08237 -3.41288 0
M  V30 5720 H 525.731 -1.26049 -4.0483 0
M  V30 5721 C 524.19 0.0611471 -3.36845 0
M  V30 5722 O 524.72 1.03328 -3.88183 0
M  V30 5723 N 522.926 0.122454 -2.90342 0
M  V30 5724 H 522.473 -0.669329 -2.48752 0
M  V30 5725 H 522.431 0.986463 -2.98523 0
M  V30 5726 N 526.204 0.969867 -1.24223 0
M  V30 5727 C 527.167 2.04564 -1.03373 0
M  V30 5728 C 528.167 1.60798 0.00819206 0
M  V30 5729 O 529.357 1.72641 -0.232567 0
M  V30 5730 C 526.489 3.36163 -0.566343 0
M  V30 5731 H 527.682 2.24494 -1.98853 0
M  V30 5732 H 525.235 1.1448 -1.06415 0
M  V30 5733 H 525.97 3.21925 0.391751 0
M  V30 5734 H 525.755 3.69273 -1.31834 0
M  V30 5735 H 527.245 4.1526 -0.441435 0
M  V30 5736 N 527.682 1.05563 1.17022 0
M  V30 5737 C 529.098 0.777684 1.39371 0
M  V30 5738 C 529.298 -0.626269 1.91521 0
M  V30 5739 O 528.354 -1.38806 2.10924 0
M  V30 5740 C 529.667 1.83642 2.3811 0
M  V30 5741 C 531.215 1.85907 2.51809 0
M  V30 5742 C 531.69 2.90813 3.53824 0
M  V30 5743 N 533.181 2.898 3.61345 0
M  V30 5744 C 533.916 3.6762 4.40049 0
M  V30 5745 N 533.412 4.55237 5.22237 0
M  V30 5746 N 535.205 3.56044 4.34959 0
M  V30 5747 H 527.356 1.9614 0.815047 0
M  V30 5748 H 529.619 0.849527 0.420722 0
M  V30 5749 H 529.325 2.84425 2.06871 0
M  V30 5750 H 529.199 1.6812 3.37662 0
M  V30 5751 H 531.586 0.857865 2.82356 0
M  V30 5752 H 531.667 2.05506 1.52318 0
M  V30 5753 H 531.311 3.91122 3.24015 0
M  V30 5754 H 531.241 2.68465 4.53028 0
M  V30 5755 H 533.732 2.26274 3.02669 0
M  V30 5756 H 534.045 5.11291 5.79484 0
M  V30 5757 H 532.39 4.59296 5.21605 0
M  V30 5758 H 535.581 2.86986 3.69806 0
M  V30 5759 H 535.754 4.16938 4.96051 0
M  V30 5760 N 529.16 -1.33526 0.837174 0
M  V30 5761 C 530.107 -2.29248 0.267169 0
M  V30 5762 C 531.077 -1.54252 -0.616071 0
M  V30 5763 O 532.262 -1.82559 -0.554699 0
M  V30 5764 C 529.402 -3.40638 -0.553152 0
M  V30 5765 C 528.515 -4.30548 0.353921 0
M  V30 5766 C 527.65 -5.29051 -0.477339 0
M  V30 5767 C 526.689 -6.106 0.42823 0
M  V30 5768 N 525.826 -7.01152 -0.364801 0
M  V30 5769 H 530.666 -2.77398 1.08877 0
M  V30 5770 H 528.203 -1.36496 0.54838 0
M  V30 5771 H 530.161 -4.03921 -1.04422 0
M  V30 5772 H 528.791 -2.93685 -1.33973 0
M  V30 5773 H 527.843 -3.68001 0.963289 0
M  V30 5774 H 529.155 -4.87631 1.04964 0
M  V30 5775 H 528.309 -5.97853 -1.0323 0
M  V30 5776 H 527.048 -4.72541 -1.2065 0
M  V30 5777 H 526.053 -5.40718 0.995219 0
M  V30 5778 H 527.278 -6.69193 1.15573 0
M  V30 5779 H 525.224 -6.47092 -1.07738 0
M  V30 5780 H 525.141 -7.5551 0.272238 0
M  V30 5781 H 526.409 -7.74263 -0.902054 0
M  V30 5782 N 530.638 -0.59345 -1.46 0
M  V30 5783 C 531.601 0.123538 -2.28867 0
M  V30 5784 C 532.601 0.808628 -1.38989 0
M  V30 5785 O 533.791 0.658945 -1.61256 0
M  V30 5786 C 530.923 1.1847 -3.19653 0
M  V30 5787 H 532.116 -0.604843 -2.93737 0
M  V30 5788 H 529.669 -0.351875 -1.52288 0
M  V30 5789 H 530.404 1.94431 -2.59552 0
M  V30 5790 H 530.189 0.69783 -3.8584 0
M  V30 5791 H 531.679 1.68726 -3.81997 0
M  V30 5792 N 532.116 1.54067 -0.331816 0
M  V30 5793 C 533.527 1.86059 0.15454 0
M  V30 5794 C 533.878 1.25331 1.50952 0
M  V30 5795 O 533.003 0.562441 2.08963 0
M  V30 5796 C 533.598 3.37581 0.287192 0
M  V30 5797 C 532.157 3.69493 0.717773 0
M  V30 5798 C 531.304 2.76863 -0.155569 0
M  V30 5799 H 534.255 1.48797 -0.55182 0
M  V30 5800 H 534.276 3.63744 1.11671 0
M  V30 5801 H 533.788 3.81751 -0.699131 0
M  V30 5802 H 531.889 3.3086 1.71354 0
M  V30 5803 H 532.002 4.76315 0.5158 0
M  V30 5804 H 530.366 2.51995 0.370213 0
M  V30 5805 H 531.149 3.23861 -1.13881 0
M  V30 5806 N 533.594 0.0601682 1.57485 0
M  V30 5807 C 534.526 -0.94047 2.09016 0
M  V30 5808 C 535.539 -1.26897 1.01985 0
M  V30 5809 O 536.728 -1.22819 1.29529 0
M  V30 5810 C 533.828 -2.25955 2.52582 0
M  V30 5811 C 533.001 -2.11163 3.83052 0
M  V30 5812 C 532.06 -3.26273 4.12835 0
M  V30 5813 O 531.086 -3.01779 4.82616 0
M  V30 5814 N 532.288 -4.51022 3.65458 0
M  V30 5815 H 535.053 -0.500578 2.9549 0
M  V30 5816 H 532.614 -0.125852 1.6141 0
M  V30 5817 H 534.606 -3.01846 2.69575 0
M  V30 5818 H 533.176 -2.61481 1.71308 0
M  V30 5819 H 532.396 -1.19808 3.75552 0
M  V30 5820 H 533.684 -1.98517 4.68475 0
M  V30 5821 H 533.082 -4.73811 3.09062 0
M  V30 5822 H 531.639 -5.23978 3.87673 0
M  V30 5823 N 535.072 -1.5615 -0.213296 0
M  V30 5824 C 536.483 -1.69645 -0.779582 0
M  V30 5825 C 536.834 -0.663615 -1.84636 0
M  V30 5826 O 535.959 0.183633 -2.15619 0
M  V30 5827 C 536.554 -3.07567 -1.42084 0
M  V30 5828 C 535.113 -3.22889 -1.93442 0
M  V30 5829 C 534.26 -2.65581 -0.797612 0
M  V30 5830 H 537.211 -1.58696 0.0114951 0
M  V30 5831 H 537.232 -3.03884 -2.28986 0
M  V30 5832 H 536.744 -3.82716 -0.644187 0
M  V30 5833 H 534.845 -2.52623 -2.73884 0
M  V30 5834 H 534.958 -4.30197 -2.10872 0
M  V30 5835 H 533.322 -2.24278 -1.20712 0
M  V30 5836 H 534.105 -3.43284 -0.033494 0
M  V30 5837 N 536.55 0.480323 -1.50102 0
M  V30 5838 C 537.46 1.60547 -1.71061 0
M  V30 5839 C 538.476 1.63564 -0.593529 0
M  V30 5840 O 539.652 1.81604 -0.870751 0
M  V30 5841 C 536.717 2.96814 -1.79171 0
M  V30 5842 C 535.778 3.04259 -3.02861 0
M  V30 5843 C 535.011 4.34027 -3.10574 0
M  V30 5844 O 535.234 5.24009 -2.25323 0
M  V30 5845 O 534.168 4.46873 -4.03223 0
M  V30 5846 H 537.994 1.45788 -2.6642 0
M  V30 5847 H 535.579 0.658838 -1.34088 0
M  V30 5848 H 537.461 3.77765 -1.86738 0
M  V30 5849 H 536.136 3.11791 -0.869947 0
M  V30 5850 H 535.043 2.22419 -3.008 0
M  V30 5851 H 536.376 2.94216 -3.94586 0
M  V30 5852 N 538.028 1.39524 0.732853 0
M  V30 5853 C 539.274 1.37068 1.49467 0
M  V30 5854 C 539.607 -0.0327166 1.94172 0
M  V30 5855 O 538.882 -0.998071 1.66939 0
M  V30 5856 C 539.165 2.34494 2.73285 0
M  V30 5857 C 539.018 3.83784 2.34585 0
M  V30 5858 C 540.337 2.29717 3.75391 0
M  V30 5859 H 537.456 0.499206 0.542183 0
M  V30 5860 H 540.098 1.70532 0.837783 0
M  V30 5861 H 538.248 2.06087 3.29333 0
M  V30 5862 H 539.92 4.22949 1.84151 0
M  V30 5863 H 538.163 4.00455 1.66787 0
M  V30 5864 H 538.834 4.47444 3.23262 0
M  V30 5865 H 541.31 2.54839 3.28932 0
M  V30 5866 H 540.186 2.99962 4.59689 0
M  V30 5867 H 540.447 1.30291 4.22465 0
M  V30 5868 N 539.506 -0.963266 1.24736 0
M  V30 5869 C 540.922 -1.23273 1.01371 0
M  V30 5870 C 541.122 -1.99618 -0.274776 0
M  V30 5871 O 540.178 -2.32293 -0.989769 0
M  V30 5872 C 541.491 -2.01554 2.23152 0
M  V30 5873 C 543.039 -2.14629 2.27823 0
M  V30 5874 C 543.514 -2.96307 3.49237 0
M  V30 5875 N 545.005 -3.03887 3.49581 0
M  V30 5876 C 545.74 -3.67456 4.40186 0
M  V30 5877 N 545.236 -4.32706 5.41052 0
M  V30 5878 N 547.029 -3.64511 4.27888 0
M  V30 5879 H 539.18 -0.452294 2.07528 0
M  V30 5880 H 541.443 -0.262521 0.910926 0
M  V30 5881 H 541.149 -1.52847 3.1675 0
M  V30 5882 H 541.023 -3.02278 2.25628 0
M  V30 5883 H 543.41 -2.62537 1.34753 0
M  V30 5884 H 543.491 -1.13238 2.2937 0
M  V30 5885 H 543.135 -2.49091 4.42624 0
M  V30 5886 H 543.065 -3.97905 3.44933 0
M  V30 5887 H 545.556 -2.57477 2.76611 0
M  V30 5888 H 545.869 -4.79042 6.06415 0
M  V30 5889 H 544.214 -4.31361 5.44934 0
M  V30 5890 H 547.405 -3.12715 3.4832 0
M  V30 5891 H 547.578 -4.13768 4.98698 0
M  V30 5892 N 540.985 -1.06182 -1.16461 0
M  V30 5893 C 542.401 -0.785065 -1.38956 0
M  V30 5894 C 542.601 0.616103 -1.9185 0
M  V30 5895 O 541.657 1.37686 -2.11657 0
M  V30 5896 C 542.97 -1.84902 -2.37132 0
M  V30 5897 C 544.518 -1.8724 -2.50819 0
M  V30 5898 C 544.993 -2.92686 -3.52277 0
M  V30 5899 N 546.484 -2.91712 -3.59803 0
M  V30 5900 C 547.219 -3.69949 -4.38093 0
M  V30 5901 N 546.715 -4.58 -5.19815 0
M  V30 5902 N 548.508 -3.58346 -4.33064 0
M  V30 5903 H 540.659 -1.96569 -0.804634 0
M  V30 5904 H 542.922 -0.851747 -0.416211 0
M  V30 5905 H 542.628 -2.85518 -2.0536 0
M  V30 5906 H 542.502 -1.69908 -3.36766 0
M  V30 5907 H 544.889 -0.872827 -2.81897 0
M  V30 5908 H 544.97 -2.06311 -1.51226 0
M  V30 5909 H 544.614 -3.92835 -3.21937 0
M  V30 5910 H 544.544 -2.70864 -4.51598 0
M  V30 5911 H 547.035 -2.27876 -3.01464 0
M  V30 5912 H 547.348 -5.14357 -5.76764 0
M  V30 5913 H 545.693 -4.62056 -5.19162 0
M  V30 5914 H 548.884 -2.88943 -3.68279 0
M  V30 5915 H 549.057 -4.19563 -4.93833 0
M  V30 5916 N 542.463 1.3308 -0.844243 0
M  V30 5917 C 543.693 2.01515 -0.455541 0
M  V30 5918 C 544.101 1.63655 0.949406 0
M  V30 5919 O 543.444 0.84848 1.62931 0
M  V30 5920 C 543.506 3.55967 -0.502801 0
M  V30 5921 C 543.17 4.17222 -1.86481 0
M  V30 5922 C 544.167 4.36205 -2.8288 0
M  V30 5923 C 541.852 4.53528 -2.15911 0
M  V30 5924 C 543.846 4.90649 -4.06869 0
M  V30 5925 C 541.533 5.07679 -3.40155 0
M  V30 5926 C 542.531 5.26186 -4.35451 0
M  V30 5927 O 542.219 5.79183 -5.57496 0
M  V30 5928 H 541.951 0.65199 -0.178565 0
M  V30 5929 H 544.505 1.70867 -1.1399 0
M  V30 5930 H 542.735 3.85965 0.23836 0
M  V30 5931 H 544.424 4.05688 -0.131169 0
M  V30 5932 H 545.19 4.085 -2.61444 0
M  V30 5933 H 541.069 4.38414 -1.42528 0
M  V30 5934 H 544.613 5.0501 -4.81259 0
M  V30 5935 H 540.51 5.34815 -3.61446 0
M  V30 5936 H 541.278 5.97591 -5.5931 0
M  V30 5937 N 543.941 0.601185 1.45683 0
M  V30 5938 C 545.187 0.0940202 2.02582 0
M  V30 5939 C 545.52 -1.26972 1.46941 0
M  V30 5940 O 544.795 -1.83613 0.641612 0
M  V30 5941 C 545.078 0.0481715 3.60068 0
M  V30 5942 C 544.931 1.44212 4.26055 0
M  V30 5943 C 546.25 -0.642975 4.35378 0
M  V30 5944 H 543.369 0.0356404 0.736138 0
M  V30 5945 H 546.011 0.771929 1.73612 0
M  V30 5946 H 544.161 -0.529128 3.8488 0
M  V30 5947 H 545.833 2.06601 4.12449 0
M  V30 5948 H 544.076 2.00465 3.84703 0
M  V30 5949 H 544.747 1.36234 5.34925 0
M  V30 5950 H 547.223 -0.152351 4.15821 0
M  V30 5951 H 546.099 -0.644141 5.45107 0
M  V30 5952 H 546.36 -1.70785 4.0778 0
M  V30 5953 N 545.419 -1.53889 0.339982 0
M  V30 5954 C 546.349 -2.27843 -0.510856 0
M  V30 5955 C 547.33 -1.29267 -1.10563 0
M  V30 5956 O 548.515 -1.58104 -1.12768 0
M  V30 5957 C 545.645 -3.04857 -1.66372 0
M  V30 5958 C 544.599 -4.10907 -1.19746 0
M  V30 5959 C 543.925 -4.75855 -2.43857 0
M  V30 5960 C 545.225 -5.21435 -0.300501 0
M  V30 5961 H 546.919 -2.99212 0.106067 0
M  V30 5962 H 544.465 -1.43904 0.0524533 0
M  V30 5963 H 546.418 -3.5533 -2.26537 0
M  V30 5964 H 545.142 -2.31133 -2.30749 0
M  V30 5965 H 543.801 -3.61342 -0.618654 0
M  V30 5966 H 543.449 -3.9873 -3.06633 0
M  V30 5967 H 543.149 -5.47502 -2.13343 0
M  V30 5968 H 544.673 -5.2911 -3.04754 0
M  V30 5969 H 546.087 -5.67565 -0.80889 0
M  V30 5970 H 544.484 -6.00036 -0.0874076 0
M  V30 5971 H 545.554 -4.80328 0.664321 0
M  V30 5972 N 546.897 -0.0685191 -1.57451 0
M  V30 5973 C 548.308 0.464634 -1.80826 0
M  V30 5974 C 548.659 1.69847 -0.982169 0
M  V30 5975 O 547.784 2.15439 -0.203734 0
M  V30 5976 C 548.379 0.849721 -3.27971 0
M  V30 5977 C 546.938 1.32776 -3.52204 0
M  V30 5978 C 546.085 0.311332 -2.75547 0
M  V30 5979 H 549.036 -0.294248 -1.55948 0
M  V30 5980 H 549.057 1.71138 -3.39841 0
M  V30 5981 H 548.569 -0.0484736 -3.8807 0
M  V30 5982 H 546.67 2.24456 -2.97406 0
M  V30 5983 H 546.783 1.30794 -4.60901 0
M  V30 5984 H 545.147 0.787915 -2.42206 0
M  V30 5985 H 545.93 -0.579078 -3.38381 0
M  V30 5986 N 548.375 1.56261 0.205012 0
M  V30 5987 C 549.305 1.96779 1.257 0
M  V30 5988 C 550.286 0.838309 1.48008 0
M  V30 5989 O 551.471 1.10189 1.59913 0
M  V30 5990 C 548.601 2.29876 2.60335 0
M  V30 5991 C 547.555 3.45469 2.52656 0
M  V30 5992 C 546.881 3.64215 3.91473 0
M  V30 5993 C 548.181 4.79954 2.06014 0
M  V30 5994 H 549.875 2.84904 0.920338 0
M  V30 5995 H 547.421 1.37072 0.441277 0
M  V30 5996 H 549.374 2.56814 3.34102 0
M  V30 5997 H 548.098 1.38622 2.95722 0
M  V30 5998 H 546.757 3.18605 1.81345 0
M  V30 5999 H 546.405 2.70309 4.24196 0
M  V30 6000 H 546.105 4.41973 3.87213 0
M  V30 6001 H 547.629 3.93519 4.66878 0
M  V30 6002 H 549.043 5.05989 2.69533 0
M  V30 6003 H 547.44 5.61111 2.12777 0
M  V30 6004 H 548.51 4.74201 1.01297 0
M  V30 6005 N 549.853 -0.472356 1.50355 0
M  V30 6006 C 550.801 -1.59126 1.69651 0
M  V30 6007 C 551.795 -1.59793 0.56237 0
M  V30 6008 O 553.001 -1.63957 0.742832 0
M  V30 6009 H 549.376 -0.528008 0.535454 0
M  V30 6010 H 551.347 -1.40013 2.63513 0
M  V30 6011 C 550.096 -2.97075 1.8067 0
M  V30 6012 H 549.419 -2.9728 2.67329 0
M  V30 6013 H 550.859 -3.74825 1.98197 0
M  V30 6014 C 549.318 -3.32247 0.558016 0
M  V30 6015 O 549.848 -4.00553 -0.303399 0
M  V30 6016 N 548.054 -2.87659 0.412415 0
M  V30 6017 H 547.601 -2.32246 1.11443 0
M  V30 6018 H 547.559 -3.11556 -0.421908 0
M  V30 6019 N 551.331 -1.39911 -0.725443 0
M  V30 6020 C 552.58 -1.36963 -1.48068 0
M  V30 6021 C 552.893 0.0284478 -1.95579 0
M  V30 6022 O 554.099 0.180535 -2.70899 0
M  V30 6023 C 552.555 -2.40664 -2.67598 0
M  V30 6024 C 552.163 -3.86234 -2.26997 0
M  V30 6025 C 553.907 -2.46807 -3.45379 0
M  V30 6026 C 551.814 -4.81554 -3.43307 0
M  V30 6027 H 550.744 -0.509223 -0.556065 0
M  V30 6028 H 553.395 -1.65602 -0.790454 0
M  V30 6029 H 551.777 -2.05109 -3.38742 0
M  V30 6030 H 552.951 -4.3088 -1.63337 0
M  V30 6031 H 551.266 -3.83475 -1.62284 0
M  V30 6032 H 553.863 -3.15213 -4.31909 0
M  V30 6033 H 554.206 -1.49552 -3.8851 0
M  V30 6034 H 554.739 -2.81303 -2.81271 0
M  V30 6035 H 551.478 -5.80106 -3.05217 0
M  V30 6036 H 550.998 -4.4158 -4.05915 0
M  V30 6037 H 552.677 -5.0091 -4.0951 0
M  V30 6038 N 552.809 0.956637 -1.25245 0
M  V30 6039 C 554.086 1.67716 -1.00651 0
M  V30 6040 C 554.466 2.0585 0.467866 0
M  V30 6041 O 553.814 1.77029 1.44475 0
M  V30 6042 C 554.024 2.90093 -1.94028 0
M  V30 6043 C 555.372 3.6209 -2.21756 0
M  V30 6044 O 556.396 3.00171 -1.9177 0
M  V30 6045 O 555.255 4.7358 -2.72735 0
M  V30 6046 H 552.349 0.733731 -0.381533 0
M  V30 6047 H 554.895 1.00974 -1.3639 0
M  V30 6048 H 553.667 2.58689 -2.93591 0
M  V30 6049 H 553.29 3.64566 -1.58674 0
M  V30 6050 N 554.287 1.06798 1.15896 0
M  V30 6051 C 555.234 0.683314 2.20453 0
M  V30 6052 C 556.204 -0.32255 1.62938 0
M  V30 6053 O 557.389 -0.210276 1.89638 0
M  V30 6054 C 554.529 0.0813266 3.45004 0
M  V30 6055 C 553.642 1.13799 4.16742 0
M  V30 6056 C 552.777 0.501598 5.28826 0
M  V30 6057 C 551.816 1.54144 5.92373 0
M  V30 6058 N 550.953 0.928038 6.9594 0
M  V30 6059 H 555.793 1.57932 2.52708 0
M  V30 6060 H 553.33 0.789544 1.24115 0
M  V30 6061 H 555.288 -0.285274 4.16224 0
M  V30 6062 H 553.918 -0.77806 3.13283 0
M  V30 6063 H 552.97 1.62223 3.44075 0
M  V30 6064 H 554.282 1.92664 4.60089 0
M  V30 6065 H 553.436 0.0823162 6.06644 0
M  V30 6066 H 552.175 -0.318883 4.86656 0
M  V30 6067 H 551.18 1.97056 5.13273 0
M  V30 6068 H 552.405 2.3641 6.36621 0
M  V30 6069 H 550.351 0.12836 6.55874 0
M  V30 6070 H 550.268 1.65401 7.37685 0
M  V30 6071 H 551.536 0.534071 7.77668 0
M  V30 6072 N 555.766 -1.3263 0.851289 0
M  V30 6073 C 556.729 -2.27247 0.298541 0
M  V30 6074 C 557.729 -1.51467 -0.539847 0
M  V30 6075 O 558.919 -1.7061 -0.351843 0
M  V30 6076 C 556.051 -3.35964 -0.578004 0
M  V30 6077 H 557.244 -2.7765 1.13359 0
M  V30 6078 H 554.797 -1.43245 0.625354 0
M  V30 6079 H 555.532 -2.90823 -1.435 0
M  V30 6080 H 555.317 -3.92094 0.0220539 0
M  V30 6081 H 556.807 -4.06472 -0.957626 0
M  V30 6082 N 557.244 -0.608902 -1.45362 0
M  V30 6083 C 558.521 -0.0365378 -1.95566 0
M  V30 6084 C 558.901 1.43169 -1.55131 0
M  V30 6085 O 558.249 2.1349 -0.814513 0
M  V30 6086 C 558.459 -0.236026 -3.48201 0
M  V30 6087 C 559.807 -0.117518 -4.24437 0
M  V30 6088 O 560.831 -0.166217 -3.55812 0
M  V30 6089 O 559.69 -0.00372127 -5.465 0
M  V30 6090 H 556.784 0.0349874 -0.82626 0
M  V30 6091 H 559.33 -0.679055 -1.55521 0
M  V30 6092 H 558.102 -1.25569 -3.70605 0
M  V30 6093 H 557.725 0.441691 -3.95139 0
M  V30 6094 N 558.722 1.53707 -0.348139 0
M  V30 6095 C 559.95 2.05406 0.248224 0
M  V30 6096 C 560.365 1.22282 1.43849 0
M  V30 6097 O 559.722 0.259244 1.80649 0
M  V30 6098 C 559.773 3.55446 0.658793 0
M  V30 6099 O 559.494 4.35417 -0.484149 0
M  V30 6100 C 560.995 4.23335 1.31539 0
M  V30 6101 H 558.215 0.669344 0.0471075 0
M  V30 6102 H 560.759 1.98257 -0.501456 0
M  V30 6103 H 558.914 3.62803 1.35841 0
M  V30 6104 H 559.328 5.24268 -0.155949 0
M  V30 6105 H 560.802 5.29692 1.55338 0
M  V30 6106 H 561.279 3.75967 2.27036 0
M  V30 6107 H 561.885 4.20184 0.657683 0
M  V30 6108 N 560.2 0.0768682 1.57412 0
M  V30 6109 C 561.448 -0.589918 1.93299 0
M  V30 6110 C 561.769 -1.69842 0.958049 0
M  V30 6111 O 561.039 -1.95899 0.00703261 0
M  V30 6112 H 559.619 -0.220901 0.713591 0
M  V30 6113 H 562.281 0.135917 1.94425 0
M  V30 6114 H 561.377 -1.01195 2.95239 0
M  V30 6115 N 561.678 -1.56367 -0.196722 0
M  V30 6116 C 562.625 -1.94417 -1.24382 0
M  V30 6117 C 563.595 -0.804543 -1.45315 0
M  V30 6118 O 564.78 -1.06256 -1.58475 0
M  V30 6119 C 561.92 -2.28757 -2.58388 0
M  V30 6120 C 561.033 -3.55775 -2.45047 0
M  V30 6121 C 560.168 -3.79445 -3.71746 0
M  V30 6122 C 559.207 -4.99894 -3.53231 0
M  V30 6123 N 558.344 -5.19826 -4.71938 0
M  V30 6124 H 563.184 -2.83691 -0.912338 0
M  V30 6125 H 560.721 -1.40392 -0.439135 0
M  V30 6126 H 562.679 -2.46682 -3.36457 0
M  V30 6127 H 561.309 -1.42625 -2.89582 0
M  V30 6128 H 560.361 -3.45905 -1.58284 0
M  V30 6129 H 561.673 -4.44 -2.27299 0
M  V30 6130 H 560.827 -3.97601 -4.58256 0
M  V30 6131 H 559.566 -2.89546 -3.92446 0
M  V30 6132 H 558.571 -4.81662 -2.65107 0
M  V30 6133 H 559.796 -5.913 -3.33978 0
M  V30 6134 H 557.742 -4.32875 -4.92905 0
M  V30 6135 H 557.659 -6.02228 -4.57009 0
M  V30 6136 H 558.927 -5.42439 -5.59803 0
M  V30 6137 N 563.156 0.464375 -1.50603 0
M  V30 6138 C 564.104 1.58224 -1.70493 0
M  V30 6139 C 565.098 1.59492 -0.570836 0
M  V30 6140 O 566.304 1.63561 -0.751517 0
M  V30 6141 H 562.679 0.525161 -0.538247 0
M  V30 6142 H 564.65 1.38613 -2.64252 0
M  V30 6143 C 563.399 2.96113 -1.82243 0
M  V30 6144 H 562.722 2.95858 -2.68901 0
M  V30 6145 H 564.162 3.73769 -2.00182 0
M  V30 6146 C 562.621 3.31946 -0.575628 0
M  V30 6147 O 563.151 4.00708 0.282152 0
M  V30 6148 N 561.357 2.87436 -0.427665 0
M  V30 6149 H 560.904 2.31652 -1.12674 0
M  V30 6150 H 560.862 3.11776 0.405379 0
M  V30 6151 N 564.634 1.40294 0.718013 0
M  V30 6152 C 565.564 1.43118 1.84498 0
M  V30 6153 C 566.545 0.292403 1.67568 0
M  V30 6154 O 567.73 0.500675 1.87635 0
M  V30 6155 C 564.86 1.29065 3.22427 0
M  V30 6156 C 563.814 2.40521 3.54025 0
M  V30 6157 C 563.14 2.11546 4.91073 0
M  V30 6158 C 564.44 3.82859 3.55269 0
M  V30 6159 H 566.134 2.37432 1.82391 0
M  V30 6160 H 563.68 1.14283 0.87609 0
M  V30 6161 H 565.633 1.29658 4.00957 0
M  V30 6162 H 564.357 0.312271 3.25104 0
M  V30 6163 H 563.016 2.39173 2.77834 0
M  V30 6164 H 562.664 1.12104 4.90348 0
M  V30 6165 H 562.364 2.86216 5.1318 0
M  V30 6166 H 563.888 2.13817 5.71939 0
M  V30 6167 H 565.302 3.86044 4.23843 0
M  V30 6168 H 563.699 4.57029 3.88902 0
M  V30 6169 H 564.769 4.12617 2.54706 0
M  V30 6170 N 566.112 -0.949982 1.2575 0
M  V30 6171 C 567.358 -1.69766 1.10938 0
M  V30 6172 C 567.691 -1.91056 -0.348028 0
M  V30 6173 O 566.966 -1.48488 -1.25625 0
M  V30 6174 C 567.249 -3.07779 1.86933 0
M  V30 6175 C 567.102 -2.9387 3.4053 0
M  V30 6176 C 568.421 -4.07749 1.65616 0
M  V30 6177 H 565.54 -0.616144 0.404396 0
M  V30 6178 H 568.182 -1.10394 1.54639 0
M  V30 6179 H 566.332 -3.58462 1.4979 0
M  V30 6180 H 568.004 -2.50476 3.87375 0
M  V30 6181 H 566.247 -2.29686 3.68004 0
M  V30 6182 H 566.918 -3.91719 3.88922 0
M  V30 6183 H 569.394 -3.65994 1.97959 0
M  V30 6184 H 568.27 -5.02348 2.21218 0
M  V30 6185 H 568.531 -4.38029 0.598595 0
M  V30 6186 N 567.59 -1.07411 -1.15328 0
M  V30 6187 C 568.818 -0.818782 -1.90009 0
M  V30 6188 C 569.233 0.628072 -1.78047 0
M  V30 6189 O 568.59 1.43085 -1.13282 0
M  V30 6190 C 568.641 -1.21874 -3.40337 0
M  V30 6191 O 568.362 -2.60883 -3.51954 0
M  V30 6192 C 569.863 -0.992796 -4.3204 0
M  V30 6193 H 567.083 -0.296007 -0.60218 0
M  V30 6194 H 569.627 -1.43073 -1.46117 0
M  V30 6195 H 567.782 -0.651103 -3.81889 0
M  V30 6196 H 568.196 -2.77216 -4.45255 0
M  V30 6197 H 569.67 -1.32215 -5.35932 0
M  V30 6198 H 570.147 0.0708331 -4.39143 0
M  V30 6199 H 570.753 -1.54537 -3.9623 0
M  V30 6200 N 569.068 1.32177 -0.85831 0
M  V30 6201 C 569.998 2.31282 -0.321041 0
M  V30 6202 C 570.979 1.59841 0.581786 0
M  V30 6203 O 572.164 1.87619 0.501262 0
M  V30 6204 C 569.294 3.4385 0.48832 0
M  V30 6205 C 568.248 4.26799 -0.320391 0
M  V30 6206 C 567.574 5.31164 0.613934 0
M  V30 6207 C 568.874 4.98829 -1.54813 0
M  V30 6208 H 570.568 2.76469 -1.14915 0
M  V30 6209 H 568.114 1.32916 -0.554028 0
M  V30 6210 H 570.067 4.12224 0.874626 0
M  V30 6211 H 568.791 2.97401 1.34983 0
M  V30 6212 H 567.45 3.60077 -0.688497 0
M  V30 6213 H 567.098 4.80967 1.47239 0
M  V30 6214 H 566.798 5.8755 0.0768097 0
M  V30 6215 H 568.322 6.024 0.997336 0
M  V30 6216 H 569.736 5.59864 -1.23392 0
M  V30 6217 H 568.133 5.64957 -2.02346 0
M  V30 6218 H 569.203 4.26483 -2.30739 0
M  V30 6219 N 570.547 0.616602 1.45037 0
M  V30 6220 C 571.958 0.199359 1.85633 0
M  V30 6221 C 572.309 -1.24588 1.51566 0
M  V30 6222 O 571.434 -1.94594 0.94668 0
M  V30 6223 C 572.029 0.355033 3.36935 0
M  V30 6224 C 570.588 -0.00758748 3.76399 0
M  V30 6225 C 569.735 0.675256 2.68953 0
M  V30 6226 H 572.686 0.822708 1.3571 0
M  V30 6227 H 572.707 -0.410201 3.78282 0
M  V30 6228 H 572.219 1.40699 3.61698 0
M  V30 6229 H 570.32 -1.05837 3.57252 0
M  V30 6230 H 570.433 0.392346 4.77491 0
M  V30 6231 H 568.797 0.111992 2.54454 0
M  V30 6232 H 569.58 1.72952 2.96551 0
M  V30 6233 N 572.025 -1.5352 0.356285 0
M  V30 6234 C 572.973 -2.26945 -0.50978 0
M  V30 6235 C 573.967 -1.29569 -1.09125 0
M  V30 6236 O 575.173 -1.47231 -1.03552 0
M  V30 6237 H 571.548 -0.729368 -0.183102 0
M  V30 6238 H 573.519 -2.98111 0.131374 0
M  V30 6239 C 572.268 -3.06466 -1.64237 0
M  V30 6240 H 571.591 -3.81233 -1.20423 0
M  V30 6241 H 573.031 -3.61035 -2.22327 0
M  V30 6242 C 571.49 -2.16737 -2.57928 0
M  V30 6243 O 572.02 -1.77195 -3.60507 0
M  V30 6244 N 570.226 -1.81558 -2.26903 0
M  V30 6245 H 569.773 -2.13913 -1.43524 0
M  V30 6246 H 569.731 -1.21806 -2.89846 0
M  V30 6247 N 573.503 -0.0852151 -1.57369 0
M  V30 6248 C 574.731 0.58946 -1.98325 0
M  V30 6249 C 575.146 1.62333 -0.96403 0
M  V30 6250 O 574.503 1.82438 0.0476395 0
M  V30 6251 C 574.554 1.24604 -3.39347 0
M  V30 6252 O 574.275 0.253532 -4.37366 0
M  V30 6253 C 575.776 2.00726 -3.95252 0
M  V30 6254 H 572.996 0.158783 -0.651942 0
M  V30 6255 H 575.54 -0.161584 -2.03861 0
M  V30 6256 H 573.695 1.94808 -3.34856 0
M  V30 6257 H 574.109 0.726207 -5.19448 0
M  V30 6258 H 575.583 2.42039 -4.96106 0
M  V30 6259 H 576.06 2.86919 -3.32527 0
M  V30 6260 H 576.666 1.3536 -4.03185 0
M  V30 6261 N 574.981 1.5647 0.188427 0
M  V30 6262 C 576.209 1.85131 0.923803 0
M  V30 6263 C 576.624 0.668537 1.76567 0
M  V30 6264 O 575.981 -0.362662 1.7886 0
M  V30 6265 C 576.032 3.12661 1.81453 0
M  V30 6266 O 575.753 4.26378 1.00665 0
M  V30 6267 C 577.254 3.54548 2.66103 0
M  V30 6268 H 574.474 0.614624 0.269218 0
M  V30 6269 H 577.018 2.03581 0.193671 0
M  V30 6270 H 575.173 2.96088 2.49821 0
M  V30 6271 H 575.587 4.99041 1.61425 0
M  V30 6272 H 577.061 4.4673 3.24247 0
M  V30 6273 H 577.538 2.77853 3.40139 0
M  V30 6274 H 578.144 3.73674 2.03096 0
M  V30 6275 N 576.459 -0.456382 1.50847 0
M  V30 6276 C 577.422 -1.53493 1.70213 0
M  V30 6277 C 578.422 -1.50264 0.572481 0
M  V30 6278 O 579.612 -1.52623 0.839751 0
M  V30 6279 C 576.744 -2.93091 1.741 0
M  V30 6280 H 577.937 -1.37633 2.66453 0
M  V30 6281 H 575.49 -0.683776 1.4055 0
M  V30 6282 H 576.225 -3.14378 0.796063 0
M  V30 6283 H 576.01 -2.9684 2.5618 0
M  V30 6284 H 577.5 -3.71368 1.90987 0
M  V30 6285 N 577.937 -1.40673 -0.710563 0
M  V30 6286 C 579.165 -1.42547 -1.4996 0
M  V30 6287 C 579.58 -0.0265485 -1.88781 0
M  V30 6288 O 578.937 0.950694 -1.55782 0
M  V30 6289 C 578.988 -2.32071 -2.77173 0
M  V30 6290 O 578.709 -3.66518 -2.39992 0
M  V30 6291 C 580.21 -2.42591 -3.71032 0
M  V30 6292 H 577.43 -0.486025 -0.462623 0
M  V30 6293 H 579.974 -1.84783 -0.876102 0
M  V30 6294 H 578.129 -1.93184 -3.35795 0
M  V30 6295 H 578.543 -4.14115 -3.21884 0
M  V30 6296 H 580.017 -3.09429 -4.57119 0
M  V30 6297 H 580.494 -1.4525 -4.14486 0
M  V30 6298 H 581.1 -2.82051 -3.18319 0
M  V30 6299 N 579.415 0.9433 -1.26252 0
M  V30 6300 C 580.378 2.02326 -1.07689 0
M  V30 6301 C 581.378 1.60779 -0.0259174 0
M  V30 6302 O 582.568 1.72108 -0.269134 0
M  V30 6303 C 579.7 3.34886 -0.63752 0
M  V30 6304 H 580.893 2.20225 -2.0357 0
M  V30 6305 H 578.446 1.12197 -1.08819 0
M  V30 6306 H 579.181 3.22684 0.323377 0
M  V30 6307 H 578.966 3.66393 -1.39637 0
M  V30 6308 H 580.456 4.14231 -0.529418 0
M  V30 6309 N 580.893 1.08022 1.14757 0
M  V30 6310 C 582.142 0.802468 1.8505 0
M  V30 6311 C 582.455 -0.674061 1.83619 0
M  V30 6312 O 583.661 -1.06683 2.49662 0
M  V30 6313 C 582.117 1.38551 3.32162 0
M  V30 6314 C 581.725 2.89354 3.42021 0
M  V30 6315 C 583.469 1.18608 4.07594 0
M  V30 6316 C 581.376 3.40815 4.83321 0
M  V30 6317 H 580.306 0.296518 0.693248 0
M  V30 6318 H 582.957 1.30114 1.29393 0
M  V30 6319 H 581.339 0.814556 3.87532 0
M  V30 6320 H 582.513 3.52552 2.96722 0
M  V30 6321 H 580.828 3.08165 2.80041 0
M  V30 6322 H 583.425 1.54525 5.11885 0
M  V30 6323 H 583.768 0.125599 4.1611 0
M  V30 6324 H 584.301 1.72375 3.58513 0
M  V30 6325 H 581.04 4.46418 4.79991 0
M  V30 6326 H 580.56 2.82374 5.29174 0
M  V30 6327 H 582.239 3.37171 5.522 0
M  V30 6328 N 582.371 -1.3172 0.865308 0
M  V30 6329 C 583.301 -2.31109 0.333302 0
M  V30 6330 C 584.282 -1.60148 -0.573301 0
M  V30 6331 O 585.467 -1.87882 -0.491305 0
M  V30 6332 C 582.597 -3.44104 -0.470078 0
M  V30 6333 C 581.551 -4.26623 0.343021 0
M  V30 6334 C 580.877 -5.31482 -0.585756 0
M  V30 6335 C 582.177 -4.98001 1.57456 0
M  V30 6336 H 583.871 -2.75855 1.1638 0
M  V30 6337 H 581.417 -1.3262 0.561069 0
M  V30 6338 H 583.37 -4.12682 -0.852752 0
M  V30 6339 H 582.094 -2.98112 -1.33404 0
M  V30 6340 H 580.753 -3.59707 0.707583 0
M  V30 6341 H 580.401 -4.81741 -1.44686 0
M  V30 6342 H 580.101 -5.87582 -0.0456494 0
M  V30 6343 H 581.625 -6.0292 -0.965375 0
M  V30 6344 H 583.039 -5.59201 1.26359 0
M  V30 6345 H 581.436 -5.63876 2.05339 0
M  V30 6346 H 582.506 -4.25253 2.32997 0
M  V30 6347 N 583.85 -0.624285 -1.44708 0
M  V30 6348 C 585.09 -0.129273 -2.03991 0
M  V30 6349 C 585.454 1.22321 -1.47992 0
M  V30 6350 O 586.654 1.80993 -1.98734 0
M  V30 6351 C 584.926 -0.108231 -3.57236 0
M  V30 6352 S 586.485 0.323158 -4.37608 0
M  V30 6353 H 583.303 -0.0577318 -0.708652 0
M  V30 6354 H 585.904 -0.826139 -1.77187 0
M  V30 6355 H 584.609 -1.0958 -3.955 0
M  V30 6356 H 584.139 0.610101 -3.8864 0
M  V30 6357 H 586.154 1.56894 -4.70743 0
M  V30 6358 N 585.328 1.53329 -0.364422 0
M  V30 6359 C 586.553 2.06132 0.229033 0
M  V30 6360 C 586.978 1.23625 1.41769 0
M  V30 6361 O 586.336 0.255038 1.79497 0
M  V30 6362 C 586.384 3.55544 0.60174 0
M  V30 6363 O 585.488 3.75771 1.69912 0
M  V30 6364 H 584.829 0.663148 0.0336213 0
M  V30 6365 H 587.359 1.97758 -0.524689 0
M  V30 6366 H 587.369 3.98549 0.873073 0
M  V30 6367 H 586.044 4.15039 -0.267421 0
M  V30 6368 H 584.621 3.44663 1.42343 0
M  V30 6369 N 586.806 0.0935595 1.57322 0
M  V30 6370 C 588.083 -0.612692 1.85756 0
M  V30 6371 C 588.463 -1.86439 0.99013 0
M  V30 6372 O 587.811 -2.28416 0.0621362 0
M  V30 6373 C 588.021 -0.929547 3.36393 0
M  V30 6374 C 589.369 -1.29366 4.04413 0
M  V30 6375 O 590.393 -1.02061 3.41265 0
M  V30 6376 O 589.252 -1.80498 5.15832 0
M  V30 6377 H 586.346 -0.306444 0.768128 0
M  V30 6378 H 588.892 0.126141 1.69231 0
M  V30 6379 H 587.664 -0.0414766 3.91278 0
M  V30 6380 H 587.287 -1.72441 3.5826 0
M  V30 6381 N 588.284 -1.56567 -0.180126 0
M  V30 6382 C 589.194 -1.98947 -1.24327 0
M  V30 6383 C 590.21 -0.899446 -1.4895 0
M  V30 6384 O 591.386 -1.20639 -1.61271 0
M  V30 6385 C 588.451 -2.33328 -2.56435 0
M  V30 6386 C 587.512 -3.56114 -2.39752 0
M  V30 6387 C 586.745 -3.88845 -3.65561 0
M  V30 6388 O 586.968 -3.22662 -4.70368 0
M  V30 6389 O 585.902 -4.82226 -3.60197 0
M  V30 6390 H 589.728 -2.89634 -0.913565 0
M  V30 6391 H 587.313 -1.44319 -0.386306 0
M  V30 6392 H 589.195 -2.5645 -3.34382 0
M  V30 6393 H 587.87 -1.45806 -2.89002 0
M  V30 6394 H 586.777 -3.38221 -1.59866 0
M  V30 6395 H 588.11 -4.4415 -2.12113 0
M  V30 6396 N 589.762 0.448376 -1.51087 0
M  V30 6397 C 590.99 1.22143 -1.66999 0
M  V30 6398 C 591.405 1.85283 -0.362699 0
M  V30 6399 O 590.762 1.70236 0.65772 0
M  V30 6400 C 590.813 2.31357 -2.7777 0
M  V30 6401 O 590.534 1.70801 -4.03434 0
M  V30 6402 C 592.035 3.21836 -3.04855 0
M  V30 6403 H 589.255 0.368558 -0.560719 0
M  V30 6404 H 591.799 0.532618 -1.97442 0
M  V30 6405 H 589.954 2.95973 -2.49958 0
M  V30 6406 H 590.368 2.42895 -4.64868 0
M  V30 6407 H 591.842 3.94627 -3.85971 0
M  V30 6408 H 592.319 3.81949 -2.16821 0
M  V30 6409 H 592.925 2.62933 -3.34285 0
M  V30 6410 N 591.24 1.41047 0.703093 0
M  V30 6411 C 592.489 1.39301 1.4587 0
M  V30 6412 C 592.802 0.00267077 1.956 0
M  V30 6413 O 594.008 -0.137414 2.71152 0
M  V30 6414 C 592.464 2.44891 2.63735 0
M  V30 6415 C 592.072 3.89796 2.20824 0
M  V30 6416 C 593.816 2.5227 3.41409 0
M  V30 6417 C 591.723 4.86955 3.35602 0
M  V30 6418 H 590.653 0.518005 0.547893 0
M  V30 6419 H 593.304 1.66839 0.764009 0
M  V30 6420 H 591.686 2.10472 3.35436 0
M  V30 6421 H 592.86 4.33424 1.56461 0
M  V30 6422 H 591.175 3.86008 1.56163 0
M  V30 6423 H 593.772 3.22044 4.26839 0
M  V30 6424 H 594.115 1.55714 3.86081 0
M  V30 6425 H 594.648 2.85742 2.7676 0
M  V30 6426 H 591.387 5.84888 2.9595 0
M  V30 6427 H 590.907 4.47982 3.98839 0
M  V30 6428 H 592.586 5.07361 4.01489 0
M  V30 6429 N 592.718 -0.936591 1.26751 0
M  V30 6430 C 593.964 -1.68625 1.13741 0
M  V30 6431 C 594.319 -1.898 -0.315221 0
M  V30 6432 O 593.612 -1.47088 -1.22783 0
M  V30 6433 C 593.806 -3.06099 1.84494 0
M  V30 6434 C 593.635 -2.98338 3.36488 0
M  V30 6435 C 592.405 -3.01104 4.05789 0
M  V30 6436 C 594.603 -2.78128 4.32608 0
M  V30 6437 N 592.585 -2.8369 5.4442 0
M  V30 6438 C 593.956 -2.69329 5.58446 0
M  V30 6439 C 596.011 -2.62946 4.22804 0
M  V30 6440 C 594.714 -2.46899 6.75598 0
M  V30 6441 C 596.74 -2.41892 5.39669 0
M  V30 6442 C 596.102 -2.33829 6.64457 0
M  V30 6443 H 592.201 -0.624227 0.471025 0
M  V30 6444 H 594.785 -1.10798 1.601 0
M  V30 6445 H 592.956 -3.62057 1.40604 0
M  V30 6446 H 594.688 -3.69951 1.64067 0
M  V30 6447 H 591.443 -3.10992 3.57185 0
M  V30 6448 H 591.867 -2.78138 6.17226 0
M  V30 6449 H 596.509 -2.67944 3.27056 0
M  V30 6450 H 594.227 -2.40642 7.71438 0
M  V30 6451 H 597.813 -2.31043 5.33957 0
M  V30 6452 H 596.693 -2.17754 7.53361 0
M  V30 6453 N 594.196 -1.08629 -1.14182 0
M  V30 6454 C 595.126 -0.740003 -2.21464 0
M  V30 6455 C 596.107 0.278591 -1.67803 0
M  V30 6456 O 597.292 0.148461 -1.93632 0
M  V30 6457 C 594.422 -0.150952 -3.46972 0
M  V30 6458 C 593.376 -1.09815 -4.13672 0
M  V30 6459 C 592.702 -0.3712 -5.3341 0
M  V30 6460 C 594.002 -2.43722 -4.61949 0
M  V30 6461 H 595.696 -1.63697 -2.50686 0
M  V30 6462 H 593.242 -0.788526 -1.20492 0
M  V30 6463 H 595.195 0.103325 -4.21273 0
M  V30 6464 H 593.919 0.781164 -3.1712 0
M  V30 6465 H 592.578 -1.33756 -3.41328 0
M  V30 6466 H 592.226 0.564792 -4.99819 0
M  V30 6467 H 591.926 -1.00267 -5.78982 0
M  V30 6468 H 593.45 -0.12503 -6.10472 0
M  V30 6469 H 594.864 -2.24034 -5.27714 0
M  V30 6470 H 593.261 -3.02582 -5.18232 0
M  V30 6471 H 594.331 -3.05082 -3.76899 0
M  V30 6472 N 595.674 1.31259 -0.872281 0
M  V30 6473 C 596.584 2.32221 -0.333255 0
M  V30 6474 C 597.6 1.6481 0.558013 0
M  V30 6475 O 598.776 1.96212 0.454175 0
M  V30 6476 C 595.841 3.43708 0.454479 0
M  V30 6477 C 594.902 4.26774 -0.465024 0
M  V30 6478 C 594.135 5.32937 0.28521 0
M  V30 6479 O 594.358 5.49968 1.513 0
M  V30 6480 O 593.292 6.00834 -0.358126 0
M  V30 6481 H 597.118 2.80252 -1.17016 0
M  V30 6482 H 594.703 1.352 -0.635724 0
M  V30 6483 H 596.585 4.11656 0.900963 0
M  V30 6484 H 595.26 2.97836 1.26789 0
M  V30 6485 H 594.167 3.61571 -0.960055 0
M  V30 6486 H 595.5 4.76217 -1.2441 0
M  V30 6487 N 597.152 0.631951 1.44375 0
M  V30 6488 C 598.563 0.219036 1.85411 0
M  V30 6489 C 598.914 -1.22974 1.52879 0
M  V30 6490 O 598.039 -1.93579 0.967266 0
M  V30 6491 C 598.634 0.39075 3.36539 0
M  V30 6492 C 597.193 0.0323351 3.76386 0
M  V30 6493 C 596.34 0.703744 2.68221 0
M  V30 6494 H 599.291 0.837056 1.3483 0
M  V30 6495 H 599.312 -0.370056 3.78696 0
M  V30 6496 H 598.824 1.44527 3.60185 0
M  V30 6497 H 596.925 -1.02042 3.58355 0
M  V30 6498 H 597.038 0.442969 4.77048 0
M  V30 6499 H 595.402 0.138974 2.54321 0
M  V30 6500 H 596.185 1.76088 2.947 0
M  V30 6501 N 598.631 -1.53133 0.372548 0
M  V30 6502 C 599.541 -2.29671 -0.478379 0
M  V30 6503 C 600.557 -1.35913 -1.08644 0
M  V30 6504 O 601.733 -1.68975 -1.09588 0
M  V30 6505 C 598.798 -3.07625 -1.599 0
M  V30 6506 C 597.859 -4.17061 -1.01776 0
M  V30 6507 C 597.092 -4.91289 -2.08497 0
M  V30 6508 O 597.315 -4.65442 -3.29727 0
M  V30 6509 O 596.249 -5.7705 -1.71164 0
M  V30 6510 H 600.075 -3.03355 0.144649 0
M  V30 6511 H 597.66 -1.48773 0.136729 0
M  V30 6512 H 599.542 -3.56281 -2.25038 0
M  V30 6513 H 598.217 -2.3677 -2.2073 0
M  V30 6514 H 597.124 -3.72641 -0.330098 0
M  V30 6515 H 598.457 -4.90102 -0.453915 0
M  V30 6516 N 600.109 -0.101901 -1.5727 0
M  V30 6517 C 601.355 0.561027 -1.94885 0
M  V30 6518 C 601.688 1.6741 -0.984258 0
M  V30 6519 O 600.963 1.94491 -0.0184767 0
M  V30 6520 C 601.246 1.10982 -3.42571 0
M  V30 6521 C 601.099 0.00133418 -4.498 0
M  V30 6522 C 602.418 2.00608 -3.9172 0
M  V30 6523 H 599.537 0.202467 -0.708644 0
M  V30 6524 H 602.179 -0.173992 -1.89202 0
M  V30 6525 H 600.329 1.73621 -3.47546 0
M  V30 6526 H 602.001 -0.63322 -4.56933 0
M  V30 6527 H 600.244 -0.664143 -4.28686 0
M  V30 6528 H 600.915 0.426253 -5.50352 0
M  V30 6529 H 603.391 1.47864 -3.88941 0
M  V30 6530 H 602.267 2.3593 -4.95609 0
M  V30 6531 H 602.528 2.92608 -3.3141 0
M  V30 6532 N 601.587 1.56661 0.17182 0
M  V30 6533 C 602.517 1.99401 1.21498 0
M  V30 6534 C 603.498 0.869516 1.46197 0
M  V30 6535 O 604.683 1.13556 1.57539 0
M  V30 6536 C 601.813 2.35346 2.55401 0
M  V30 6537 C 600.767 3.5075 2.45272 0
M  V30 6538 C 600.093 3.72437 3.8366 0
M  V30 6539 C 601.393 4.84216 1.95787 0
M  V30 6540 H 603.087 2.86792 0.859699 0
M  V30 6541 H 600.633 1.37977 0.412103 0
M  V30 6542 H 602.586 2.63843 3.2858 0
M  V30 6543 H 601.31 1.44864 2.92715 0
M  V30 6544 H 599.969 3.2238 1.74547 0
M  V30 6545 H 599.617 2.79246 4.18367 0
M  V30 6546 H 599.317 4.50087 3.77751 0
M  V30 6547 H 600.841 4.03334 4.58426 0
M  V30 6548 H 602.255 5.11592 2.5874 0
M  V30 6549 H 600.652 5.65498 2.00827 0
M  V30 6550 H 601.722 4.76243 0.912159 0
M  V30 6551 N 603.065 -0.440357 1.51323 0
M  V30 6552 C 604.312 -1.19004 1.63842 0
M  V30 6553 C 604.64 -1.91266 0.35321 0
M  V30 6554 O 603.895 -1.84143 -0.662565 0
M  V30 6555 C 604.194 -2.2339 2.78984 0
M  V30 6556 C 603.86 -1.68162 4.18369 0
M  V30 6557 C 602.522 -1.52823 4.56288 0
M  V30 6558 C 604.874 -1.27524 5.05358 0
M  V30 6559 C 602.202 -0.953157 5.78906 0
M  V30 6560 C 604.554 -0.714474 6.28552 0
M  V30 6561 C 603.218 -0.547961 6.65247 0
M  V30 6562 H 602.488 -0.435468 0.59954 0
M  V30 6563 H 605.135 -0.481538 1.85347 0
M  V30 6564 H 603.44 -3.00267 2.51688 0
M  V30 6565 H 605.137 -2.81211 2.85869 0
M  V30 6566 H 601.727 -1.81077 3.8847 0
M  V30 6567 H 605.911 -1.38197 4.76671 0
M  V30 6568 H 601.167 -0.811882 6.05986 0
M  V30 6569 H 605.341 -0.391059 6.95301 0
M  V30 6570 H 602.968 -0.100222 7.60134 0
M  V30 6571 N 604.543 -1.41418 -0.695603 0
M  V30 6572 C 605.768 -1.44329 -1.48942 0
M  V30 6573 C 606.193 -0.0501579 -1.88033 0
M  V30 6574 O 605.551 0.946598 -1.54626 0
M  V30 6575 C 605.599 -2.3578 -2.72837 0
M  V30 6576 O 604.703 -1.81482 -3.70322 0
M  V30 6577 H 604.044 -0.489838 -0.44828 0
M  V30 6578 H 606.574 -1.85878 -0.855014 0
M  V30 6579 H 606.584 -2.51654 -3.21145 0
M  V30 6580 H 605.259 -3.37005 -2.43722 0
M  V30 6581 H 603.836 -1.75058 -3.29255 0
M  V30 6582 N 606.021 0.929856 -1.27246 0
M  V30 6583 C 607.269 1.674 -1.13233 0
M  V30 6584 C 607.59 1.92311 0.322744 0
M  V30 6585 O 606.86 1.52784 1.22612 0
M  V30 6586 H 605.44 0.620411 -0.416052 0
M  V30 6587 H 608.102 1.11663 -1.59741 0
M  V30 6588 H 607.198 2.64308 -1.65975 0
M  V30 6589 N 607.499 1.09233 1.13605 0
M  V30 6590 C 608.91 0.846839 1.6639 0
M  V30 6591 C 609.261 -0.625031 1.85978 0
M  V30 6592 O 608.386 -1.48173 1.57714 0
M  V30 6593 C 608.981 1.5307 3.0225 0
M  V30 6594 C 607.54 1.33223 3.52035 0
M  V30 6595 C 606.687 1.58806 2.27323 0
M  V30 6596 H 609.638 1.25175 0.975541 0
M  V30 6597 H 609.659 0.96267 3.68121 0
M  V30 6598 H 609.171 2.60192 2.87961 0
M  V30 6599 H 607.272 0.282091 3.71531 0
M  V30 6600 H 607.385 2.0657 4.32279 0
M  V30 6601 H 605.749 1.01007 2.33815 0
M  V30 6602 H 606.532 2.67153 2.15602 0
M  V30 6603 N 608.977 -1.30795 0.87923 0
M  V30 6604 C 610.393 -1.48981 0.57243 0
M  V30 6605 C 610.593 -1.80719 -0.891236 0
M  V30 6606 O 609.649 -1.89136 -1.67283 0
M  V30 6607 C 610.962 -2.61721 1.48063 0
M  V30 6608 C 612.51 -2.75603 1.48365 0
M  V30 6609 C 612.985 -3.91449 2.37763 0
M  V30 6610 N 614.476 -3.98751 2.35695 0
M  V30 6611 C 615.211 -4.87684 3.01583 0
M  V30 6612 N 614.707 -5.81454 3.76674 0
M  V30 6613 N 616.5 -4.81005 2.90844 0
M  V30 6614 H 608.651 -1.08465 1.82617 0
M  V30 6615 H 610.914 -0.536813 0.781368 0
M  V30 6616 H 610.62 -2.45073 2.52254 0
M  V30 6617 H 610.494 -3.58071 1.18596 0
M  V30 6618 H 612.881 -2.9166 0.44927 0
M  V30 6619 H 612.962 -1.79891 1.81859 0
M  V30 6620 H 612.606 -3.76149 3.41283 0
M  V30 6621 H 612.536 -4.86487 2.01589 0
M  V30 6622 H 615.027 -3.31668 1.81121 0
M  V30 6623 H 615.34 -6.46063 4.24054 0
M  V30 6624 H 613.685 -5.81403 3.80782 0
M  V30 6625 H 616.876 -4.06728 2.31711 0
M  V30 6626 H 617.049 -5.50107 3.42471 0
M  V30 6627 N 610.455 -0.639598 -1.44038 0
M  V30 6628 C 611.387 0.0987684 -2.28987 0
M  V30 6629 C 612.4 0.80058 -1.41755 0
M  V30 6630 O 613.589 0.660611 -1.65826 0
M  V30 6631 C 610.689 1.16242 -3.18341 0
M  V30 6632 C 609.862 0.541447 -4.34036 0
M  V30 6633 C 608.921 1.50017 -5.04362 0
M  V30 6634 O 607.947 1.01403 -5.60095 0
M  V30 6635 N 609.149 2.83441 -5.06598 0
M  V30 6636 H 611.914 -0.630305 -2.92997 0
M  V30 6637 H 609.475 -0.481376 -1.54578 0
M  V30 6638 H 611.467 1.80429 -3.62253 0
M  V30 6639 H 610.037 1.79362 -2.56024 0
M  V30 6640 H 609.257 -0.27923 -3.9321 0
M  V30 6641 H 610.545 0.107379 -5.08687 0
M  V30 6642 H 609.943 3.2551 -4.62666 0
M  V30 6643 H 608.5 3.42966 -5.54272 0
M  V30 6644 N 611.933 1.52934 -0.380664 0
M  V30 6645 C 612.896 2.24809 0.446473 0
M  V30 6646 C 613.896 1.26133 0.997347 0
M  V30 6647 O 615.086 1.50297 0.880714 0
M  V30 6648 C 612.218 2.99649 1.62553 0
M  V30 6649 H 613.411 2.99343 -0.182677 0
M  V30 6650 H 610.964 1.55736 -0.132618 0
M  V30 6651 H 611.699 2.29395 2.29235 0
M  V30 6652 H 611.484 3.72066 1.23732 0
M  V30 6653 H 612.974 3.54246 2.21133 0
M  V30 6654 N 613.412 0.11024 1.57214 0
M  V30 6655 C 614.659 -0.54987 1.94891 0
M  V30 6656 C 614.987 -1.67243 0.992984 0
M  V30 6657 O 614.242 -1.95694 0.0152703 0
M  V30 6658 C 614.541 -1.13102 3.39032 0
M  V30 6659 C 614.207 -0.130713 4.5071 0
M  V30 6660 C 612.869 0.14437 4.80983 0
M  V30 6661 C 615.221 0.551472 5.18274 0
M  V30 6662 C 612.549 1.10807 5.76141 0
M  V30 6663 C 614.901 1.50375 6.14467 0
M  V30 6664 C 613.565 1.78691 6.43138 0
M  V30 6665 H 612.835 -0.201212 0.713158 0
M  V30 6666 H 615.482 0.189288 1.90562 0
M  V30 6667 H 613.787 -1.94675 3.40013 0
M  V30 6668 H 615.484 -1.64973 3.65493 0
M  V30 6669 H 612.074 -0.355301 4.27125 0
M  V30 6670 H 616.258 0.35211 4.95049 0
M  V30 6671 H 611.514 1.3343 5.96663 0
M  V30 6672 H 615.688 2.03808 6.65909 0
M  V30 6673 H 613.315 2.53522 7.1668 0
M  V30 6674 N 614.89 -1.56749 -0.16351 0
M  V30 6675 C 615.8 -2.00255 -1.2221 0
M  V30 6676 C 616.816 -0.915194 -1.47987 0
M  V30 6677 O 617.992 -1.22342 -1.59982 0
M  V30 6678 C 615.057 -2.36035 -2.53946 0
M  V30 6679 C 614.118 -3.58637 -2.35962 0
M  V30 6680 C 613.351 -3.92701 -3.61416 0
M  V30 6681 O 613.574 -3.27632 -4.66919 0
M  V30 6682 O 612.508 -4.86019 -3.55062 0
M  V30 6683 H 616.334 -2.90586 -0.882794 0
M  V30 6684 H 613.919 -1.44721 -0.370978 0
M  V30 6685 H 615.801 -2.59982 -3.31643 0
M  V30 6686 H 614.476 -1.48863 -2.8744 0
M  V30 6687 H 613.383 -3.39898 -1.5627 0
M  V30 6688 H 614.716 -4.46374 -2.0739 0
M  V30 6689 N 616.368 0.432326 -1.51554 0
M  V30 6690 C 617.615 1.18134 -1.64471 0
M  V30 6691 C 617.943 1.91076 -0.363349 0
M  V30 6692 O 617.198 1.84492 0.65279 0
M  V30 6693 C 617.497 2.21907 -2.80164 0
M  V30 6694 C 617.163 1.65941 -4.19255 0
M  V30 6695 C 615.825 1.50401 -4.57092 0
M  V30 6696 C 618.177 1.24843 -5.06027 0
M  V30 6697 C 615.505 0.922443 -5.79403 0
M  V30 6698 C 617.857 0.68113 -6.28922 0
M  V30 6699 C 616.521 0.512673 -6.65528 0
M  V30 6700 H 615.791 0.432283 -0.601841 0
M  V30 6701 H 618.438 0.471701 -1.856 0
M  V30 6702 H 616.743 2.98928 -2.53277 0
M  V30 6703 H 618.44 2.79691 -2.87357 0
M  V30 6704 H 615.03 1.79014 -3.89425 0
M  V30 6705 H 619.214 1.35667 -4.77397 0
M  V30 6706 H 614.47 0.779733 -6.06408 0
M  V30 6707 H 618.644 0.35418 -6.95499 0
M  V30 6708 H 616.271 0.0599084 -7.60176 0
M  V30 6709 N 617.846 1.41785 0.688094 0
M  V30 6710 C 619.257 1.3701 1.26828 0
M  V30 6711 C 619.608 0.056835 1.96118 0
M  V30 6712 O 618.733 -0.84475 1.99231 0
M  V30 6713 C 619.328 2.48168 2.30648 0
M  V30 6714 C 617.887 2.46766 2.84224 0
M  V30 6715 C 617.034 2.27633 1.58361 0
M  V30 6716 H 619.985 1.51192 0.482351 0
M  V30 6717 H 620.006 2.17655 3.121 0
M  V30 6718 H 619.518 3.43735 1.80188 0
M  V30 6719 H 617.619 1.54978 3.3884 0
M  V30 6720 H 617.732 3.43342 3.34145 0
M  V30 6721 H 616.096 1.75648 1.84445 0
M  V30 6722 H 616.879 3.25238 1.09887 0
M  V30 6723 N 619.324 -0.923095 1.27737 0
M  V30 6724 C 620.256 -2.02871 1.06658 0
M  V30 6725 C 621.269 -1.62786 0.0212095 0
M  V30 6726 O 622.458 -1.76548 0.263267 0
M  V30 6727 C 619.558 -3.33603 0.59682 0
M  V30 6728 C 618.731 -4.02354 1.71551 0
M  V30 6729 C 617.79 -5.11364 1.24071 0
M  V30 6730 O 616.816 -5.35075 1.94123 0
M  V30 6731 N 618.018 -5.80416 0.0988444 0
M  V30 6732 H 620.783 -2.21515 2.01869 0
M  V30 6733 H 618.344 -1.09378 1.19365 0
M  V30 6734 H 620.336 -4.03845 0.262984 0
M  V30 6735 H 618.906 -3.11499 -0.262187 0
M  V30 6736 H 618.126 -3.25786 2.2194 0
M  V30 6737 H 619.414 -4.45035 2.46619 0
M  V30 6738 H 618.812 -5.63611 -0.485743 0
M  V30 6739 H 617.369 -6.51563 -0.17578 0
M  V30 6740 N 620.802 -1.09834 -1.13024 0
M  V30 6741 C 622.051 -0.831806 -1.83749 0
M  V30 6742 C 622.364 0.644763 -1.84668 0
M  V30 6743 O 623.57 1.02697 -2.51327 0
M  V30 6744 C 622.026 -1.43817 -3.29916 0
M  V30 6745 C 621.634 -2.94759 -3.37374 0
M  V30 6746 C 623.378 -1.25077 -4.05655 0
M  V30 6747 C 621.285 -3.48461 -4.77838 0
M  V30 6748 H 620.215 -0.30751 -0.688443 0
M  V30 6749 H 622.866 -1.32156 -1.27307 0
M  V30 6750 H 621.248 -0.876106 -3.86187 0
M  V30 6751 H 622.422 -3.57228 -2.91076 0
M  V30 6752 H 620.737 -3.12581 -2.75103 0
M  V30 6753 H 623.334 -1.62649 -5.09362 0
M  V30 6754 H 623.677 -0.191782 -4.15858 0
M  V30 6755 H 624.21 -1.78057 -3.55725 0
M  V30 6756 H 620.949 -4.53998 -4.72828 0
M  V30 6757 H 620.469 -2.90757 -5.24615 0
M  V30 6758 H 622.148 -3.45914 -5.46766 0
M  V30 6759 N 622.28 1.30327 -0.886154 0
M  V30 6760 C 623.228 2.30052 -0.343317 0
M  V30 6761 C 624.222 1.60212 0.550305 0
M  V30 6762 O 625.428 1.74674 0.434609 0
M  V30 6763 H 621.803 0.746306 -0.0923681 0
M  V30 6764 H 623.774 2.73294 -1.19804 0
M  V30 6765 C 622.523 3.45079 0.426107 0
M  V30 6766 H 621.846 3.99003 -0.25227 0
M  V30 6767 H 623.286 4.16931 0.771009 0
M  V30 6768 C 621.745 2.95195 1.62363 0
M  V30 6769 O 622.275 2.95323 2.723 0
M  V30 6770 N 620.481 2.51192 1.4612 0
M  V30 6771 H 620.028 2.51286 0.566832 0
M  V30 6772 H 619.986 2.18173 2.2638 0
M  V30 6773 N 623.758 0.647228 1.43697 0
M  V30 6774 C 624.988 0.16551 2.05936 0
M  V30 6775 C 625.396 -1.17164 1.48557 0
M  V30 6776 O 624.739 -1.73307 0.60914 0
M  V30 6777 C 624.801 -0.00648082 3.59499 0
M  V30 6778 C 624.465 1.25503 4.39429 0
M  V30 6779 C 625.462 2.18241 4.71876 0
M  V30 6780 C 623.147 1.49494 4.79538 0
M  V30 6781 C 625.141 3.33268 5.43333 0
M  V30 6782 C 622.828 2.64815 5.50742 0
M  V30 6783 C 623.826 3.56528 5.82561 0
M  V30 6784 O 623.514 4.69836 6.52311 0
M  V30 6785 H 623.246 0.0844124 0.670709 0
M  V30 6786 H 625.8 0.88638 1.8529 0
M  V30 6787 H 624.03 -0.782661 3.78697 0
M  V30 6788 H 625.719 -0.444794 4.03456 0
M  V30 6789 H 626.485 2.00946 4.41413 0
M  V30 6790 H 622.364 0.789912 4.54182 0
M  V30 6791 H 625.908 4.04874 5.68087 0
M  V30 6792 H 621.805 2.82047 5.8062 0
M  V30 6793 H 622.573 4.69024 6.70789 0
M  V30 6794 N 625.236 -1.5273 0.388769 0
M  V30 6795 C 626.168 -2.24081 -0.481704 0
M  V30 6796 C 627.181 -1.26307 -1.02715 0
M  V30 6797 O 628.37 -1.52386 -0.929565 0
M  V30 6798 C 625.47 -2.94315 -1.68024 0
M  V30 6799 C 624.643 -4.18791 -1.26226 0
M  V30 6800 C 623.702 -4.72028 -2.32542 0
M  V30 6801 O 622.728 -5.35129 -1.93972 0
M  V30 6802 N 623.93 -4.51838 -3.64448 0
M  V30 6803 H 626.695 -2.9942 0.129591 0
M  V30 6804 H 624.256 -1.60465 0.2151 0
M  V30 6805 H 626.248 -3.26831 -2.38671 0
M  V30 6806 H 624.818 -2.22287 -2.19789 0
M  V30 6807 H 624.038 -3.92318 -0.384703 0
M  V30 6808 H 625.326 -4.99668 -0.959647 0
M  V30 6809 H 624.724 -4.01468 -3.98547 0
M  V30 6810 H 623.281 -4.88845 -4.31131 0
M  V30 6811 N 626.714 -0.118576 -1.57153 0
M  V30 6812 C 627.661 0.831789 -2.1529 0
M  V30 6813 C 628.631 1.26385 -1.07778 0
M  V30 6814 O 629.816 1.34144 -1.35684 0
M  V30 6815 C 626.956 2.07664 -2.75626 0
M  V30 6816 C 626.069 1.69298 -3.97444 0
M  V30 6817 C 625.204 2.88747 -4.45868 0
M  V30 6818 C 624.243 2.46619 -5.60219 0
M  V30 6819 N 623.38 3.5898 -6.03389 0
M  V30 6820 H 628.22 0.329183 -2.96176 0
M  V30 6821 H 625.757 0.150792 -1.46325 0
M  V30 6822 H 627.715 2.80601 -3.08738 0
M  V30 6823 H 626.345 2.55384 -1.97431 0
M  V30 6824 H 625.397 0.862374 -3.70496 0
M  V30 6825 H 626.709 1.34338 -4.80369 0
M  V30 6826 H 625.863 3.69909 -4.80887 0
M  V30 6827 H 624.602 3.26933 -3.61892 0
M  V30 6828 H 623.607 1.63889 -5.24805 0
M  V30 6829 H 624.832 2.0955 -6.45961 0
M  V30 6830 H 622.778 3.9684 -5.22354 0
M  V30 6831 H 622.695 3.27942 -6.81168 0
M  V30 6832 H 623.963 4.40583 -6.43045 0
M  V30 6833 N 628.193 1.56834 0.155195 0
M  V30 6834 C 629.423 1.86778 0.883044 0
M  V30 6835 C 629.831 0.703824 1.75622 0
M  V30 6836 O 629.174 -0.33581 1.80605 0
M  V30 6837 C 629.236 3.1133 1.79761 0
M  V30 6838 C 628.9 4.43504 1.10242 0
M  V30 6839 C 629.897 5.17859 0.460204 0
M  V30 6840 C 627.582 4.90233 1.09437 0
M  V30 6841 C 629.576 6.37144 -0.180782 0
M  V30 6842 C 627.263 6.09444 0.449569 0
M  V30 6843 C 628.261 6.82744 -0.186888 0
M  V30 6844 O 627.949 7.99692 -0.821486 0
M  V30 6845 H 627.681 0.62352 0.261149 0
M  V30 6846 H 630.235 2.04813 0.155204 0
M  V30 6847 H 628.465 2.89282 2.56618 0
M  V30 6848 H 630.154 3.27587 2.39669 0
M  V30 6849 H 630.92 4.8283 0.458289 0
M  V30 6850 H 626.799 4.33109 1.57917 0
M  V30 6851 H 630.343 6.94296 -0.678154 0
M  V30 6852 H 626.24 6.43936 0.449123 0
M  V30 6853 H 627.008 8.15306 -0.722337 0
M  V30 6854 N 629.671 -0.424282 1.51781 0
M  V30 6855 C 630.911 -1.18194 1.66762 0
M  V30 6856 C 631.275 -1.88164 0.381857 0
M  V30 6857 O 632.476 -2.65692 0.407586 0
M  V30 6858 C 630.747 -2.16173 2.84612 0
M  V30 6859 S 632.306 -3.0025 3.19993 0
M  V30 6860 H 629.124 -0.400626 0.587384 0
M  V30 6861 H 631.726 -0.471499 1.89729 0
M  V30 6862 H 630.43 -1.6343 3.76455 0
M  V30 6863 H 629.961 -2.91778 2.63873 0
M  V30 6864 H 631.976 -4.1796 2.67439 0
M  V30 6865 N 631.149 -1.42148 -0.680565 0
M  V30 6866 C 632.397 -1.42029 -1.43779 0
M  V30 6867 C 632.718 -0.0356347 -1.94967 0
M  V30 6868 O 631.988 0.924936 -1.7269 0
M  V30 6869 H 630.568 -0.522835 -0.533529 0
M  V30 6870 H 633.23 -1.7752 -0.804538 0
M  V30 6871 H 632.326 -2.11658 -2.29363 0
M  V30 6872 N 632.627 0.916307 -1.28225 0
M  V30 6873 C 633.574 2.01841 -1.11932 0
M  V30 6874 C 634.544 1.66091 -0.0171604 0
M  V30 6875 O 635.729 1.89934 -0.181617 0
M  V30 6876 C 632.869 3.36065 -0.784504 0
M  V30 6877 C 631.982 3.847 -1.96544 0
M  V30 6878 C 631.117 5.07423 -1.57149 0
M  V30 6879 C 630.156 5.48384 -2.71922 0
M  V30 6880 N 629.293 6.62298 -2.33037 0
M  V30 6881 H 634.133 2.1511 -2.06232 0
M  V30 6882 H 631.67 1.05366 -1.02647 0
M  V30 6883 H 633.628 4.13272 -0.571148 0
M  V30 6884 H 632.258 3.22571 0.121565 0
M  V30 6885 H 631.31 3.03673 -2.291 0
M  V30 6886 H 632.622 4.1102 -2.82603 0
M  V30 6887 H 631.776 5.92165 -1.32004 0
M  V30 6888 H 630.515 4.82906 -0.682153 0
M  V30 6889 H 629.52 4.62184 -2.97768 0
M  V30 6890 H 630.745 5.7489 -3.61494 0
M  V30 6891 H 628.691 6.39416 -1.4657 0
M  V30 6892 H 628.608 6.8833 -3.12631 0
M  V30 6893 H 629.876 7.50352 -2.11169 0
M  V30 6894 N 634.105 1.10431 1.1244 0
M  V30 6895 C 635.516 0.864439 1.65482 0
M  V30 6896 C 635.867 -0.60527 1.8663 0
M  V30 6897 O 634.992 -1.46492 1.59276 0
M  V30 6898 C 635.587 1.56267 3.0061 0
M  V30 6899 C 634.146 1.3695 3.50602 0
M  V30 6900 C 633.293 1.61209 2.25626 0
M  V30 6901 H 636.244 1.26203 0.962209 0
M  V30 6902 H 636.265 1.00166 3.67079 0
M  V30 6903 H 635.777 2.63231 2.85186 0
M  V30 6904 H 633.878 0.321481 3.71211 0
M  V30 6905 H 633.991 2.11143 4.30064 0
M  V30 6906 H 632.355 1.03482 2.32731 0
M  V30 6907 H 633.138 2.69425 2.12756 0
M  V30 6908 N 635.583 -1.29855 0.893053 0
M  V30 6909 C 636.813 -1.99686 0.530019 0
M  V30 6910 C 637.221 -1.67066 -0.888012 0
M  V30 6911 O 636.564 -0.908366 -1.5967 0
M  V30 6912 C 636.626 -3.53855 0.63457 0
M  V30 6913 C 636.29 -4.10013 2.01837 0
M  V30 6914 C 637.287 -4.25406 2.98874 0
M  V30 6915 C 634.972 -4.45202 2.32595 0
M  V30 6916 C 636.966 -4.7521 4.24799 0
M  V30 6917 C 634.653 -4.94704 3.58763 0
M  V30 6918 C 635.651 -5.09662 4.5468 0
M  V30 6919 O 635.339 -5.58093 5.78608 0
M  V30 6920 H 635.071 -0.644913 0.20264 0
M  V30 6921 H 637.625 -1.66518 1.20253 0
M  V30 6922 H 635.855 -3.86583 -0.0949477 0
M  V30 6923 H 637.544 -4.04922 0.281648 0
M  V30 6924 H 638.31 -3.98515 2.76425 0
M  V30 6925 H 634.189 -4.32822 1.58701 0
M  V30 6926 H 637.733 -4.86801 4.99671 0
M  V30 6927 H 633.63 -5.21032 3.81046 0
M  V30 6928 H 634.398 -5.7642 5.81104 0
M  V30 6929 N 637.061 -0.65484 -1.43351 0
M  V30 6930 C 638.289 -0.176685 -2.06144 0
M  V30 6931 C 638.704 1.15831 -1.49093 0
M  V30 6932 O 638.061 1.71542 -0.622868 0
M  V30 6933 C 638.112 -0.0813326 -3.61408 0
M  V30 6934 O 637.833 -1.36355 -4.1634 0
M  V30 6935 C 639.334 0.422706 -4.4128 0
M  V30 6936 H 636.554 -0.0906429 -0.66485 0
M  V30 6937 H 639.098 -0.895945 -1.83829 0
M  V30 6938 H 637.253 0.588496 -3.82904 0
M  V30 6939 H 637.667 -1.22381 -5.10023 0
M  V30 6940 H 639.141 0.438375 -5.50257 0
M  V30 6941 H 639.618 1.45432 -4.14423 0
M  V30 6942 H 640.224 -0.214687 -4.24758 0
M  V30 6943 N 638.539 1.52521 -0.396863 0
M  V30 6944 C 639.769 2.05792 0.182485 0
M  V30 6945 C 640.177 1.26784 1.40436 0
M  V30 6946 O 639.52 0.309617 1.81072 0
M  V30 6947 C 639.582 3.54291 0.609781 0
M  V30 6948 C 639.246 4.5426 -0.499674 0
M  V30 6949 C 640.243 5.01812 -1.35944 0
M  V30 6950 C 637.928 4.97827 -0.668864 0
M  V30 6951 C 639.922 5.91562 -2.37346 0
M  V30 6952 C 637.609 5.87376 -1.68621 0
M  V30 6953 C 638.607 6.34137 -2.53692 0
M  V30 6954 O 638.295 7.21915 -3.53686 0
M  V30 6955 H 638.027 0.675362 0.0293583 0
M  V30 6956 H 640.581 1.97539 -0.56281 0
M  V30 6957 H 638.811 3.60188 1.40717 0
M  V30 6958 H 640.5 3.90267 1.11565 0
M  V30 6959 H 641.266 4.68879 -1.24008 0
M  V30 6960 H 637.145 4.60997 -0.0163971 0
M  V30 6961 H 640.689 6.27983 -3.03782 0
M  V30 6962 H 636.586 6.19723 -1.80593 0
M  V30 6963 H 637.354 7.39996 -3.49784 0
M  V30 6964 N 640.017 0.126909 1.57088 0
M  V30 6965 C 640.98 -0.806097 2.14557 0
M  V30 6966 C 641.98 -1.18918 1.08236 0
M  V30 6967 O 643.17 -1.11339 1.33975 0
M  V30 6968 C 640.302 -2.09116 2.69227 0
M  V30 6969 H 641.495 -0.306522 2.98329 0
M  V30 6970 H 639.048 -0.122393 1.5582 0
M  V30 6971 H 639.783 -2.63486 1.89065 0
M  V30 6972 H 639.568 -1.82588 3.46993 0
M  V30 6973 H 641.058 -2.75794 3.13572 0
M  V30 6974 N 641.495 -1.56914 -0.146875 0
M  V30 6975 C 642.725 -1.87243 -0.873126 0
M  V30 6976 C 643.133 -0.713127 -1.75246 0
M  V30 6977 O 642.476 0.326228 -1.8078 0
M  V30 6978 C 642.538 -3.12279 -1.78107 0
M  V30 6979 C 642.202 -4.44082 -1.07889 0
M  V30 6980 C 643.199 -5.18096 -0.432734 0
M  V30 6981 C 640.884 -4.90807 -1.06836 0
M  V30 6982 C 642.878 -6.37039 0.214569 0
M  V30 6983 C 640.565 -6.09674 -0.417243 0
M  V30 6984 C 641.563 -6.82636 0.223093 0
M  V30 6985 O 641.251 -7.99245 0.863884 0
M  V30 6986 H 640.983 -0.624896 -0.257839 0
M  V30 6987 H 643.537 -2.04892 -0.14434 0
M  V30 6988 H 641.767 -2.90639 -2.5508 0
M  V30 6989 H 643.456 -3.28854 -2.37929 0
M  V30 6990 H 644.222 -4.83066 -0.432677 0
M  V30 6991 H 640.101 -4.3394 -1.55618 0
M  V30 6992 H 643.645 -6.93927 0.714965 0
M  V30 6993 H 639.542 -6.44165 -0.414967 0
M  V30 6994 H 640.31 -8.14912 0.765564 0
M  V30 6995 N 642.974 0.416227 -1.52004 0
M  V30 6996 C 644.222 1.16153 -1.65387 0
M  V30 6997 C 644.543 1.91208 -0.382669 0
M  V30 6998 O 643.813 1.86413 0.602231 0
M  V30 6999 H 642.393 0.431765 -0.60958 0
M  V30 7000 H 645.055 0.475151 -1.89019 0
M  V30 7001 H 644.151 1.87952 -2.4916 0
M  V30 7002 N 644.452 1.42507 0.673017 0
M  V30 7003 C 645.382 1.48916 1.79851 0
M  V30 7004 C 646.363 0.345566 1.66553 0
M  V30 7005 O 647.548 0.560116 1.85947 0
M  V30 7006 C 644.678 1.39258 3.18158 0
M  V30 7007 C 643.632 2.51662 3.46194 0
M  V30 7008 C 642.958 2.27062 4.84094 0
M  V30 7009 C 644.258 3.93968 3.42909 0
M  V30 7010 H 645.952 2.43114 1.74745 0
M  V30 7011 H 643.498 1.17013 0.839288 0
M  V30 7012 H 645.451 1.42349 3.96629 0
M  V30 7013 H 644.175 0.415542 3.23946 0
M  V30 7014 H 642.834 2.47891 2.70084 0
M  V30 7015 H 642.482 1.27648 4.86534 0
M  V30 7016 H 642.182 3.02398 5.03815 0
M  V30 7017 H 643.706 2.31905 5.64847 0
M  V30 7018 H 645.12 3.99332 4.11347 0
M  V30 7019 H 643.517 4.6917 3.74165 0
M  V30 7020 H 644.587 4.20512 2.41449 0
M  V30 7021 N 645.93 -0.909495 1.28709 0
M  V30 7022 C 647.178 -1.65577 1.15882 0
M  V30 7023 C 647.499 -1.928 -0.292108 0
M  V30 7024 O 646.769 -1.54716 -1.20166 0
M  V30 7025 H 645.349 -0.613714 0.425869 0
M  V30 7026 H 648.011 -1.09108 1.61498 0
M  V30 7027 H 647.107 -2.61634 1.70159 0
M  V30 7028 N 647.408 -1.11026 -1.11852 0
M  V30 7029 C 648.338 -0.786812 -2.19844 0
M  V30 7030 C 649.319 0.242935 -1.68356 0
M  V30 7031 O 650.504 0.107355 -1.93903 0
M  V30 7032 C 647.634 -0.224516 -3.46574 0
M  V30 7033 C 646.588 -1.18564 -4.1125 0
M  V30 7034 C 645.914 -0.484261 -5.32503 0
M  V30 7035 C 647.214 -2.53465 -4.56676 0
M  V30 7036 H 648.908 -1.68978 -2.47158 0
M  V30 7037 H 646.454 -0.813906 -1.18792 0
M  V30 7038 H 648.407 0.0139435 -4.21398 0
M  V30 7039 H 647.131 0.713722 -3.18706 0
M  V30 7040 H 645.79 -1.40966 -3.38414 0
M  V30 7041 H 645.438 0.458646 -5.00905 0
M  V30 7042 H 645.138 -1.12526 -5.76725 0
M  V30 7043 H 646.662 -0.254492 -6.10069 0
M  V30 7044 H 648.076 -2.35177 -5.22843 0
M  V30 7045 H 646.473 -3.13507 -5.11697 0
M  V30 7046 H 647.543 -3.13008 -3.70343 0
M  V30 7047 N 648.886 1.2938 -0.899927 0
M  V30 7048 C 649.834 2.29675 -0.367698 0
M  V30 7049 C 650.828 1.60787 0.533282 0
M  V30 7050 O 652.034 1.75126 0.416058 0
M  V30 7051 H 648.409 0.745284 -0.100279 0
M  V30 7052 H 650.38 2.72008 -1.22696 0
M  V30 7053 C 649.129 3.45512 0.389483 0
M  V30 7054 H 648.452 3.98713 -0.294575 0
M  V30 7055 H 649.892 4.17725 0.726744 0
M  V30 7056 C 648.351 2.969 1.59223 0
M  V30 7057 O 648.881 2.98195 2.69152 0
M  V30 7058 N 647.087 2.52728 1.43447 0
M  V30 7059 H 646.634 2.51873 0.540148 0
M  V30 7060 H 646.592 2.20561 2.24054 0
M  V30 7061 N 650.364 0.662433 1.43002 0
M  V30 7062 C 651.314 -0.0460442 2.27954 0
M  V30 7063 C 652.298 -0.785753 1.40409 0
M  V30 7064 O 653.49 -0.666701 1.63964 0
M  V30 7065 C 650.619 -1.00532 3.2825 0
M  V30 7066 C 649.705 -0.263604 4.2328 0
M  V30 7067 N 650.096 0.724855 5.00579 0
M  V30 7068 C 648.394 -0.503778 4.43146 0
M  V30 7069 C 649.095 1.16594 5.69895 0
M  V30 7070 N 648.071 0.498345 5.41311 0
M  V30 7071 H 651.873 0.712314 2.85137 0
M  V30 7072 H 649.387 0.490469 1.54817 0
M  V30 7073 H 651.384 -1.52775 3.87899 0
M  V30 7074 H 650.044 -1.76364 2.72628 0
M  V30 7075 H 651.055 1.10393 5.05998 0
M  V30 7076 H 647.732 -1.24255 3.98581 0
M  V30 7077 H 649.122 1.98434 6.4193 0
M  V30 7078 N 651.842 -1.52309 0.404946 0
M  V30 7079 C 653.089 -2.01767 -0.1722 0
M  V30 7080 C 653.417 -1.29075 -1.45498 0
M  V30 7081 O 652.672 -0.3843 -1.9189 0
M  V30 7082 C 652.971 -3.54284 -0.470895 0
M  V30 7083 C 652.637 -4.45079 0.722194 0
M  V30 7084 C 651.299 -4.69617 1.04946 0
M  V30 7085 C 653.651 -4.98555 1.51962 0
M  V30 7086 C 650.979 -5.44878 2.17543 0
M  V30 7087 C 653.331 -5.75049 2.63632 0
M  V30 7088 C 651.995 -5.9786 2.9685 0
M  V30 7089 H 651.265 -0.738316 -0.0630125 0
M  V30 7090 H 653.912 -1.83566 0.545506 0
M  V30 7091 H 652.217 -3.70642 -1.27012 0
M  V30 7092 H 653.914 -3.90058 -0.930346 0
M  V30 7093 H 650.504 -4.26155 0.457131 0
M  V30 7094 H 654.688 -4.79509 1.28002 0
M  V30 7095 H 649.944 -5.60762 2.43631 0
M  V30 7096 H 654.118 -6.15483 3.25813 0
M  V30 7097 H 651.745 -6.5596 3.84215 0
M  V30 7098 N 653.32 -0.135238 -1.57019 0
M  V30 7099 C 654.566 0.519563 -1.96032 0
M  V30 7100 C 654.899 1.65284 -1.01955 0
M  V30 7101 O 654.174 1.94408 -0.059727 0
M  V30 7102 C 654.457 1.0369 -3.44848 0
M  V30 7103 C 654.31 -0.0940754 -4.49702 0
M  V30 7104 C 655.629 1.92254 -3.95887 0
M  V30 7105 H 652.748 0.18739 -0.712779 0
M  V30 7106 H 655.39 -0.214086 -1.8879 0
M  V30 7107 H 653.54 1.66209 -3.5115 0
M  V30 7108 H 655.212 -0.73 -4.55487 0
M  V30 7109 H 653.455 -0.754924 -4.27181 0
M  V30 7110 H 654.126 0.309419 -5.51132 0
M  V30 7111 H 656.602 1.39581 -3.9199 0
M  V30 7112 H 655.478 2.25364 -5.00502 0
M  V30 7113 H 655.739 2.85513 -3.37543 0
M  V30 7114 N 654.798 1.5699 0.138552 0
M  V30 7115 C 656.209 1.73171 0.697754 0
M  V30 7116 C 656.56 0.750952 1.8126 0
M  V30 7117 O 655.685 -0.080549 2.1625 0
M  V30 7118 C 656.28 3.13996 1.27248 0
M  V30 7119 C 654.839 3.3175 1.77816 0
M  V30 7120 C 653.986 2.69084 0.669991 0
M  V30 7121 H 656.937 1.5846 -0.0871979 0
M  V30 7122 H 656.958 3.14463 2.14227 0
M  V30 7123 H 656.47 3.85354 0.460855 0
M  V30 7124 H 654.571 2.65403 2.61519 0
M  V30 7125 H 654.684 4.39768 1.90107 0
M  V30 7126 H 653.048 2.29782 1.09874 0
M  V30 7127 H 653.831 3.43053 -0.130329 0
M  V30 7128 N 656.276 -0.40816 1.52223 0
M  V30 7129 C 657.553 -1.16807 1.56893 0
M  V30 7130 C 657.933 -2.08169 0.350537 0
M  V30 7131 O 657.281 -2.18684 -0.662536 0
M  V30 7132 C 657.491 -1.94451 2.8981 0
M  V30 7133 C 658.839 -2.50484 3.42845 0
M  V30 7134 O 659.863 -2.0463 2.91556 0
M  V30 7135 O 658.722 -3.34192 4.3241 0
M  V30 7136 H 655.816 -0.533382 0.632007 0
M  V30 7137 H 658.362 -0.414862 1.64551 0
M  V30 7138 H 657.134 -1.27527 3.69936 0
M  V30 7139 H 656.757 -2.76775 2.85449 0
M  V30 7140 N 657.755 -1.42862 -0.66545 0
M  V30 7141 C 659.171 -1.25993 -0.979687 0
M  V30 7142 C 659.371 -0.170831 -2.00775 0
M  V30 7143 O 658.427 0.454827 -2.4837 0
M  V30 7144 C 659.74 -2.62005 -1.47559 0
M  V30 7145 C 661.288 -2.69437 -1.59288 0
M  V30 7146 C 661.763 -4.05838 -2.12272 0
M  V30 7147 N 663.254 -4.0784 -2.19592 0
M  V30 7148 C 663.989 -5.10205 -2.61684 0
M  V30 7149 N 663.485 -6.22949 -3.03161 0
M  V30 7150 N 665.278 -4.9756 -2.61516 0
M  V30 7151 H 657.429 -2.12395 0.0150493 0
M  V30 7152 H 659.692 -0.946355 -0.0558187 0
M  V30 7153 H 659.398 -3.42605 -0.794654 0
M  V30 7154 H 659.272 -2.86566 -2.45275 0
M  V30 7155 H 661.659 -1.89178 -2.26486 0
M  V30 7156 H 661.74 -2.48655 -0.600374 0
M  V30 7157 H 661.384 -4.86559 -1.4568 0
M  V30 7158 H 661.314 -4.23977 -3.12331 0
M  V30 7159 H 663.805 -3.26452 -1.90361 0
M  V30 7160 H 664.118 -6.96899 -3.33993 0
M  V30 7161 H 662.463 -6.2644 -3.00995 0
M  V30 7162 H 665.654 -4.08551 -2.28481 0
M  V30 7163 H 665.827 -5.77468 -2.93999 0
M  V30 7164 N 659.233 0.902656 -1.29189 0
M  V30 7165 C 660.163 2.02294 -1.16616 0
M  V30 7166 C 661.144 1.6999 -0.0611175 0
M  V30 7167 O 662.329 1.9271 -0.240072 0
M  V30 7168 C 659.459 3.37018 -0.83882 0
M  V30 7169 C 658.413 3.83522 -1.89986 0
M  V30 7170 C 657.739 5.15337 -1.42589 0
M  V30 7171 C 659.039 4.04169 -3.30824 0
M  V30 7172 H 660.733 2.13071 -2.10336 0
M  V30 7173 H 658.279 1.02378 -1.01266 0
M  V30 7174 H 660.232 4.14895 -0.737584 0
M  V30 7175 H 658.956 3.26325 0.134071 0
M  V30 7176 H 657.615 3.07859 -1.99043 0
M  V30 7177 H 657.263 5.01056 -0.441759 0
M  V30 7178 H 656.963 5.47423 -2.13547 0
M  V30 7179 H 658.487 5.95758 -1.3381 0
M  V30 7180 H 659.901 4.72537 -3.24626 0
M  V30 7181 H 658.298 4.47604 -3.99713 0
M  V30 7182 H 659.368 3.08604 -3.74021 0
M  V30 7183 N 660.711 1.11618 1.11262 0
M  V30 7184 C 661.951 0.876154 1.8467 0
M  V30 7185 C 662.315 -0.587551 1.82789 0
M  V30 7186 O 663.516 -0.944411 2.51663 0
M  V30 7187 C 661.787 1.42461 3.2778 0
M  V30 7188 S 663.346 1.32185 4.18417 0
M  V30 7189 H 660.164 0.31628 0.636779 0
M  V30 7190 H 662.766 1.42404 1.33946 0
M  V30 7191 H 661.47 2.48367 3.26714 0
M  V30 7192 H 661.001 0.873844 3.83572 0
M  V30 7193 H 663.016 0.287607 4.95366 0
M  V30 7194 N 662.189 -1.289 0.906776 0
M  V30 7195 C 663.136 -2.2751 0.388313 0
M  V30 7196 C 664.106 -1.57301 -0.533439 0
M  V30 7197 O 665.291 -1.85243 -0.457148 0
M  V30 7198 C 662.431 -3.43091 -0.37181 0
M  V30 7199 C 661.544 -4.28066 0.581647 0
M  V30 7200 C 660.679 -5.30837 -0.19623 0
M  V30 7201 C 659.718 -6.07472 0.751294 0
M  V30 7202 N 658.855 -7.021 0.00737727 0
M  V30 7203 H 663.695 -2.71237 1.23428 0
M  V30 7204 H 661.232 -1.33397 0.619962 0
M  V30 7205 H 663.19 -4.08888 -0.828641 0
M  V30 7206 H 661.82 -3.00374 -1.18218 0
M  V30 7207 H 660.872 -3.62378 1.157 0
M  V30 7208 H 662.184 -4.81382 1.30665 0
M  V30 7209 H 661.338 -6.02485 -0.71394 0
M  V30 7210 H 660.077 -4.78272 -0.954324 0
M  V30 7211 H 659.082 -5.34682 1.28044 0
M  V30 7212 H 660.307 -6.62126 1.50883 0
M  V30 7213 H 658.253 -6.51894 -0.732854 0
M  V30 7214 H 658.17 -7.53004 0.672334 0
M  V30 7215 H 659.438 -7.77956 -0.490365 0
M  V30 7216 N 663.667 -0.670007 -1.42649 0
M  V30 7217 C 664.597 -0.00258501 -2.335 0
M  V30 7218 C 665.578 0.794364 -1.50412 0
M  V30 7219 O 666.763 0.75248 -1.79029 0
M  V30 7220 C 663.893 0.952748 -3.33976 0
M  V30 7221 C 662.847 0.264733 -4.2718 0
M  V30 7222 C 662.173 1.33267 -5.17826 0
M  V30 7223 C 663.473 -0.853289 -5.15283 0
M  V30 7224 H 665.167 -0.761326 -2.89559 0
M  V30 7225 H 662.713 -0.367561 -1.3923 0
M  V30 7226 H 664.666 1.4287 -3.96442 0
M  V30 7227 H 663.39 1.74285 -2.7621 0
M  V30 7228 H 662.049 -0.190938 -3.66102 0
M  V30 7229 H 661.697 2.11464 -4.5639 0
M  V30 7230 H 661.397 0.877476 -5.81011 0
M  V30 7231 H 662.921 1.80965 -5.83167 0
M  V30 7232 H 664.335 -0.458763 -5.71462 0
M  V30 7233 H 662.732 -1.23398 -5.87276 0
M  V30 7234 H 663.802 -1.70412 -4.53969 0
M  V30 7235 N 665.145 1.52092 -0.413018 0
M  V30 7236 C 666.093 2.28681 0.425199 0
M  V30 7237 C 667.087 1.3353 1.04241 0
M  V30 7238 O 668.293 1.50973 0.980166 0
M  V30 7239 H 664.668 0.735661 0.155906 0
M  V30 7240 H 666.639 2.97418 -0.241926 0
M  V30 7241 C 665.388 3.1235 1.5275 0
M  V30 7242 H 664.711 3.85439 1.06191 0
M  V30 7243 H 666.151 3.69038 2.08774 0
M  V30 7244 C 664.61 2.26161 2.49706 0
M  V30 7245 O 665.14 1.90452 3.53682 0
M  V30 7246 N 663.346 1.89854 2.20008 0
M  V30 7247 H 662.893 2.19092 1.35486 0
M  V30 7248 H 662.851 1.3248 2.85125 0
M  V30 7249 N 666.623 0.143563 1.56945 0
M  V30 7250 C 667.869 -0.50916 1.96304 0
M  V30 7251 C 668.202 -1.64741 1.0283 0
M  V30 7252 O 667.477 -1.94374 0.0700361 0
M  V30 7253 C 667.76 -1.0186 3.45393 0
M  V30 7254 C 667.613 0.117923 4.49645 0
M  V30 7255 C 668.932 -1.90151 3.96901 0
M  V30 7256 H 666.051 -0.183608 0.713763 0
M  V30 7257 H 668.693 0.224095 1.88674 0
M  V30 7258 H 666.843 -1.64345 3.52027 0
M  V30 7259 H 668.515 0.754145 4.55094 0
M  V30 7260 H 666.758 0.777568 4.26774 0
M  V30 7261 H 667.429 -0.280187 5.51288 0
M  V30 7262 H 669.905 -1.375 3.92725 0
M  V30 7263 H 668.781 -2.22707 5.0169 0
M  V30 7264 H 669.042 -2.83718 3.39052 0
M  V30 7265 N 668.101 -1.57061 -0.130224 0
M  V30 7266 C 669.048 -1.99517 -1.16024 0
M  V30 7267 C 670.018 -0.865452 -1.41771 0
M  V30 7268 O 671.203 -1.12882 -1.53826 0
M  V30 7269 C 668.343 -2.3951 -2.48453 0
M  V30 7270 C 667.456 -3.65848 -2.29737 0
M  V30 7271 C 666.591 -3.9487 -3.55318 0
M  V30 7272 C 665.63 -5.14426 -3.31711 0
M  V30 7273 N 664.767 -5.39375 -4.49466 0
M  V30 7274 H 669.607 -2.87305 -0.791194 0
M  V30 7275 H 667.144 -1.42129 -0.379195 0
M  V30 7276 H 669.102 -2.60731 -3.25692 0
M  V30 7277 H 667.732 -1.54779 -2.83272 0
M  V30 7278 H 666.784 -3.52307 -1.4347 0
M  V30 7279 H 668.096 -4.53241 -2.08263 0
M  V30 7280 H 667.25 -4.16679 -4.4098 0
M  V30 7281 H 665.989 -3.05931 -3.79813 0
M  V30 7282 H 664.994 -4.92473 -2.44439 0
M  V30 7283 H 666.219 -6.04933 -3.08598 0
M  V30 7284 H 664.165 -4.53391 -4.74102 0
M  V30 7285 H 664.082 -6.21069 -4.31055 0
M  V30 7286 H 665.35 -5.65694 -5.36293 0
M  V30 7287 N 669.579 0.400081 -1.52437 0
M  V30 7288 C 670.807 1.16768 -1.70801 0
M  V30 7289 C 671.222 1.84036 -0.421462 0
M  V30 7290 O 670.579 1.72242 0.603228 0
M  V30 7291 C 670.63 2.22403 -2.8499 0
M  V30 7292 O 670.351 1.57879 -4.08663 0
M  V30 7293 C 671.852 3.11974 -3.1494 0
M  V30 7294 H 669.072 0.350533 -0.57216 0
M  V30 7295 H 671.616 0.469534 -1.99037 0
M  V30 7296 H 669.771 2.87871 -2.59247 0
M  V30 7297 H 670.185 2.27982 -4.7236 0
M  V30 7298 H 671.659 3.82148 -3.9833 0
M  V30 7299 H 672.136 3.74858 -2.28863 0
M  V30 7300 H 672.742 2.52165 -3.42481 0
M  V30 7301 N 671.057 1.43213 0.657864 0
M  V30 7302 C 672.004 1.48011 1.77092 0
M  V30 7303 C 672.974 0.330291 1.62783 0
M  V30 7304 O 674.159 0.536787 1.83094 0
M  V30 7305 C 671.299 1.40461 3.15222 0
M  V30 7306 C 670.412 2.65612 3.40697 0
M  V30 7307 C 669.547 2.50083 4.68649 0
M  V30 7308 C 668.586 3.70525 4.87214 0
M  V30 7309 N 667.723 3.53835 6.0642 0
M  V30 7310 H 672.563 2.43121 1.72326 0
M  V30 7311 H 670.1 1.20687 0.841013 0
M  V30 7312 H 672.058 1.34079 3.95068 0
M  V30 7313 H 670.688 0.489359 3.19069 0
M  V30 7314 H 669.74 2.82292 2.54982 0
M  V30 7315 H 671.052 3.5509 3.50303 0
M  V30 7316 H 670.206 2.41383 5.56614 0
M  V30 7317 H 668.945 1.58121 4.61356 0
M  V30 7318 H 667.95 3.79639 3.97686 0
M  V30 7319 H 669.175 4.63489 4.96341 0
M  V30 7320 H 667.121 2.64604 6.00267 0
M  V30 7321 H 667.038 4.36912 6.16963 0
M  V30 7322 H 668.306 3.48978 6.97019 0
M  V30 7323 N 672.536 -0.895792 1.29666 0
M  V30 7324 C 673.446 -2.03329 1.17024 0
M  V30 7325 C 674.462 -1.73753 0.0925962 0
M  V30 7326 O 675.638 -1.99071 0.305431 0
M  V30 7327 C 672.703 -3.36072 0.851841 0
M  V30 7328 C 671.764 -3.7914 2.01373 0
M  V30 7329 C 670.997 -5.05549 1.71043 0
M  V30 7330 O 671.22 -5.66874 0.633213 0
M  V30 7331 O 670.154 -5.44764 2.5596 0
M  V30 7332 H 673.98 -2.16918 2.12556 0
M  V30 7333 H 671.565 -1.02007 1.09156 0
M  V30 7334 H 673.447 -4.15729 0.689006 0
M  V30 7335 H 672.122 -3.23616 -0.0736634 0
M  V30 7336 H 671.029 -3.00233 2.23183 0
M  V30 7337 H 672.362 -3.96186 2.92058 0
M  V30 7338 N 674.014 -1.12206 -1.10668 0
M  V30 7339 C 675.242 -0.898635 -1.86366 0
M  V30 7340 C 675.657 0.551991 -1.80551 0
M  V30 7341 O 675.014 1.38152 -1.19249 0
M  V30 7342 C 675.065 -1.36199 -3.34861 0
M  V30 7343 O 674.786 -2.75576 -3.40573 0
M  V30 7344 C 676.287 -1.17515 -4.2744 0
M  V30 7345 H 673.507 -0.321281 -0.589084 0
M  V30 7346 H 676.051 -1.49142 -1.39918 0
M  V30 7347 H 674.206 -0.81249 -3.78784 0
M  V30 7348 H 674.62 -2.95851 -4.33096 0
M  V30 7349 H 676.094 -1.54827 -5.29842 0
M  V30 7350 H 676.571 -0.115486 -4.39048 0
M  V30 7351 H 677.177 -1.71203 -3.89319 0
M  V30 7352 N 675.492 1.28418 -0.913599 0
M  V30 7353 C 676.738 1.95627 -0.556933 0
M  V30 7354 C 677.093 1.706 0.889565 0
M  V30 7355 O 676.386 1.01637 1.6242 0
M  V30 7356 C 676.58 3.48283 -0.802099 0
M  V30 7357 C 676.409 3.88151 -2.27088 0
M  V30 7358 C 675.179 4.1232 -2.92096 0
M  V30 7359 C 677.377 3.98819 -3.24728 0
M  V30 7360 N 675.359 4.3886 -4.29272 0
M  V30 7361 C 676.73 4.29571 -4.47067 0
M  V30 7362 C 678.785 3.81342 -3.20129 0
M  V30 7363 C 677.488 4.44667 -5.65388 0
M  V30 7364 C 679.514 3.97656 -4.37749 0
M  V30 7365 C 678.876 4.2878 -5.58862 0
M  V30 7366 H 674.975 0.739715 -0.253664 0
M  V30 7367 H 677.559 1.55074 -1.1773 0
M  V30 7368 H 675.73 3.87826 -0.211007 0
M  V30 7369 H 677.462 4.02623 -0.409478 0
M  V30 7370 H 674.217 4.06611 -2.42826 0
M  V30 7371 H 674.641 4.56214 -5.00198 0
M  V30 7372 H 679.283 3.56331 -2.2757 0
M  V30 7373 H 677.001 4.68509 -6.58426 0
M  V30 7374 H 680.587 3.85569 -4.35692 0
M  V30 7375 H 679.467 4.41136 -6.48359 0
M  V30 7376 N 676.97 0.677563 1.42291 0
M  V30 7377 C 678.216 0.201272 2.01799 0
M  V30 7378 C 678.549 -1.19004 1.53465 0
M  V30 7379 O 677.824 -1.79953 0.738039 0
M  V30 7380 C 678.107 0.238968 3.59306 0
M  V30 7381 C 677.96 1.66594 4.17812 0
M  V30 7382 C 679.279 -0.411287 4.38174 0
M  V30 7383 H 676.398 0.0746114 0.733214 0
M  V30 7384 H 679.04 0.862872 1.69276 0
M  V30 7385 H 677.19 -0.324368 3.87144 0
M  V30 7386 H 678.862 2.28173 4.00917 0
M  V30 7387 H 677.105 2.20576 3.73536 0
M  V30 7388 H 677.776 1.64398 5.26951 0
M  V30 7389 H 680.252 0.0682804 4.16044 0
M  V30 7390 H 679.128 -0.354286 5.47755 0
M  V30 7391 H 679.389 -1.4893 4.1626 0
M  V30 7392 N 678.448 -1.51871 0.421078 0
M  V30 7393 C 679.694 -2.02894 -0.143346 0
M  V30 7394 C 680.049 -1.30054 -1.41787 0
M  V30 7395 O 679.342 -0.401776 -1.8734 0
M  V30 7396 C 679.536 -3.54764 -0.433292 0
M  V30 7397 C 679.365 -4.42316 0.811584 0
M  V30 7398 C 678.135 -4.872 1.34033 0
M  V30 7399 C 680.333 -4.85631 1.69313 0
M  V30 7400 N 678.315 -5.58915 2.53944 0
M  V30 7401 C 679.686 -5.56248 2.7384 0
M  V30 7402 C 681.741 -4.67634 1.70947 0
M  V30 7403 C 680.444 -6.10777 3.79927 0
M  V30 7404 C 682.47 -5.23068 2.7596 0
M  V30 7405 C 681.832 -5.93617 3.79207 0
M  V30 7406 H 677.931 -0.78188 -0.0137104 0
M  V30 7407 H 680.515 -1.85919 0.578105 0
M  V30 7408 H 678.686 -3.71787 -1.12378 0
M  V30 7409 H 680.418 -3.92464 -0.987644 0
M  V30 7410 H 677.173 -4.65035 0.896606 0
M  V30 7411 H 677.597 -5.99408 3.14704 0
M  V30 7412 H 682.239 -4.12566 0.9246 0
M  V30 7413 H 679.957 -6.64909 4.59262 0
M  V30 7414 H 683.543 -5.11005 2.78147 0
M  V30 7415 H 682.423 -6.35743 4.5913 0
M  V30 7416 N 679.926 -0.151884 -1.56866 0
M  V30 7417 C 680.858 0.817008 -2.14144 0
M  V30 7418 C 681.871 1.20735 -1.0921 0
M  V30 7419 O 683.06 1.15058 -1.36469 0
M  V30 7420 C 680.16 2.10844 -2.65326 0
M  V30 7421 C 679.333 1.88471 -3.94712 0
M  V30 7422 C 678.392 3.01649 -4.31155 0
M  V30 7423 O 677.418 2.73127 -4.9939 0
M  V30 7424 N 678.62 4.28947 -3.91132 0
M  V30 7425 H 681.385 0.327448 -2.97906 0
M  V30 7426 H 678.946 0.0315313 -1.61869 0
M  V30 7427 H 680.938 2.85616 -2.86715 0
M  V30 7428 H 679.508 2.51049 -1.86262 0
M  V30 7429 H 678.728 0.977088 -3.81899 0
M  V30 7430 H 680.016 1.70866 -4.79252 0
M  V30 7431 H 679.414 4.54986 -3.36161 0
M  V30 7432 H 677.971 5.00484 -4.17563 0
M  V30 7433 N 681.404 1.57128 0.121893 0
M  V30 7434 C 682.314 2.03425 1.16857 0
M  V30 7435 C 683.33 0.954108 1.45509 0
M  V30 7436 O 684.506 1.26541 1.56682 0
M  V30 7437 C 681.571 2.42685 2.47599 0
M  V30 7438 C 680.632 3.64767 2.2637 0
M  V30 7439 C 679.865 4.02145 3.50878 0
M  V30 7440 O 680.088 3.39897 4.58068 0
M  V30 7441 O 679.022 4.95262 3.42051 0
M  V30 7442 H 682.848 2.92825 0.80544 0
M  V30 7443 H 680.433 1.45654 0.332477 0
M  V30 7444 H 682.315 2.68684 3.24634 0
M  V30 7445 H 680.99 1.56432 2.83392 0
M  V30 7446 H 679.897 3.43922 1.47203 0
M  V30 7447 H 681.23 4.51716 1.95482 0
M  V30 7448 N 682.882 -0.391992 1.52647 0
M  V30 7449 C 684.293 -0.970064 1.5952 0
M  V30 7450 C 684.644 -1.91059 0.446207 0
M  V30 7451 O 683.769 -2.12062 -0.431125 0
M  V30 7452 C 684.364 -1.76614 2.89125 0
M  V30 7453 C 682.923 -2.29396 2.9842 0
M  V30 7454 C 682.07 -1.09864 2.54608 0
M  V30 7455 H 685.021 -0.171638 1.57769 0
M  V30 7456 H 685.042 -2.62511 2.75442 0
M  V30 7457 H 684.554 -1.08135 3.72731 0
M  V30 7458 H 682.655 -3.01196 2.19344 0
M  V30 7459 H 682.768 -2.59088 4.03002 0
M  V30 7460 H 681.132 -1.45777 2.08857 0
M  V30 7461 H 681.915 -0.429249 3.40606 0
M  V30 7462 N 684.36 -1.4356 -0.65026 0
M  V30 7463 C 685.637 -1.35811 -1.40765 0
M  V30 7464 C 686.017 -0.00736379 -2.11099 0
M  V30 7465 O 685.365 1.00932 -2.05 0
M  V30 7466 C 685.575 -2.54332 -2.3899 0
M  V30 7467 C 686.923 -2.97551 -3.02901 0
M  V30 7468 O 687.947 -2.544 -2.49317 0
M  V30 7469 O 686.806 -3.72311 -4.00059 0
M  V30 7470 H 683.9 -0.536861 -0.629054 0
M  V30 7471 H 686.446 -1.55615 -0.676919 0
M  V30 7472 H 685.218 -3.44274 -1.85986 0
M  V30 7473 H 684.841 -2.36643 -3.19509 0
M  V30 7474 N 685.838 0.888903 -1.30139 0
M  V30 7475 C 687.063 1.67884 -1.21777 0
M  V30 7476 C 687.488 1.86848 0.216689 0
M  V30 7477 O 686.846 1.39659 1.15608 0
M  V30 7478 C 686.894 3.03483 -1.94757 0
M  V30 7479 O 685.998 3.92294 -1.27198 0
M  V30 7480 H 685.339 0.513144 -0.421402 0
M  V30 7481 H 687.869 1.10968 -1.71893 0
M  V30 7482 H 687.879 3.53553 -2.03627 0
M  V30 7483 H 686.554 2.89 -2.99085 0
M  V30 7484 H 685.131 3.50732 -1.26655 0
M  V30 7485 N 687.317 1.12792 1.10072 0
M  V30 7486 C 688.547 0.907189 1.85617 0
M  V30 7487 C 688.955 -0.547181 1.81115 0
M  V30 7488 O 688.298 -1.39024 1.20075 0
M  V30 7489 C 688.36 1.30872 3.34832 0
M  V30 7490 C 688.024 2.77516 3.6309 0
M  V30 7491 C 689.021 3.75696 3.59373 0
M  V30 7492 C 686.706 3.14513 3.91646 0
M  V30 7493 C 688.7 5.08888 3.83812 0
M  V30 7494 C 686.387 4.47886 4.15742 0
M  V30 7495 C 687.385 5.44882 4.11816 0
M  V30 7496 O 687.073 6.7585 4.35295 0
M  V30 7497 H 686.805 0.323855 0.593375 0
M  V30 7498 H 689.359 1.50262 1.40038 0
M  V30 7499 H 687.589 0.656518 3.81086 0
M  V30 7500 H 689.278 1.06153 3.91773 0
M  V30 7501 H 690.044 3.48458 3.37345 0
M  V30 7502 H 685.923 2.39622 3.93831 0
M  V30 7503 H 689.467 5.84586 3.80663 0
M  V30 7504 H 685.364 4.74851 4.37249 0
M  V30 7505 H 686.132 6.81853 4.52791 0
M  V30 7506 N 688.795 -1.27931 0.920396 0
M  V30 7507 C 690.206 -1.76707 0.602616 0
M  V30 7508 C 690.557 -1.75249 -0.882159 0
M  V30 7509 O 689.682 -1.35135 -1.69019 0
M  V30 7510 C 690.277 -3.20884 1.08714 0
M  V30 7511 C 688.836 -3.67356 0.820157 0
M  V30 7512 C 687.983 -2.47525 1.25006 0
M  V30 7513 H 690.934 -1.14301 1.10095 0
M  V30 7514 H 690.955 -3.78045 0.431535 0
M  V30 7515 H 690.467 -3.21913 2.1678 0
M  V30 7516 H 688.568 -3.7178 -0.247012 0
M  V30 7517 H 688.681 -4.57181 1.43257 0
M  V30 7518 H 687.045 -2.45765 0.668698 0
M  V30 7519 H 687.828 -2.51269 2.3392 0
M  V30 7520 N 690.273 -0.685099 -1.4193 0
M  V30 7521 C 691.498 -0.218842 -2.06242 0
M  V30 7522 C 691.923 1.11923 -1.51178 0
M  V30 7523 O 691.281 1.69837 -0.634446 0
M  V30 7524 C 691.329 -0.175592 -3.60172 0
M  V30 7525 O 690.433 0.852776 -4.03487 0
M  V30 7526 H 689.774 -0.109531 -0.654904 0
M  V30 7527 H 692.304 -0.937013 -1.81882 0
M  V30 7528 H 692.314 -0.00291151 -4.08 0
M  V30 7529 H 690.989 -1.15222 -3.99621 0
M  V30 7530 H 689.566 0.650301 -3.67186 0
M  V30 7531 N 691.751 1.51645 -0.429126 0
M  V30 7532 C 692.661 2.31288 0.392809 0
M  V30 7533 C 693.677 1.39852 1.03525 0
M  V30 7534 O 694.853 1.72926 1.03241 0
M  V30 7535 C 691.918 3.13347 1.48372 0
M  V30 7536 C 690.979 4.20551 0.862268 0
M  V30 7537 C 690.212 4.98688 1.9012 0
M  V30 7538 O 690.435 4.77359 3.12225 0
M  V30 7539 O 689.369 5.83005 1.4963 0
M  V30 7540 H 693.195 3.02609 -0.257138 0
M  V30 7541 H 690.78 1.48163 -0.191851 0
M  V30 7542 H 692.662 3.64387 2.1166 0
M  V30 7543 H 691.337 2.44799 2.1179 0
M  V30 7544 H 690.244 3.73609 0.191568 0
M  V30 7545 H 691.577 4.91449 0.271704 0
M  V30 7546 N 693.229 0.160201 1.56784 0
M  V30 7547 C 694.64 -0.358417 1.83227 0
M  V30 7548 C 694.991 -1.63831 1.07952 0
M  V30 7549 O 694.116 -2.13885 0.328995 0
M  V30 7550 C 694.711 -0.657058 3.32368 0
M  V30 7551 C 693.27 -1.12015 3.59346 0
M  V30 7552 C 692.417 -0.15015 2.76893 0
M  V30 7553 H 695.368 0.384669 1.53967 0
M  V30 7554 H 695.389 -1.51033 3.49241 0
M  V30 7555 H 694.901 0.274647 3.87127 0
M  V30 7556 H 693.002 -2.06734 3.09987 0
M  V30 7557 H 693.115 -1.037 4.67743 0
M  V30 7558 H 691.479 -0.645361 2.46388 0
M  V30 7559 H 692.262 0.775379 3.34429 0
M  V30 7560 N 694.707 -1.5719 -0.113559 0
M  V30 7561 C 695.956 -1.84325 -0.818984 0
M  V30 7562 C 696.269 -0.746685 -1.80787 0
M  V30 7563 O 697.475 -0.904596 -2.55987 0
M  V30 7564 C 695.931 -3.26818 -1.50724 0
M  V30 7565 C 695.539 -4.44498 -0.559065 0
M  V30 7566 C 697.283 -3.63196 -2.19748 0
M  V30 7567 C 695.19 -5.7802 -1.25086 0
M  V30 7568 H 694.12 -0.687507 -0.309596 0
M  V30 7569 H 696.771 -1.8336 -0.0717621 0
M  V30 7570 H 695.153 -3.22269 -2.30128 0
M  V30 7571 H 696.327 -4.60356 0.202146 0
M  V30 7572 H 694.642 -4.16393 0.024495 0
M  V30 7573 H 697.239 -4.60226 -2.72206 0
M  V30 7574 H 697.582 -2.90899 -2.97798 0
M  V30 7575 H 698.115 -3.69553 -1.47226 0
M  V30 7576 H 694.854 -6.53501 -0.511539 0
M  V30 7577 H 694.374 -5.66038 -1.98395 0
M  V30 7578 H 696.053 -6.2196 -1.78253 0
M  V30 7579 N 696.185 0.383891 -1.52853 0
M  V30 7580 C 697.432 1.12842 -1.68146 0
M  V30 7581 C 697.76 1.89823 -0.423954 0
M  V30 7582 O 697.015 1.86475 0.593765 0
M  V30 7583 C 697.314 2.12881 -2.87082 0
M  V30 7584 C 696.98 1.52519 -4.24322 0
M  V30 7585 C 695.642 1.35783 -4.61645 0
M  V30 7586 C 697.994 1.0868 -5.09743 0
M  V30 7587 C 695.322 0.737643 -5.82044 0
M  V30 7588 C 697.674 0.480699 -6.30771 0
M  V30 7589 C 696.338 0.300681 -6.66822 0
M  V30 7590 H 695.608 0.412917 -0.615289 0
M  V30 7591 H 698.255 0.412416 -1.87006 0
M  V30 7592 H 696.56 2.90719 -2.62659 0
M  V30 7593 H 698.257 2.70408 -2.96109 0
M  V30 7594 H 694.847 1.66534 -3.94923 0
M  V30 7595 H 699.031 1.2041 -4.81472 0
M  V30 7596 H 694.287 0.586415 -6.08581 0
M  V30 7597 H 698.461 0.132733 -6.96273 0
M  V30 7598 H 696.088 -0.181966 -7.59982 0
M  V30 7599 N 697.663 1.43903 0.642637 0
M  V30 7600 C 698.909 1.46296 1.40447 0
M  V30 7601 C 699.242 0.0908361 1.93987 0
M  V30 7602 O 698.517 -0.889884 1.72949 0
M  V30 7603 C 698.8 2.51399 2.57819 0
M  V30 7604 C 698.653 3.97926 2.09702 0
M  V30 7605 C 699.972 2.53125 3.60022 0
M  V30 7606 H 697.091 0.532676 0.509338 0
M  V30 7607 H 699.733 1.75515 0.727635 0
M  V30 7608 H 697.883 2.26614 3.1556 0
M  V30 7609 H 699.555 4.33804 1.5688 0
M  V30 7610 H 697.798 4.10252 1.40982 0
M  V30 7611 H 698.469 4.67096 2.94152 0
M  V30 7612 H 700.945 2.75242 3.12059 0
M  V30 7613 H 699.821 3.28589 4.39682 0
M  V30 7614 H 700.082 1.56895 4.13324 0
M  V30 7615 N 699.141 -0.881989 1.30609 0
M  V30 7616 C 700.366 -1.67236 1.22665 0
M  V30 7617 C 700.791 -1.8696 -0.206777 0
M  V30 7618 O 700.149 -1.4027 -1.14865 0
M  V30 7619 C 700.197 -3.02446 1.96363 0
M  V30 7620 O 699.301 -3.91614 1.29276 0
M  V30 7621 H 698.642 -0.510902 0.424117 0
M  V30 7622 H 701.172 -1.10055 1.72479 0
M  V30 7623 H 701.182 -3.52468 2.055 0
M  V30 7624 H 699.857 -2.8741 3.00613 0
M  V30 7625 H 698.434 -3.50055 1.28514 0
M  V30 7626 N 700.619 -1.13374 -1.09472 0
M  V30 7627 C 701.569 -0.77946 -2.14263 0
M  V30 7628 C 702.553 0.226271 -1.59301 0
M  V30 7629 O 703.745 0.0302581 -1.76974 0
M  V30 7630 C 700.874 -0.246635 -3.42413 0
M  V30 7631 C 699.96 -1.28124 -4.04283 0
M  V30 7632 N 700.351 -2.48201 -4.40715 0
M  V30 7633 C 698.649 -1.12892 -4.31476 0
M  V30 7634 C 699.35 -3.14347 -4.8945 0
M  V30 7635 N 698.326 -2.41771 -4.86876 0
M  V30 7636 H 702.128 -1.69305 -2.40235 0
M  V30 7637 H 699.642 -1.01598 -1.26695 0
M  V30 7638 H 701.639 0.0254131 -4.16892 0
M  V30 7639 H 700.299 0.661287 -3.17895 0
M  V30 7640 H 701.31 -2.85511 -4.32093 0
M  V30 7641 H 697.987 -0.279117 -4.16566 0
M  V30 7642 H 699.377 -4.16663 -5.27107 0
M  V30 7643 N 702.098 1.27442 -0.927168 0
M  V30 7644 C 703.509 1.76385 -0.611979 0
M  V30 7645 C 703.86 1.75715 0.872853 0
M  V30 7646 O 702.985 1.3603 1.683 0
M  V30 7647 C 703.58 3.20303 -1.10414 0
M  V30 7648 C 702.139 3.66916 -0.839628 0
M  V30 7649 C 701.286 2.46859 -1.26317 0
M  V30 7650 H 704.237 1.13716 -1.107 0
M  V30 7651 H 704.258 3.77811 -0.451578 0
M  V30 7652 H 703.77 3.20759 -2.18484 0
M  V30 7653 H 701.871 3.71906 0.227292 0
M  V30 7654 H 701.984 4.56415 -1.45679 0
M  V30 7655 H 700.348 2.45407 -0.681723 0
M  V30 7656 H 701.131 2.50025 -2.3525 0
M  V30 7657 N 703.576 0.692616 1.41565 0
M  V30 7658 C 704.853 0.150496 1.9502 0
M  V30 7659 C 705.233 -1.33881 1.63215 0
M  V30 7660 O 704.581 -2.08378 0.937598 0
M  V30 7661 C 704.791 0.438636 3.46233 0
M  V30 7662 C 706.139 0.364777 4.2303 0
M  V30 7663 O 707.163 0.373383 3.54238 0
M  V30 7664 O 706.022 0.32234 5.45549 0
M  V30 7665 H 703.116 0.0132454 0.826894 0
M  V30 7666 H 705.662 0.768574 1.51298 0
M  V30 7667 H 704.434 1.46962 3.62654 0
M  V30 7668 H 704.057 -0.210562 3.97042 0
M  V30 7669 N 705.054 -1.51416 0.437162 0
M  V30 7670 C 706.017 -2.26312 -0.362729 0
M  V30 7671 C 707.017 -1.29748 -0.949847 0
M  V30 7672 O 708.207 -1.53462 -0.824325 0
M  V30 7673 C 705.339 -3.05475 -1.5132 0
M  V30 7674 H 706.532 -2.98459 0.29365 0
M  V30 7675 H 704.085 -1.55137 0.190327 0
M  V30 7676 H 704.82 -2.37744 -2.20563 0
M  V30 7677 H 704.605 -3.76401 -1.09838 0
M  V30 7678 H 706.095 -3.62209 -2.07833 0
M  V30 7679 N 706.532 -0.168513 -1.56696 0
M  V30 7680 C 707.462 0.758563 -2.20835 0
M  V30 7681 C 708.443 1.24121 -1.1631 0
M  V30 7682 O 709.628 1.29487 -1.4473 0
M  V30 7683 C 706.758 1.9892 -2.8469 0
M  V30 7684 C 705.712 1.64252 -3.95228 0
M  V30 7685 C 705.038 2.94757 -4.46119 0
M  V30 7686 C 706.338 0.872675 -5.14958 0
M  V30 7687 H 708.032 0.223953 -2.98561 0
M  V30 7688 H 705.578 0.106277 -1.43607 0
M  V30 7689 H 707.531 2.64275 -3.28233 0
M  V30 7690 H 706.255 2.5479 -2.04327 0
M  V30 7691 H 704.914 1.01266 -3.52336 0
M  V30 7692 H 704.562 3.48662 -3.62552 0
M  V30 7693 H 704.262 2.72316 -5.2069 0
M  V30 7694 H 705.786 3.61147 -4.92347 0
M  V30 7695 H 707.2 1.42875 -5.55211 0
M  V30 7696 H 705.597 0.747402 -5.95428 0
M  V30 7697 H 706.667 -0.131535 -4.84722 0
M  V30 7698 N 708.01 1.57248 0.105221 0
M  V30 7699 C 708.92 2.04653 1.14693 0
M  V30 7700 C 709.936 0.969488 1.44489 0
M  V30 7701 O 711.112 1.28196 1.55331 0
M  V30 7702 C 708.177 2.45297 2.45011 0
M  V30 7703 C 707.238 3.67148 2.22489 0
M  V30 7704 C 706.471 4.05844 3.46592 0
M  V30 7705 O 706.694 3.44736 4.54437 0
M  V30 7706 O 705.628 4.98862 3.36779 0
M  V30 7707 H 709.454 2.93663 0.774336 0
M  V30 7708 H 707.039 1.45998 0.31701 0
M  V30 7709 H 708.921 2.72112 3.21766 0
M  V30 7710 H 707.596 1.59429 2.81717 0
M  V30 7711 H 706.503 3.45463 1.43547 0
M  V30 7712 H 707.836 4.53764 1.9068 0
M  V30 7713 N 709.488 -0.375779 1.53054 0
M  V30 7714 C 710.398 -1.48381 1.81715 0
M  V30 7715 C 711.414 -1.59087 0.704795 0
M  V30 7716 O 712.59 -1.75174 0.993785 0
M  V30 7717 C 709.655 -2.83767 1.99192 0
M  V30 7718 C 708.716 -2.82673 3.23102 0
M  V30 7719 C 707.949 -4.11601 3.39736 0
M  V30 7720 O 708.172 -5.07243 2.60885 0
M  V30 7721 O 707.106 -4.18034 4.33049 0
M  V30 7722 H 710.932 -1.27089 2.7583 0
M  V30 7723 H 708.517 -0.564902 1.38308 0
M  V30 7724 H 710.399 -3.64004 2.12318 0
M  V30 7725 H 709.074 -3.05057 1.08267 0
M  V30 7726 H 707.981 -2.0117 3.15407 0
M  V30 7727 H 709.314 -2.66335 4.13916 0
M  V30 7728 N 710.966 -1.44241 -0.634997 0
M  V30 7729 C 712.243 -1.37296 -1.39317 0
M  V30 7730 C 712.623 -0.0297532 -2.11079 0
M  V30 7731 O 711.971 0.987524 -2.06059 0
M  V30 7732 C 712.181 -2.56853 -2.36279 0
M  V30 7733 C 713.529 -3.00747 -2.99728 0
M  V30 7734 O 714.553 -2.5703 -2.46605 0
M  V30 7735 O 713.412 -3.76533 -3.96087 0
M  V30 7736 H 710.506 -0.543503 -0.623325 0
M  V30 7737 H 713.052 -1.56324 -0.660376 0
M  V30 7738 H 711.824 -3.46228 -1.82324 0
M  V30 7739 H 711.447 -2.40019 -3.16981 0
M  V30 7740 N 712.444 0.87505 -1.31075 0
M  V30 7741 C 713.721 1.60976 -1.11113 0
M  V30 7742 C 714.101 2.08409 0.336006 0
M  V30 7743 O 713.449 1.85858 1.32924 0
M  V30 7744 C 713.659 2.77166 -2.12085 0
M  V30 7745 C 715.007 3.47254 -2.44335 0
M  V30 7746 O 716.031 2.87367 -2.10472 0
M  V30 7747 O 714.89 4.55276 -3.02301 0
M  V30 7748 H 711.984 0.707982 -0.427424 0
M  V30 7749 H 714.53 0.920957 -1.42536 0
M  V30 7750 H 713.302 2.39494 -3.09449 0
M  V30 7751 H 712.925 3.53737 -1.81538 0
M  V30 7752 N 713.922 1.13953 1.08869 0
M  V30 7753 C 715.17 0.903023 1.80803 0
M  V30 7754 C 715.491 -0.572151 1.86417 0
M  V30 7755 O 714.761 -1.41589 1.35386 0
M  V30 7756 H 713.341 0.331099 0.669614 0
M  V30 7757 H 716.003 1.43719 1.31647 0
M  V30 7758 H 715.099 1.29881 2.83791 0
M  V30 7759 N 715.4 -1.26948 0.933913 0
M  V30 7760 C 716.646 -1.94374 0.57848 0
M  V30 7761 C 716.979 -1.73166 -0.879048 0
M  V30 7762 O 716.254 -1.06438 -1.62792 0
M  V30 7763 C 716.537 -3.4834 0.912739 0
M  V30 7764 C 716.39 -3.78866 2.42448 0
M  V30 7765 C 717.709 -4.38062 0.423003 0
M  V30 7766 H 714.828 -0.705959 0.211639 0
M  V30 7767 H 717.47 -1.49951 1.16682 0
M  V30 7768 H 715.62 -3.86309 0.412058 0
M  V30 7769 H 717.292 -3.50654 2.99733 0
M  V30 7770 H 715.535 -3.25198 2.87104 0
M  V30 7771 H 716.206 -4.86458 2.60887 0
M  V30 7772 H 718.682 -4.0728 0.852191 0
M  V30 7773 H 717.558 -5.44599 0.685776 0
M  V30 7774 H 717.819 -4.36886 -0.676994 0
M  V30 7775 N 716.879 -0.700114 -1.41195 0
M  V30 7776 C 718.125 -0.233351 -2.01453 0
M  V30 7777 C 718.458 1.16548 -1.55339 0
M  V30 7778 O 717.733 1.78756 -0.766575 0
M  V30 7779 C 718.016 -0.2961 -3.58881 0
M  V30 7780 C 717.869 -1.7322 -4.15108 0
M  V30 7781 C 719.188 0.341525 -4.38773 0
M  V30 7782 H 716.307 -0.0862667 -0.731934 0
M  V30 7783 H 718.949 -0.889693 -1.67882 0
M  V30 7784 H 717.099 0.262736 -3.87611 0
M  V30 7785 H 718.771 -2.34523 -3.97236 0
M  V30 7786 H 717.014 -2.2649 -3.69979 0
M  V30 7787 H 717.685 -1.7276 -5.24269 0
M  V30 7788 H 720.161 -0.134461 -4.15883 0
M  V30 7789 H 719.037 0.267098 -5.4825 0
M  V30 7790 H 719.298 1.42289 -4.18577 0
M  V30 7791 N 718.357 1.51182 -0.445186 0
M  V30 7792 C 719.287 2.30821 0.352686 0
M  V30 7793 C 720.268 1.36576 1.01395 0
M  V30 7794 O 721.453 1.65497 1.01609 0
M  V30 7795 C 718.583 3.15593 1.44976 0
M  V30 7796 C 717.537 4.1818 0.911553 0
M  V30 7797 C 716.863 4.91523 2.10497 0
M  V30 7798 C 718.163 5.22266 -0.059418 0
M  V30 7799 H 719.857 2.97771 -0.311936 0
M  V30 7800 H 717.403 1.43201 -0.151461 0
M  V30 7801 H 719.356 3.70091 2.01521 0
M  V30 7802 H 718.08 2.4648 2.14278 0
M  V30 7803 H 716.739 3.64746 0.368264 0
M  V30 7804 H 716.387 4.18906 2.78437 0
M  V30 7805 H 716.087 5.60898 1.7512 0
M  V30 7806 H 717.611 5.48847 2.6758 0
M  V30 7807 H 719.025 5.71789 0.415985 0
M  V30 7808 H 717.422 5.99213 -0.326152 0
M  V30 7809 H 718.492 4.7461 -0.993631 0
M  V30 7810 N 719.835 0.176821 1.56605 0
M  V30 7811 C 721.06 -0.47599 2.01864 0
M  V30 7812 C 721.485 -1.55645 1.05623 0
M  V30 7813 O 720.843 -1.81263 0.0366729 0
M  V30 7814 C 720.891 -1.02619 3.4569 0
M  V30 7815 O 719.995 -2.13996 3.52533 0
M  V30 7816 H 719.336 -0.113363 0.654251 0
M  V30 7817 H 721.866 0.28233 2.02643 0
M  V30 7818 H 721.876 -1.34742 3.85109 0
M  V30 7819 H 720.551 -0.235138 4.15235 0
M  V30 7820 H 719.128 -1.82876 3.24978 0
M  V30 7821 N 721.313 -1.57302 -0.09688 0
M  V30 7822 C 722.559 -1.86273 -0.801885 0
M  V30 7823 C 722.892 -0.765694 -1.78468 0
M  V30 7824 O 722.167 0.226495 -1.93177 0
M  V30 7825 C 722.45 -3.25876 -1.53221 0
M  V30 7826 C 722.303 -4.46205 -0.567529 0
M  V30 7827 C 723.622 -3.63352 -2.48321 0
M  V30 7828 H 720.741 -0.67752 -0.29006 0
M  V30 7829 H 723.383 -1.89887 -0.0655577 0
M  V30 7830 H 721.533 -3.22926 -2.15988 0
M  V30 7831 H 723.205 -4.6127 0.0529982 0
M  V30 7832 H 721.448 -4.33636 0.119233 0
M  V30 7833 H 722.119 -5.40608 -1.11564 0
M  V30 7834 H 724.595 -3.67234 -1.95648 0
M  V30 7835 H 723.471 -4.61968 -2.9644 0
M  V30 7836 H 723.732 -2.91941 -3.31998 0
M  V30 7837 N 722.791 0.367657 -1.53252 0
M  V30 7838 C 724.037 1.11216 -1.69584 0
M  V30 7839 C 724.37 1.89026 -0.445269 0
M  V30 7840 O 723.645 1.86342 0.557404 0
M  V30 7841 C 723.928 2.07308 -2.94441 0
M  V30 7842 C 723.781 1.3312 -4.2965 0
M  V30 7843 C 725.1 3.07459 -3.14892 0
M  V30 7844 H 722.219 0.40294 -0.617096 0
M  V30 7845 H 724.861 0.393201 -1.85887 0
M  V30 7846 H 723.011 2.68617 -2.80673 0
M  V30 7847 H 724.683 0.746111 -4.55226 0
M  V30 7848 H 722.926 0.633051 -4.29156 0
M  V30 7849 H 723.597 2.03443 -5.13142 0
M  V30 7850 H 726.073 2.56252 -3.27832 0
M  V30 7851 H 724.949 3.71919 -4.03693 0
M  V30 7852 H 725.21 3.77514 -2.30077 0
M  V30 7853 N 724.269 1.44576 0.627338 0
M  V30 7854 C 725.515 1.47777 1.38888 0
M  V30 7855 C 725.848 0.111406 1.9388 0
M  V30 7856 O 725.123 -0.87149 1.73883 0
M  V30 7857 C 725.406 2.54119 2.55138 0
M  V30 7858 C 725.259 4.00128 2.0547 0
M  V30 7859 C 726.578 2.56929 3.57317 0
M  V30 7860 H 723.697 0.538048 0.50366 0
M  V30 7861 H 726.339 1.76277 0.708978 0
M  V30 7862 H 724.489 2.29948 3.13139 0
M  V30 7863 H 726.161 4.35444 1.5227 0
M  V30 7864 H 724.404 4.11724 1.36623 0
M  V30 7865 H 725.075 4.7019 2.89181 0
M  V30 7866 H 727.551 2.78536 3.09122 0
M  V30 7867 H 726.427 3.33234 4.36173 0
M  V30 7868 H 726.688 1.6127 4.11636 0
M  V30 7869 N 725.747 -0.868086 1.31537 0
M  V30 7870 C 726.972 -1.65926 1.24432 0
M  V30 7871 C 727.397 -1.87169 -0.186936 0
M  V30 7872 O 726.755 -1.4148 -1.13371 0
M  V30 7873 C 726.803 -3.00347 1.9956 0
M  V30 7874 O 725.907 -3.90221 1.33422 0
M  V30 7875 H 725.248 -0.506375 0.429512 0
M  V30 7876 H 727.778 -1.0822 1.73637 0
M  V30 7877 H 727.788 -3.50269 2.09226 0
M  V30 7878 H 726.463 -2.84205 3.03645 0
M  V30 7879 H 725.04 -3.48672 1.32219 0
M  V30 7880 N 727.225 -1.14528 -1.08264 0
M  V30 7881 C 728.636 -0.925261 -1.6216 0
M  V30 7882 C 728.987 0.535587 -1.88748 0
M  V30 7883 O 728.112 1.4048 -1.64604 0
M  V30 7884 C 728.707 -1.67316 -2.94603 0
M  V30 7885 C 727.266 -1.49868 -3.45278 0
M  V30 7886 C 726.413 -1.69471 -2.19487 0
M  V30 7887 H 729.364 -1.29687 -0.914707 0
M  V30 7888 H 729.385 -1.13721 -3.63109 0
M  V30 7889 H 728.897 -2.73635 -2.75219 0
M  V30 7890 H 726.998 -0.459032 -3.69762 0
M  V30 7891 H 727.111 -2.2696 -4.21931 0
M  V30 7892 H 725.475 -1.12048 -2.2873 0
M  V30 7893 H 726.258 -2.77136 -2.0261 0
M  V30 7894 N 728.703 1.26451 -0.940633 0
M  V30 7895 C 729.951 1.93395 -0.586748 0
M  V30 7896 C 730.272 1.7417 0.876921 0
M  V30 7897 O 729.542 1.097 1.62304 0
M  V30 7898 H 728.122 0.715687 -0.214012 0
M  V30 7899 H 730.784 1.53902 -1.19584 0
M  V30 7900 H 729.88 3.01565 -0.804059 0
M  V30 7901 N 730.181 0.707592 1.40822 0
M  V30 7902 C 731.144 0.0587224 2.29125 0
M  V30 7903 C 732.144 -0.695624 1.44975 0
M  V30 7904 O 733.334 -0.528718 1.65983 0
M  V30 7905 C 730.466 -0.926939 3.28056 0
M  V30 7906 H 731.659 0.836349 2.88002 0
M  V30 7907 H 729.212 0.471778 1.4901 0
M  V30 7908 H 729.947 -1.7319 2.74182 0
M  V30 7909 H 729.732 -0.389015 3.90165 0
M  V30 7910 H 731.222 -1.37837 3.94196 0
M  V30 7911 N 731.66 -1.50943 0.453197 0
M  V30 7912 C 732.908 -2.01813 -0.107709 0
M  V30 7913 C 733.229 -1.33841 -1.41816 0
M  V30 7914 O 732.499 -0.477973 -1.8998 0
M  V30 7915 H 731.079 -0.745773 -0.0427948 0
M  V30 7916 H 733.741 -1.8545 0.599531 0
M  V30 7917 H 732.837 -3.10911 -0.27218 0
M  V30 7918 N 733.138 -0.185124 -1.56509 0
M  V30 7919 C 734.07 0.771401 -2.15829 0
M  V30 7920 C 735.083 1.18392 -1.11747 0
M  V30 7921 O 736.272 1.12137 -1.38879 0
M  V30 7922 C 733.372 2.05169 -2.69739 0
M  V30 7923 C 732.545 1.80056 -3.98621 0
M  V30 7924 C 731.604 2.92435 -4.37456 0
M  V30 7925 O 730.63 2.62473 -5.05071 0
M  V30 7926 N 731.832 4.20554 -4.00143 0
M  V30 7927 H 734.597 0.264184 -2.98533 0
M  V30 7928 H 732.158 -0.00281069 -1.619 0
M  V30 7929 H 734.15 2.7947 -2.92709 0
M  V30 7930 H 732.72 2.47041 -1.91545 0
M  V30 7931 H 731.94 0.895862 -3.83885 0
M  V30 7932 H 733.228 1.60662 -4.82768 0
M  V30 7933 H 732.626 4.47753 -3.45736 0
M  V30 7934 H 731.183 4.91514 -4.28085 0
M  V30 7935 N 734.616 1.57351 0.0885366 0
M  V30 7936 C 735.563 2.02523 1.10693 0
M  V30 7937 C 736.533 0.902736 1.39427 0
M  V30 7938 O 737.718 1.16921 1.50779 0
M  V30 7939 C 734.858 2.46013 2.42016 0
M  V30 7940 C 733.971 3.7181 2.19957 0
M  V30 7941 C 733.106 4.04152 3.44724 0
M  V30 7942 C 732.145 5.2304 3.17956 0
M  V30 7943 N 731.282 5.51102 4.35007 0
M  V30 7944 H 736.122 2.89302 0.714742 0
M  V30 7945 H 733.659 1.43084 0.341378 0
M  V30 7946 H 735.617 2.69274 3.18665 0
M  V30 7947 H 734.247 1.62235 2.79069 0
M  V30 7948 H 733.299 3.55987 1.34079 0
M  V30 7949 H 734.611 4.58604 1.96173 0
M  V30 7950 H 733.765 4.28225 4.29777 0
M  V30 7951 H 732.504 3.15893 3.71568 0
M  V30 7952 H 731.509 4.98781 2.31296 0
M  V30 7953 H 732.734 6.12902 2.92451 0
M  V30 7954 H 730.68 4.65802 4.61914 0
M  V30 7955 H 730.597 6.3228 4.14437 0
M  V30 7956 H 731.865 5.79714 5.21106 0
M  V30 7957 N 736.094 -0.359525 1.53444 0
M  V30 7958 C 737.505 -0.936009 1.61542 0
M  V30 7959 C 737.856 -1.90069 0.486633 0
M  V30 7960 O 736.981 -2.12929 -0.386047 0
M  V30 7961 C 737.576 -1.70441 2.92806 0
M  V30 7962 C 736.135 -2.23015 3.03218 0
M  V30 7963 C 735.282 -1.04438 2.56881 0
M  V30 7964 H 738.233 -0.138134 1.58098 0
M  V30 7965 H 738.254 -2.56609 2.80948 0
M  V30 7966 H 737.766 -1.00205 3.74941 0
M  V30 7967 H 735.867 -2.96475 2.25684 0
M  V30 7968 H 735.98 -2.50481 4.08407 0
M  V30 7969 H 734.344 -1.41314 2.11902 0
M  V30 7970 H 735.127 -0.356905 3.4144 0
M  V30 7971 N 737.572 -1.44907 -0.619662 0
M  V30 7972 C 738.535 -1.52282 -1.71297 0
M  V30 7973 C 739.535 -0.40359 -1.55653 0
M  V30 7974 O 740.725 -0.666638 -1.6094 0
M  V30 7975 C 737.857 -1.40778 -3.10474 0
M  V30 7976 H 739.05 -2.49683 -1.66128 0
M  V30 7977 H 736.603 -1.32168 -0.834339 0
M  V30 7978 H 737.338 -0.445156 -3.2123 0
M  V30 7979 H 737.123 -2.21947 -3.23237 0
M  V30 7980 H 738.613 -1.48946 -3.90135 0
M  V30 7981 N 739.05 0.861098 -1.31996 0
M  V30 7982 C 740.28 1.64501 -1.24992 0
M  V30 7983 C 740.688 1.88288 0.185576 0
M  V30 7984 O 740.031 1.44756 1.131 0
M  V30 7985 C 740.093 3.03098 -1.93319 0
M  V30 7986 C 739.757 3.02381 -3.42658 0
M  V30 7987 C 740.754 2.79696 -4.38254 0
M  V30 7988 C 738.439 3.23221 -3.84491 0
M  V30 7989 C 740.433 2.77843 -5.73657 0
M  V30 7990 C 738.12 3.20996 -5.20005 0
M  V30 7991 C 739.118 2.98335 -6.14398 0
M  V30 7992 O 738.806 2.95971 -7.47433 0
M  V30 7993 H 738.538 0.519309 -0.432775 0
M  V30 7994 H 741.092 1.08241 -1.74565 0
M  V30 7995 H 739.322 3.61121 -1.38306 0
M  V30 7996 H 741.011 3.63751 -1.8011 0
M  V30 7997 H 741.777 2.63368 -4.07262 0
M  V30 7998 H 737.656 3.39887 -3.11445 0
M  V30 7999 H 741.2 2.60074 -6.47308 0
M  V30 8000 H 737.097 3.36865 -5.50629 0
M  V30 8001 H 737.865 3.1197 -7.56714 0
M  V30 8002 N 740.528 1.15101 1.07655 0
M  V30 8003 C 741.458 0.867864 2.16773 0
M  V30 8004 C 742.439 -0.180283 1.69142 0
M  V30 8005 O 743.624 -0.0353152 1.94168 0
M  V30 8006 C 740.754 0.35299 3.45501 0
M  V30 8007 C 739.708 1.33746 4.06566 0
M  V30 8008 C 739.034 0.681562 5.30338 0
M  V30 8009 C 740.334 2.7024 4.46954 0
M  V30 8010 H 742.028 1.78034 2.40716 0
M  V30 8011 H 739.574 0.857435 1.15689 0
M  V30 8012 H 741.527 0.142465 4.21159 0
M  V30 8013 H 740.251 -0.594945 3.21135 0
M  V30 8014 H 738.91 1.53429 3.32949 0
M  V30 8015 H 738.558 -0.272422 5.02262 0
M  V30 8016 H 738.258 1.33853 5.72151 0
M  V30 8017 H 739.782 0.48074 6.08705 0
M  V30 8018 H 741.196 2.5442 5.13754 0
M  V30 8019 H 739.593 3.32282 4.99709 0
M  V30 8020 H 740.663 3.26537 3.58471 0
M  V30 8021 N 742.006 -1.2595 0.947325 0
M  V30 8022 C 742.936 -2.28521 0.479604 0
M  V30 8023 C 743.917 -1.63469 -0.470293 0
M  V30 8024 O 745.102 -1.90627 -0.370824 0
M  V30 8025 C 742.232 -3.46397 -0.250289 0
M  V30 8026 C 741.186 -4.23578 0.613643 0
M  V30 8027 C 740.512 -5.34131 -0.246568 0
M  V30 8028 C 741.812 -4.86979 1.88809 0
M  V30 8029 H 743.506 -2.67895 1.33688 0
M  V30 8030 H 741.052 -1.28783 0.644274 0
M  V30 8031 H 743.005 -4.17269 -0.588576 0
M  V30 8032 H 741.729 -3.05993 -1.14175 0
M  V30 8033 H 740.388 -3.54478 0.93491 0
M  V30 8034 H 740.036 -4.89968 -1.13756 0
M  V30 8035 H 739.736 -5.86683 0.328123 0
M  V30 8036 H 741.26 -6.07839 -0.579986 0
M  V30 8037 H 742.674 -5.50034 1.61666 0
M  V30 8038 H 741.071 -5.49675 2.40784 0
M  V30 8039 H 742.141 -4.09575 2.5957 0
M  V30 8040 N 743.484 -0.715051 -1.40445 0
M  V30 8041 C 744.733 -0.251322 -2.00128 0
M  V30 8042 C 745.046 1.16194 -1.57347 0
M  V30 8043 O 746.252 1.72416 -2.09726 0
M  V30 8044 C 744.708 -0.398407 -3.57688 0
M  V30 8045 C 744.316 -1.81828 -4.09442 0
M  V30 8046 C 746.06 0.00455625 -4.245 0
M  V30 8047 C 743.967 -1.91598 -5.59503 0
M  V30 8048 H 742.897 -0.0902081 -0.748584 0
M  V30 8049 H 745.548 -0.886062 -1.6069 0
M  V30 8050 H 743.93 0.304908 -3.94824 0
M  V30 8051 H 745.104 -2.55193 -3.83684 0
M  V30 8052 H 743.419 -2.17266 -3.55225 0
M  V30 8053 H 746.016 -0.0477303 -5.34679 0
M  V30 8054 H 746.359 1.04636 -4.02935 0
M  V30 8055 H 746.892 -0.649184 -3.92467 0
M  V30 8056 H 743.631 -2.93898 -5.85922 0
M  V30 8057 H 743.151 -1.22644 -5.87127 0
M  V30 8058 H 744.83 -1.68785 -6.24596 0
M  V30 8059 N 744.962 1.50701 -0.461195 0
M  V30 8060 C 745.892 2.31182 0.328184 0
M  V30 8061 C 746.873 1.37644 0.999408 0
M  V30 8062 O 748.058 1.66565 0.99848 0
M  V30 8063 C 745.188 3.17113 1.41621 0
M  V30 8064 C 744.142 4.19124 0.867148 0
M  V30 8065 C 743.468 4.93728 2.05272 0
M  V30 8066 C 744.768 5.22174 -0.114808 0
M  V30 8067 H 746.462 2.97423 -0.343501 0
M  V30 8068 H 744.008 1.43033 -0.166641 0
M  V30 8069 H 745.961 3.72208 1.97584 0
M  V30 8070 H 744.685 2.48739 2.11652 0
M  V30 8071 H 743.344 3.65116 0.329557 0
M  V30 8072 H 742.992 4.21835 2.73978 0
M  V30 8073 H 742.692 5.62724 1.69161 0
M  V30 8074 H 744.216 5.51654 2.61744 0
M  V30 8075 H 745.63 5.72198 0.355316 0
M  V30 8076 H 744.027 5.98833 -0.389689 0
M  V30 8077 H 745.097 4.7353 -1.04391 0
M  V30 8078 N 746.441 0.193421 1.56409 0
M  V30 8079 C 747.389 -0.744829 2.20352 0
M  V30 8080 C 748.383 -1.22104 1.17418 0
M  V30 8081 O 749.589 -1.18413 1.35567 0
M  V30 8082 H 745.964 -0.258538 0.70616 0
M  V30 8083 H 747.935 -0.181794 2.97846 0
M  V30 8084 C 746.684 -1.95453 2.87565 0
M  V30 8085 H 746.007 -1.59716 3.66512 0
M  V30 8086 H 747.447 -2.58942 3.35745 0
M  V30 8087 C 745.906 -2.79223 1.8851 0
M  V30 8088 O 746.436 -3.77093 1.38434 0
M  V30 8089 N 744.642 -2.44682 1.56777 0
M  V30 8090 H 744.189 -1.65153 1.97692 0
M  V30 8091 H 744.147 -3.01016 0.907573 0
M  V30 8092 N 747.919 -1.57396 -0.0801906 0
M  V30 8093 C 748.882 -2.02133 -1.0805 0
M  V30 8094 C 749.882 -0.91707 -1.32085 0
M  V30 8095 O 751.072 -1.18217 -1.27947 0
M  V30 8096 C 748.204 -2.39479 -2.42616 0
M  V30 8097 H 749.397 -2.91733 -0.6951 0
M  V30 8098 H 746.95 -1.52869 -0.325677 0
M  V30 8099 H 747.685 -1.52879 -2.86004 0
M  V30 8100 H 747.47 -3.20052 -2.26515 0
M  V30 8101 H 748.96 -2.74697 -3.14534 0
M  V30 8102 N 749.397 0.351382 -1.53633 0
M  V30 8103 C 750.344 1.43115 -1.81071 0
M  V30 8104 C 751.314 1.52601 -0.655913 0
M  V30 8105 O 752.499 1.68264 -0.89955 0
M  V30 8106 C 749.639 2.79874 -2.01903 0
M  V30 8107 C 748.752 2.79242 -3.29618 0
M  V30 8108 C 747.887 4.07667 -3.40559 0
M  V30 8109 C 746.926 4.01233 -4.62254 0
M  V30 8110 N 746.063 5.21334 -4.70271 0
M  V30 8111 H 750.903 1.19017 -2.73201 0
M  V30 8112 H 748.44 0.576691 -1.35324 0
M  V30 8113 H 750.398 3.5934 -2.11969 0
M  V30 8114 H 749.028 3.0234 -1.13094 0
M  V30 8115 H 748.08 1.91927 -3.28433 0
M  V30 8116 H 749.392 2.70363 -4.19172 0
M  V30 8117 H 748.546 4.95555 -3.50015 0
M  V30 8118 H 747.285 4.19317 -2.49047 0
M  V30 8119 H 746.29 3.11732 -4.52884 0
M  V30 8120 H 747.515 3.91173 -5.55122 0
M  V30 8121 H 745.461 5.33543 -3.81665 0
M  V30 8122 H 745.378 5.14681 -5.5375 0
M  V30 8123 H 746.646 6.11014 -4.84027 0
M  V30 8124 N 750.875 1.45233 0.611969 0
M  V30 8125 C 752.152 1.39495 1.37115 0
M  V30 8126 C 752.532 0.0633303 2.11005 0
M  V30 8127 O 751.88 -0.954617 2.07604 0
M  V30 8128 C 752.09 2.60579 2.32163 0
M  V30 8129 C 753.438 3.05477 2.94905 0
M  V30 8130 O 754.462 2.60921 2.42485 0
M  V30 8131 O 753.321 3.82787 3.90047 0
M  V30 8132 H 750.415 0.55335 0.614599 0
M  V30 8133 H 752.961 1.57355 0.635423 0
M  V30 8134 H 751.733 3.49085 1.76793 0
M  V30 8135 H 751.356 2.45031 3.13122 0
M  V30 8136 N 752.353 -0.854086 1.3245 0
M  V30 8137 C 753.283 -1.97827 1.24044 0
M  V30 8138 C 754.264 -1.69646 0.124166 0
M  V30 8139 O 755.449 -1.91687 0.31143 0
M  V30 8140 C 752.579 -3.33673 0.963324 0
M  V30 8141 C 751.533 -3.76207 2.04089 0
M  V30 8142 C 750.859 -5.0969 1.61618 0
M  V30 8143 C 752.159 -3.91612 3.45597 0
M  V30 8144 H 753.853 -2.05118 2.18099 0
M  V30 8145 H 751.399 -0.985489 1.04996 0
M  V30 8146 H 753.352 -4.11871 0.891061 0
M  V30 8147 H 752.076 -3.26597 -0.0128649 0
M  V30 8148 H 750.735 -3.0026 2.10332 0
M  V30 8149 H 750.383 -4.99072 0.627418 0
M  V30 8150 H 750.083 -5.3912 2.33717 0
M  V30 8151 H 751.607 -5.90381 1.55829 0
M  V30 8152 H 753.021 -4.60163 3.4194 0
M  V30 8153 H 751.418 -4.3246 4.16051 0
M  V30 8154 H 752.488 -2.9451 3.85217 0
M  V30 8155 N 753.831 -1.1567 -1.07043 0
M  V30 8156 C 755.056 -0.957946 -1.83952 0
M  V30 8157 C 755.481 0.488807 -1.81638 0
M  V30 8158 O 754.839 1.34869 -1.21162 0
M  V30 8159 C 754.887 -1.48064 -3.288 0
M  V30 8160 O 753.991 -0.681921 -4.06723 0
M  V30 8161 H 753.332 -0.341453 -0.569479 0
M  V30 8162 H 755.862 -1.53728 -1.35015 0
M  V30 8163 H 755.872 -1.49484 -3.7963 0
M  V30 8164 H 754.547 -2.53388 -3.29799 0
M  V30 8165 H 753.124 -0.737612 -3.65532 0
M  V30 8166 N 755.309 1.25446 -0.953992 0
M  V30 8167 C 756.219 2.29632 -0.480264 0
M  V30 8168 C 757.235 1.68025 0.452071 0
M  V30 8169 O 758.411 1.98703 0.328472 0
M  V30 8170 C 755.476 3.45903 0.234974 0
M  V30 8171 C 754.537 4.22953 -0.735495 0
M  V30 8172 C 753.77 5.33672 -0.0542957 0
M  V30 8173 O 753.993 5.58477 1.16018 0
M  V30 8174 O 752.927 5.9734 -0.739509 0
M  V30 8175 H 756.753 2.72242 -1.34602 0
M  V30 8176 H 754.338 1.30883 -0.720419 0
M  V30 8177 H 756.22 4.16552 0.637341 0
M  V30 8178 H 754.895 3.05296 1.07592 0
M  V30 8179 H 753.802 3.54734 -1.18806 0
M  V30 8180 H 755.135 4.67341 -1.54444 0
M  V30 8181 N 756.787 0.722489 1.40064 0
M  V30 8182 C 758.033 0.265371 2.01056 0
M  V30 8183 C 758.366 -1.14062 1.57174 0
M  V30 8184 O 757.641 -1.77514 0.794916 0
M  V30 8185 C 757.924 0.353157 3.58364 0
M  V30 8186 C 757.777 1.79802 4.123 0
M  V30 8187 C 759.096 -0.271677 4.39261 0
M  V30 8188 H 756.215 0.0979002 0.730469 0
M  V30 8189 H 758.857 0.916289 1.66446 0
M  V30 8190 H 757.007 -0.201037 3.87979 0
M  V30 8191 H 758.679 2.40813 3.93455 0
M  V30 8192 H 756.922 2.32348 3.66329 0
M  V30 8193 H 757.593 1.81079 5.21454 0
M  V30 8194 H 760.069 0.200607 4.15616 0
M  V30 8195 H 758.945 -0.179843 5.48605 0
M  V30 8196 H 759.206 -1.35611 4.20787 0
M  V30 8197 N 758.265 -1.50454 0.469181 0
M  V30 8198 C 759.228 -2.2703 -0.314643 0
M  V30 8199 C 760.228 -1.31734 -0.922111 0
M  V30 8200 O 761.418 -1.55176 -0.791588 0
M  V30 8201 C 758.55 -3.08616 -1.44806 0
M  V30 8202 H 759.743 -2.97769 0.356892 0
M  V30 8203 H 757.296 -1.54698 0.223191 0
M  V30 8204 H 758.031 -2.42369 -2.1547 0
M  V30 8205 H 757.816 -3.78647 -1.01829 0
M  V30 8206 H 759.306 -3.66536 -2.00103 0
M  V30 8207 N 759.743 -0.201713 -1.56304 0
M  V30 8208 C 761.159 0.154025 -1.58855 0
M  V30 8209 C 761.359 1.60516 -1.21807 0
M  V30 8210 O 760.415 2.34193 -0.94393 0
M  V30 8211 C 761.728 -0.154319 -3.00304 0
M  V30 8212 C 763.276 -0.0949578 -3.12856 0
M  V30 8213 C 763.751 -0.376703 -4.56448 0
M  V30 8214 N 765.242 -0.325558 -4.62054 0
M  V30 8215 C 765.977 -0.51732 -5.71062 0
M  V30 8216 N 765.473 -0.769789 -6.8851 0
M  V30 8217 N 767.266 -0.45112 -5.60287 0
M  V30 8218 H 759.417 -1.14858 -1.78666 0
M  V30 8219 H 761.68 -0.458934 -0.829508 0
M  V30 8220 H 761.386 -1.16074 -3.31994 0
M  V30 8221 H 761.26 0.540014 -3.73314 0
M  V30 8222 H 763.647 0.902075 -2.80974 0
M  V30 8223 H 763.728 -0.822468 -2.42217 0
M  V30 8224 H 763.372 -1.37108 -4.89044 0
M  V30 8225 H 763.302 0.371772 -5.25286 0
M  V30 8226 H 765.793 -0.137308 -3.7765 0
M  V30 8227 H 766.106 -0.904744 -7.67486 0
M  V30 8228 H 764.451 -0.806758 -6.90302 0
M  V30 8229 H 767.642 -0.254253 -4.67409 0
M  V30 8230 H 767.815 -0.603982 -6.45179 0
M  V30 8231 N 761.222 1.57436 0.0718424 0
M  V30 8232 C 762.185 2.02703 1.06977 0
M  V30 8233 C 763.185 0.924062 1.31597 0
M  V30 8234 O 764.375 1.18894 1.27318 0
M  V30 8235 C 761.507 2.40763 2.41342 0
M  V30 8236 H 762.7 2.92098 0.679619 0
M  V30 8237 H 760.253 1.5304 0.317565 0
M  V30 8238 H 760.988 1.54394 2.8519 0
M  V30 8239 H 760.773 3.21249 2.24814 0
M  V30 8240 H 762.263 2.76361 3.13073 0
M  V30 8241 N 762.7 -0.34323 1.53817 0
M  V30 8242 C 763.61 -1.44493 1.84821 0
M  V30 8243 C 764.626 -1.57556 0.738381 0
M  V30 8244 O 765.802 -1.73026 1.03072 0
M  V30 8245 C 762.867 -2.79478 2.05166 0
M  V30 8246 C 761.928 -2.75756 3.29025 0
M  V30 8247 C 761.161 -4.04302 3.4839 0
M  V30 8248 O 761.384 -5.01595 2.71586 0
M  V30 8249 O 760.318 -4.08754 4.41819 0
M  V30 8250 H 764.144 -1.21209 2.78464 0
M  V30 8251 H 761.729 -0.535437 1.39476 0
M  V30 8252 H 763.611 -3.59419 2.19991 0
M  V30 8253 H 762.286 -3.02692 1.14713 0
M  V30 8254 H 761.193 -1.94434 3.19603 0
M  V30 8255 H 762.526 -2.57495 4.19472 0
M  V30 8256 N 764.178 -1.45556 -0.604258 0
M  V30 8257 C 765.424 -1.49968 -1.36519 0
M  V30 8258 C 765.757 -0.142236 -1.93678 0
M  V30 8259 O 765.032 0.843717 -1.75247 0
M  V30 8260 C 765.315 -2.58146 -2.51063 0
M  V30 8261 C 765.168 -4.03346 -1.99078 0
M  V30 8262 C 766.487 -2.62581 -3.53184 0
M  V30 8263 H 763.606 -0.545993 -0.495036 0
M  V30 8264 H 766.248 -1.77382 -0.680845 0
M  V30 8265 H 764.398 -2.34901 -3.09441 0
M  V30 8266 H 766.07 -4.37811 -1.45323 0
M  V30 8267 H 764.313 -4.13845 -1.30055 0
M  V30 8268 H 764.984 -4.74731 -2.81664 0
M  V30 8269 H 767.46 -2.83419 -3.04652 0
M  V30 8270 H 766.336 -3.40131 -4.30816 0
M  V30 8271 H 766.597 -1.67798 -4.09019 0
M  V30 8272 N 765.656 0.84705 -1.32902 0
M  V30 8273 C 766.566 1.98845 -1.2449 0
M  V30 8274 C 767.582 1.7329 -0.15702 0
M  V30 8275 O 768.758 1.978 -0.379104 0
M  V30 8276 C 765.823 3.32679 -0.975985 0
M  V30 8277 C 764.884 3.71405 -2.15306 0
M  V30 8278 C 764.117 4.98853 -1.89688 0
M  V30 8279 O 764.34 5.64134 -0.843168 0
M  V30 8280 O 763.274 5.34889 -2.76002 0
M  V30 8281 H 767.1 2.0888 -2.2046 0
M  V30 8282 H 764.685 0.978852 -1.12867 0
M  V30 8283 H 766.567 4.12885 -0.842826 0
M  V30 8284 H 765.242 3.23667 -0.0464954 0
M  V30 8285 H 764.149 2.91743 -2.34172 0
M  V30 8286 H 765.482 3.85073 -3.06561 0
M  V30 8287 N 767.134 1.16236 1.06428 0
M  V30 8288 C 768.383 0.937523 1.78587 0
M  V30 8289 C 768.696 -0.536 1.88113 0
M  V30 8290 O 769.902 -0.878697 2.56887 0
M  V30 8291 C 768.358 1.62808 3.2097 0
M  V30 8292 C 767.966 3.13927 3.19615 0
M  V30 8293 C 769.71 1.48515 3.97673 0
M  V30 8294 C 767.617 3.75727 4.56709 0
M  V30 8295 H 766.547 0.347125 0.669343 0
M  V30 8296 H 769.198 1.39353 1.19385 0
M  V30 8297 H 767.58 1.09977 3.80422 0
M  V30 8298 H 768.754 3.7359 2.69753 0
M  V30 8299 H 767.069 3.28089 2.56411 0
M  V30 8300 H 769.666 1.92069 4.99013 0
M  V30 8301 H 770.009 0.433913 4.14032 0
M  V30 8302 H 770.542 1.98494 3.44739 0
M  V30 8303 H 767.281 4.80793 4.45554 0
M  V30 8304 H 766.801 3.20849 5.0677 0
M  V30 8305 H 768.48 3.77203 5.25668 0
M  V30 8306 N 768.612 -1.24939 0.960631 0
M  V30 8307 C 769.56 -2.27659 0.47686 0
M  V30 8308 C 770.554 -1.63148 -0.455961 0
M  V30 8309 O 771.76 -1.76911 -0.332029 0
M  V30 8310 H 768.135 -0.739651 0.135723 0
M  V30 8311 H 770.106 -2.65844 1.35534 0
M  V30 8312 C 768.855 -3.46976 -0.224191 0
M  V30 8313 H 768.178 -3.96854 0.484471 0
M  V30 8314 H 769.618 -4.20717 -0.526615 0
M  V30 8315 C 768.077 -3.04159 -1.44876 0
M  V30 8316 O 768.607 -3.10697 -2.54618 0
M  V30 8317 N 766.813 -2.59284 -1.31226 0
M  V30 8318 H 766.36 -2.54164 -0.419361 0
M  V30 8319 H 766.318 -2.31 -2.13275 0
M  V30 8320 N 770.09 -0.729906 -1.39679 0
M  V30 8321 C 771.339 -0.272534 -1.9985 0
M  V30 8322 C 771.652 1.14519 -1.58571 0
M  V30 8323 O 772.858 1.70182 -2.11543 0
M  V30 8324 C 771.314 -0.436322 -3.57245 0
M  V30 8325 C 770.922 -1.86161 -4.0749 0
M  V30 8326 C 772.666 -0.0404679 -4.24481 0
M  V30 8327 C 770.573 -1.97522 -5.5744 0
M  V30 8328 H 769.503 -0.0981428 -0.747585 0
M  V30 8329 H 772.154 -0.903056 -1.59741 0
M  V30 8330 H 770.536 0.263015 -3.95126 0
M  V30 8331 H 771.71 -2.59248 -3.80955 0
M  V30 8332 H 770.025 -2.21021 -3.529 0
M  V30 8333 H 772.622 -0.104437 -5.34598 0
M  V30 8334 H 772.965 1.00357 -4.04023 0
M  V30 8335 H 773.498 -0.690774 -3.91757 0
M  V30 8336 H 770.237 -3.00096 -5.82771 0
M  V30 8337 H 769.757 -1.28864 -5.85794 0
M  V30 8338 H 771.436 -1.754 -6.22771 0
M  V30 8339 N 771.568 1.50203 -0.477153 0
M  V30 8340 C 772.979 1.86685 -0.0235041 0
M  V30 8341 C 773.33 1.39148 1.38319 0
M  V30 8342 O 772.455 0.759051 2.02651 0
M  V30 8343 C 773.05 3.38781 -0.0358767 0
M  V30 8344 C 771.609 3.74652 0.362327 0
M  V30 8345 C 770.756 2.7412 -0.41875 0
M  V30 8346 H 773.707 1.4286 -0.691133 0
M  V30 8347 H 773.728 3.72732 0.764924 0
M  V30 8348 H 773.24 3.73349 -1.05981 0
M  V30 8349 H 771.341 3.45686 1.39039 0
M  V30 8350 H 771.454 4.79063 0.059457 0
M  V30 8351 H 769.818 2.54376 0.128341 0
M  V30 8352 H 770.601 3.11532 -1.44231 0
M  V30 8353 N 773.046 0.209999 1.56195 0
M  V30 8354 C 774.292 -0.425442 1.98287 0
M  V30 8355 C 774.625 -1.60232 1.09724 0
M  V30 8356 O 773.9 -1.93902 0.152414 0
M  V30 8357 C 774.183 -0.871189 3.49403 0
M  V30 8358 C 774.036 0.308527 4.48741 0
M  V30 8359 C 775.355 -1.73146 4.04609 0
M  V30 8360 H 772.474 -0.153169 0.720908 0
M  V30 8361 H 775.116 0.303916 1.87554 0
M  V30 8362 H 773.266 -1.49266 3.58681 0
M  V30 8363 H 774.938 0.946487 4.51486 0
M  V30 8364 H 773.181 0.957878 4.23092 0
M  V30 8365 H 773.852 -0.0461143 5.51981 0
M  V30 8366 H 776.328 -1.2072 3.98203 0
M  V30 8367 H 775.204 -2.01228 5.10684 0
M  V30 8368 H 775.465 -2.69083 3.5078 0
M  V30 8369 N 774.524 -1.57472 -0.0634922 0
M  V30 8370 C 775.752 -1.91887 -0.773767 0
M  V30 8371 C 776.167 -0.806733 -1.70696 0
M  V30 8372 O 775.524 0.219383 -1.81177 0
M  V30 8373 C 775.575 -3.26092 -1.56034 0
M  V30 8374 O 775.296 -4.33029 -0.66464 0
M  V30 8375 C 776.797 -3.74573 -2.37087 0
M  V30 8376 H 774.017 -0.634074 -0.219525 0
M  V30 8377 H 776.561 -2.04476 -0.0312828 0
M  V30 8378 H 774.716 -3.15004 -2.25502 0
M  V30 8379 H 775.13 -5.10291 -1.21258 0
M  V30 8380 H 776.604 -4.71084 -2.87722 0
M  V30 8381 H 777.081 -3.04003 -3.16984 0
M  V30 8382 H 777.687 -3.88631 -1.72759 0
M  V30 8383 N 776.003 0.335068 -1.53997 0
M  V30 8384 C 777.25 1.07435 -1.71651 0
M  V30 8385 C 777.578 1.88378 -0.48413 0
M  V30 8386 O 776.833 1.8827 0.534139 0
M  V30 8387 C 777.132 2.0364 -2.9371 0
M  V30 8388 C 776.798 1.38942 -4.28959 0
M  V30 8389 C 775.46 1.21027 -4.65732 0
M  V30 8390 C 777.812 0.924083 -5.12943 0
M  V30 8391 C 775.14 0.552097 -5.84097 0
M  V30 8392 C 777.492 0.27978 -6.31981 0
M  V30 8393 C 776.156 0.0883843 -6.67441 0
M  V30 8394 H 775.426 0.393133 -0.628114 0
M  V30 8395 H 778.073 0.352712 -1.88224 0
M  V30 8396 H 776.378 2.82215 -2.71775 0
M  V30 8397 H 778.075 2.6085 -3.04562 0
M  V30 8398 H 774.665 1.53885 -4.00022 0
M  V30 8399 H 778.849 1.05032 -4.85059 0
M  V30 8400 H 774.105 0.392502 -6.10139 0
M  V30 8401 H 778.279 -0.0888479 -6.96343 0
M  V30 8402 H 775.906 -0.423657 -7.59019 0
M  V30 8403 N 777.481 1.45874 0.596531 0
M  V30 8404 C 778.431 1.5181 1.70111 0
M  V30 8405 C 779.415 0.380293 1.56341 0
M  V30 8406 O 780.607 0.627849 1.6549 0
M  V30 8407 C 777.736 1.49822 3.08883 0
M  V30 8408 C 776.822 2.68845 3.27998 0
M  V30 8409 N 777.213 3.93873 3.17329 0
M  V30 8410 C 775.511 2.64777 3.589 0
M  V30 8411 C 776.212 4.73371 3.38076 0
M  V30 8412 N 775.188 4.0501 3.62585 0
M  V30 8413 H 778.99 2.46289 1.60372 0
M  V30 8414 H 776.504 1.41321 0.800138 0
M  V30 8415 H 778.501 1.5216 3.8814 0
M  V30 8416 H 777.161 0.564086 3.19763 0
M  V30 8417 H 778.172 4.25329 2.95492 0
M  V30 8418 H 774.849 1.80323 3.7655 0
M  V30 8419 H 776.239 5.82357 3.35127 0
M  V30 8420 N 778.959 -0.83999 1.33349 0
M  V30 8421 C 780.207 -1.59202 1.24496 0
M  V30 8422 C 780.528 -1.94077 -0.189499 0
M  V30 8423 O 779.798 -1.60868 -1.11796 0
M  V30 8424 H 778.378 -0.590276 0.457802 0
M  V30 8425 H 781.04 -1.00394 1.67054 0
M  V30 8426 H 780.136 -2.52247 1.83788 0
M  V30 8427 N 780.437 -1.16799 -1.0581 0
M  V30 8428 C 781.367 -0.902241 -2.15364 0
M  V30 8429 C 782.348 0.153351 -1.69407 0
M  V30 8430 O 783.533 0.00442032 -1.94199 0
M  V30 8431 C 780.663 -0.407911 -3.44896 0
M  V30 8432 C 779.617 -1.40197 -4.04387 0
M  V30 8433 C 778.943 -0.765848 -5.29187 0
M  V30 8434 C 780.243 -2.77316 -4.42598 0
M  V30 8435 H 781.937 -1.81841 -2.37853 0
M  V30 8436 H 779.483 -0.875731 -1.14311 0
M  V30 8437 H 781.436 -0.20945 -4.20879 0
M  V30 8438 H 780.16 0.54378 -3.22041 0
M  V30 8439 H 778.819 -1.58707 -3.30466 0
M  V30 8440 H 778.467 0.192482 -5.02632 0
M  V30 8441 H 778.167 -1.42939 -5.69949 0
M  V30 8442 H 779.691 -0.577519 -6.07863 0
M  V30 8443 H 781.105 -2.62561 -5.09642 0
M  V30 8444 H 779.502 -3.4019 -4.94359 0
M  V30 8445 H 780.572 -3.32199 -3.53231 0
M  V30 8446 N 781.915 1.24427 -0.967243 0
M  V30 8447 C 783.162 1.92487 -0.62888 0
M  V30 8448 C 783.49 1.75623 0.835871 0
M  V30 8449 O 782.745 1.1027 1.61675 0
M  V30 8450 C 783.044 3.44568 -0.949096 0
M  V30 8451 C 782.71 3.816 -2.40192 0
M  V30 8452 C 781.372 3.9142 -2.799 0
M  V30 8453 C 783.724 3.99715 -3.34481 0
M  V30 8454 C 781.052 4.16771 -4.12939 0
M  V30 8455 C 783.404 4.26562 -4.67148 0
M  V30 8456 C 782.068 4.34601 -5.06634 0
M  V30 8457 H 781.338 0.704361 -0.230124 0
M  V30 8458 H 783.985 1.4772 -1.21864 0
M  V30 8459 H 782.29 3.90819 -0.277085 0
M  V30 8460 H 783.987 3.95436 -0.665692 0
M  V30 8461 H 780.577 3.74522 -2.08402 0
M  V30 8462 H 784.761 3.91531 -3.04987 0
M  V30 8463 H 780.017 4.21214 -4.43158 0
M  V30 8464 H 784.191 4.39523 -5.40178 0
M  V30 8465 H 781.818 4.53998 -6.09746 0
M  V30 8466 N 783.393 0.737304 1.3929 0
M  V30 8467 C 784.34 0.0988364 2.30588 0
M  V30 8468 C 785.31 -0.727206 1.49335 0
M  V30 8469 O 786.495 -0.686694 1.78014 0
M  V30 8470 C 783.635 -0.800734 3.35682 0
M  V30 8471 C 782.748 0.0381731 4.31983 0
M  V30 8472 C 781.883 -0.862884 5.24145 0
M  V30 8473 C 780.922 -0.0193639 6.12097 0
M  V30 8474 N 780.059 -0.87648 6.96608 0
M  V30 8475 H 784.899 0.883031 2.84617 0
M  V30 8476 H 782.436 0.447111 1.4014 0
M  V30 8477 H 784.394 -1.33676 3.95205 0
M  V30 8478 H 783.024 -1.55088 2.83103 0
M  V30 8479 H 782.076 0.691641 3.74059 0
M  V30 8480 H 783.388 0.690294 4.94 0
M  V30 8481 H 782.542 -1.46667 5.88705 0
M  V30 8482 H 781.281 -1.54878 4.62454 0
M  V30 8483 H 780.286 0.597202 5.46547 0
M  V30 8484 H 781.511 0.663348 6.75852 0
M  V30 8485 H 779.457 -1.54762 6.37483 0
M  V30 8486 H 779.374 -0.280892 7.55478 0
M  V30 8487 H 780.642 -1.46575 7.65595 0
M  V30 8488 N 784.871 -1.49948 0.485112 0
M  V30 8489 C 785.818 -2.28819 -0.301729 0
M  V30 8490 C 786.788 -1.34496 -0.974683 0
M  V30 8491 O 787.973 -1.63444 -0.984418 0
M  V30 8492 C 785.113 -3.16758 -1.36961 0
M  V30 8493 C 784.226 -4.26125 -0.710027 0
M  V30 8494 C 783.361 -5.01302 -1.75699 0
M  V30 8495 C 782.4 -6.02525 -1.07841 0
M  V30 8496 N 781.537 -6.70927 -2.06886 0
M  V30 8497 H 786.377 -2.95604 0.377127 0
M  V30 8498 H 783.914 -1.45764 0.197826 0
M  V30 8499 H 785.872 -3.66106 -2.00056 0
M  V30 8500 H 784.502 -2.51991 -2.01744 0
M  V30 8501 H 783.554 -3.80385 0.0338278 0
M  V30 8502 H 784.866 -4.98493 -0.175079 0
M  V30 8503 H 784.02 -5.54438 -2.46339 0
M  V30 8504 H 782.759 -4.28672 -2.32577 0
M  V30 8505 H 781.764 -5.48635 -0.357706 0
M  V30 8506 H 782.989 -6.77134 -0.516345 0
M  V30 8507 H 780.935 -6.01079 -2.62755 0
M  V30 8508 H 780.852 -7.39216 -1.58414 0
M  V30 8509 H 782.12 -7.28675 -2.76863 0
M  V30 8510 N 786.349 -0.21828 -1.56081 0
M  V30 8511 C 787.574 0.422302 -2.03055 0
M  V30 8512 C 787.999 1.5279 -1.09713 0
M  V30 8513 O 787.357 1.81102 -0.0847187 0
M  V30 8514 C 787.405 0.934177 -3.48289 0
M  V30 8515 O 786.509 2.04574 -3.58083 0
M  V30 8516 H 785.85 0.0959764 -0.657027 0
M  V30 8517 H 788.38 -0.335958 -2.01823 0
M  V30 8518 H 788.39 1.24484 -3.88546 0
M  V30 8519 H 787.065 0.124963 -4.15712 0
M  V30 8520 H 785.642 1.74196 -3.29712 0
M  V30 8521 O 787.866 1.61292 -0.0819188 0
M  V30 8522 H 788.557 1.86513 0.522732 0
M  V30 END ATOM
M  V30 BEGIN BOND
M  V30 END BOND
M  V30 END CTAB
M  END
$$$$
