drugbank_target|Q16595 Frataxin, mitochondrial (DB01592; DB14488; DB14489; DB14490; DB14491; DB14501)
 OpenBabel12092121063D

  0  0  0     0  0            999 V3000
M  V30 BEGIN CTAB
M  V30 COUNTS 3257 3292 0 0 0
M  V30 BEGIN ATOM
M  V30 1 H -0.908 1.98254 -0.117106 0
M  V30 2 N 0 1.576 0 0
M  V30 3 C 0.933 2.03868 1.02534 0
M  V30 4 C 1.911 0.928543 1.3348 0
M  V30 5 O 3.095 1.19667 1.45644 0
M  V30 6 C 0.222 2.43627 2.35294 0
M  V30 7 C -0.732 3.65373 2.2001 0
M  V30 8 S 0.101 5.13292 1.52614 0
M  V30 9 C 1.257 5.56322 2.86805 0
M  V30 10 H 1.49 2.90518 0.631377 0
M  V30 11 H -0.977 1.52953 0.210867 0
M  V30 12 H 0.981 2.67203 3.11629 0
M  V30 13 H -0.358 1.57376 2.7183 0
M  V30 14 H -1.165 3.90944 3.18086 0
M  V30 15 H -1.563 3.418 1.51819 0
M  V30 16 H 0.729 5.58782 3.83104 0
M  V30 17 H 1.672 6.56266 2.65933 0
M  V30 18 H 2.08 4.83886 2.90714 0
M  V30 19 N 1.4781 -0.272755 1.55222 0
M  V30 20 C 2.7241 -1.00172 1.77023 0
M  V30 21 C 3.0791 -1.83928 0.564633 0
M  V30 22 O 2.3721 -1.86416 -0.442674 0
M  V30 23 C 2.5661 -1.91642 3.01675 0
M  V30 24 C 2.3951 -1.16888 4.34243 0
M  V30 25 C 1.1651 -0.884464 4.97499 0
M  V30 26 C 3.3631 -0.55919 5.11251 0
M  V30 27 N 1.3451 -0.11015 6.13801 0
M  V30 28 C 2.7161 0.0809469 6.19947 0
M  V30 29 C 4.7711 -0.467058 4.95705 0
M  V30 30 C 3.4741 0.804335 7.14789 0
M  V30 31 C 5.5001 0.242739 5.90902 0
M  V30 32 C 4.8621 0.871613 6.98987 0
M  V30 33 H 0.9611 -0.348529 0.700037 0
M  V30 34 H 3.5451 -0.277365 1.92714 0
M  V30 35 H 1.7161 -2.61303 2.87359 0
M  V30 36 H 3.4481 -2.57901 3.1188 0
M  V30 37 H 0.2031 -1.18979 4.58411 0
M  V30 38 H 0.6271 0.264344 6.76484 0
M  V30 39 H 5.2691 -0.93894 4.12242 0
M  V30 40 H 2.9871 1.2879 7.97771 0
M  V30 41 H 6.5731 0.314347 5.8095 0
M  V30 42 H 5.4531 1.4121 7.71381 0
M  V30 43 N 2.9562 -1.48159 -0.537278 0
M  V30 44 C 4.1842 -1.59454 -1.31841 0
M  V30 45 C 4.5992 -0.252065 -1.8711 0
M  V30 46 O 3.9562 0.757621 -1.66031 0
M  V30 47 C 4.0072 -2.63546 -2.47439 0
M  V30 48 O 3.7282 -3.92583 -1.94449 0
M  V30 49 C 5.2292 -2.85212 -3.39366 0
M  V30 50 H 2.4492 -0.53785 -0.401196 0
M  V30 51 H 4.9932 -1.93932 -0.648891 0
M  V30 52 H 3.1482 -2.31946 -3.1029 0
M  V30 53 H 3.5622 -4.49629 -2.70063 0
M  V30 54 H 5.0362 -3.61863 -4.16844 0
M  V30 55 H 5.5132 -1.93765 -3.94147 0
M  V30 56 H 6.1192 -3.18086 -2.82314 0
M  V30 57 N 4.4343 0.785586 -1.36625 0
M  V30 58 C 5.3643 1.91259 -1.33949 0
M  V30 59 C 6.3453 1.68795 -0.210325 0
M  V30 60 O 7.5303 1.89854 -0.408561 0
M  V30 61 C 4.6603 3.28339 -1.13186 0
M  V30 62 C 3.6143 3.65335 -2.22967 0
M  V30 63 C 2.9403 5.00806 -1.87342 0
M  V30 64 C 4.2403 3.7352 -3.65075 0
M  V30 65 H 5.9343 1.93755 -2.28253 0
M  V30 66 H 3.4803 0.930788 -1.09874 0
M  V30 67 H 5.4333 4.06804 -1.09948 0
M  V30 68 H 4.1573 3.2624 -0.153332 0
M  V30 69 H 2.8163 2.89169 -2.25337 0
M  V30 70 H 2.4643 4.95233 -0.880545 0
M  V30 71 H 2.1643 5.26529 -2.60846 0
M  V30 72 H 3.6883 5.81687 -1.85667 0
M  V30 73 H 5.1023 4.42168 -3.64911 0
M  V30 74 H 3.4993 4.10731 -4.37516 0
M  V30 75 H 4.5693 2.74527 -3.99703 0
M  V30 76 N 5.9124 1.20967 1.01018 0
M  V30 77 C 7.1604 1.02172 1.74371 0
M  V30 78 C 7.4814 -0.446414 1.89821 0
M  V30 79 O 6.7514 -1.32234 1.44537 0
M  V30 80 H 5.3314 0.375066 0.646014 0
M  V30 81 H 7.9934 1.52187 1.21758 0
M  V30 82 H 7.0894 1.48538 2.74487 0
M  V30 83 N 7.3905 -1.2043 1.01659 0
M  V30 84 C 8.8065 -1.41852 0.731442 0
M  V30 85 C 9.0065 -1.89358 -0.688898 0
M  V30 86 O 8.0625 -2.06247 -1.45666 0
M  V30 87 C 9.3755 -2.44019 1.75714 0
M  V30 88 C 10.9235 -2.57785 1.77527 0
M  V30 89 C 11.3985 -3.63194 2.79023 0
M  V30 90 N 12.8895 -3.70678 2.77763 0
M  V30 91 C 13.6245 -4.51897 3.52954 0
M  V30 92 N 13.1205 -5.36921 4.37821 0
M  V30 93 N 14.9135 -4.4643 3.41551 0
M  V30 94 H 7.0645 -0.879093 1.93354 0
M  V30 95 H 9.3275 -0.448425 0.835236 0
M  V30 96 H 9.0335 -2.1611 2.77469 0
M  V30 97 H 8.9075 -3.43007 1.56927 0
M  V30 98 H 11.2945 -2.85023 0.764569 0
M  V30 99 H 11.3755 -1.58992 2.00387 0
M  V30 100 H 11.0195 -3.36699 3.80258 0
M  V30 101 H 10.9495 -4.61609 2.53425 0
M  V30 102 H 13.4405 -3.09944 2.16201 0
M  V30 103 H 13.7535 -5.95981 4.91962 0
M  V30 104 H 12.0985 -5.36424 4.41899 0
M  V30 105 H 15.2895 -3.79042 2.74672 0
M  V30 106 H 15.4625 -5.09491 4.00404 0
M  V30 107 N 8.8686 -0.792821 -1.36206 0
M  V30 108 C 10.2846 -0.474903 -1.52371 0
M  V30 109 C 10.4846 1.00622 -1.74578 0
M  V30 110 O 9.5406 1.79162 -1.77924 0
M  V30 111 C 10.8536 -1.3083 -2.70747 0
M  V30 112 C 12.4016 -1.30234 -2.84619 0
M  V30 113 C 12.8766 -2.11956 -4.06004 0
M  V30 114 N 14.3676 -2.09419 -4.13156 0
M  V30 115 C 15.1026 -2.69419 -5.06163 0
M  V30 116 N 14.5986 -3.3829 -6.04592 0
M  V30 117 N 16.3916 -2.59134 -4.98804 0
M  V30 118 H 8.5426 -1.75222 -1.20046 0
M  V30 119 H 10.8056 -0.745024 -0.586211 0
M  V30 120 H 10.5116 -2.35881 -2.6087 0
M  V30 121 H 10.3856 -0.95196 -3.6499 0
M  V30 122 H 12.7726 -0.259748 -2.93955 0
M  V30 123 H 12.8536 -1.69847 -1.91274 0
M  V30 124 H 12.4976 -3.16248 -3.97429 0
M  V30 125 H 12.4276 -1.69711 -4.98503 0
M  V30 126 H 14.9186 -1.59297 -3.42685 0
M  V30 127 H 15.2316 -3.81394 -6.7213 0
M  V30 128 H 13.5766 -3.42393 -6.04807 0
M  V30 129 H 16.7676 -2.04927 -4.20859 0
M  V30 130 H 16.9406 -3.06185 -5.711 0
M  V30 131 N 10.3467 1.47872 -0.545128 0
M  V30 132 C 11.3097 2.28337 0.198717 0
M  V30 133 C 12.3097 1.36255 0.853888 0
M  V30 134 O 13.4997 1.59003 0.711606 0
M  V30 135 C 10.6317 3.15585 1.28915 0
M  V30 136 H 11.8247 2.95567 -0.507941 0
M  V30 137 H 9.3777 1.53362 -0.301616 0
M  V30 138 H 10.1127 2.53019 2.02859 0
M  V30 139 H 9.8977 3.83337 0.824309 0
M  V30 140 H 11.3877 3.76243 1.81194 0
M  V30 141 N 11.8248 0.280983 1.55075 0
M  V30 142 C 13.0708 -0.33461 2.00021 0
M  V30 143 C 13.4038 -1.55063 1.16915 0
M  V30 144 O 12.6788 -1.93006 0.240646 0
M  V30 145 C 12.9618 -0.711007 3.53011 0
M  V30 146 C 12.8148 0.512766 4.46868 0
M  V30 147 C 14.1338 -1.54522 4.12081 0
M  V30 148 H 11.2528 -0.120147 0.727141 0
M  V30 149 H 13.8948 0.389097 1.85973 0
M  V30 150 H 12.0448 -1.32761 3.65112 0
M  V30 151 H 13.7168 1.15131 4.46702 0
M  V30 152 H 11.9598 1.14975 4.18286 0
M  V30 153 H 12.6308 0.205556 5.51617 0
M  V30 154 H 15.1068 -1.02442 4.03293 0
M  V30 155 H 13.9828 -1.77739 5.19327 0
M  V30 156 H 14.2438 -2.52813 3.62682 0
M  V30 157 N 13.3029 -1.57598 0.00835791 0
M  V30 158 C 14.2659 -2.07884 -0.965242 0
M  V30 159 C 15.2659 -0.989825 -1.26725 0
M  V30 160 O 16.4559 -1.25218 -1.21104 0
M  V30 161 C 13.5879 -2.52731 -2.28779 0
M  V30 162 H 14.7809 -2.95178 -0.530112 0
M  V30 163 H 12.3339 -1.54458 -0.239283 0
M  V30 164 H 13.0689 -1.68705 -2.76964 0
M  V30 165 H 12.8539 -3.32272 -2.08177 0
M  V30 166 H 14.3439 -2.91933 -2.98605 0
M  V30 167 N 14.781 0.264519 -1.55364 0
M  V30 168 C 16.029 0.993021 -1.76021 0
M  V30 169 C 16.35 1.86511 -0.569099 0
M  V30 170 O 15.62 1.91438 0.415735 0
M  V30 171 H 14.2 0.369639 -0.649135 0
M  V30 172 H 16.862 0.286707 -1.9278 0
M  V30 173 H 15.958 1.62502 -2.66457 0
M  V30 174 N 16.2591 1.48442 0.529413 0
M  V30 175 C 17.1891 1.65902 1.64313 0
M  V30 176 C 18.1701 0.507897 1.6234 0
M  V30 177 O 19.3551 0.740503 1.79528 0
M  V30 178 C 16.4851 1.69911 3.02898 0
M  V30 179 C 15.4391 2.8453 3.19729 0
M  V30 180 C 14.7651 2.73629 4.59381 0
M  V30 181 C 16.0651 4.25821 3.02447 0
M  V30 182 H 17.7591 2.5914 1.49955 0
M  V30 183 H 15.3051 1.24709 0.719982 0
M  V30 184 H 17.2581 1.80715 3.80684 0
M  V30 185 H 15.9821 0.732524 3.18279 0
M  V30 186 H 14.6411 2.73283 2.44361 0
M  V30 187 H 14.2891 1.74938 4.71599 0
M  V30 188 H 13.9891 3.50541 4.71588 0
M  V30 189 H 15.5131 2.86401 5.39265 0
M  V30 190 H 16.9271 4.37898 3.70024 0
M  V30 191 H 15.3241 5.03735 3.26146 0
M  V30 192 H 16.3941 4.42244 1.98867 0
M  V30 193 N 17.7372 -0.778329 1.37039 0
M  V30 194 C 18.6672 -1.90546 1.34962 0
M  V30 195 C 19.6482 -1.68681 0.219274 0
M  V30 196 O 20.8332 -1.89634 0.418624 0
M  V30 197 C 17.9632 -3.27734 1.14925 0
M  V30 198 C 16.9172 -3.64147 2.24902 0
M  V30 199 C 16.2432 -4.99806 1.89996 0
M  V30 200 C 17.5432 -3.71579 3.67051 0
M  V30 201 H 19.2372 -1.92541 2.29277 0
M  V30 202 H 16.7832 -0.924948 1.10366 0
M  V30 203 H 18.7362 -4.06215 1.12104 0
M  V30 204 H 17.4602 -3.26154 0.170631 0
M  V30 205 H 16.1192 -2.8797 2.26868 0
M  V30 206 H 15.7672 -4.94759 0.906796 0
M  V30 207 H 15.4672 -5.25139 2.63634 0
M  V30 208 H 16.9912 -5.80694 1.88749 0
M  V30 209 H 18.4052 -4.40227 3.67251 0
M  V30 210 H 16.8022 -4.08405 4.39688 0
M  V30 211 H 17.8722 -2.72404 4.01154 0
M  V30 212 N 19.2153 -1.21501 -1.00376 0
M  V30 213 C 20.1783 -0.976927 -2.07337 0
M  V30 214 C 21.1783 0.0525322 -1.60714 0
M  V30 215 O 22.3683 -0.184869 -1.73216 0
M  V30 216 C 19.5003 -0.473423 -3.37597 0
M  V30 217 H 20.6933 -1.92587 -2.29892 0
M  V30 218 H 18.2463 -1.03217 -1.17371 0
M  V30 219 H 18.9813 0.480379 -3.20722 0
M  V30 220 H 18.7663 -1.216 -3.72768 0
M  V30 221 H 20.2563 -0.32675 -4.1632 0
M  V30 222 N 20.6934 1.19889 -1.02296 0
M  V30 223 C 21.9184 1.9393 -0.735237 0
M  V30 224 C 22.3434 1.74639 0.698782 0
M  V30 225 O 21.7014 1.04481 1.48167 0
M  V30 226 C 21.7494 3.43916 -1.08417 0
M  V30 227 O 20.8534 4.11917 -0.199446 0
M  V30 228 H 20.1944 0.605645 -0.272196 0
M  V30 229 H 22.7244 1.52137 -1.36804 0
M  V30 230 H 22.7344 3.9456 -1.03856 0
M  V30 231 H 21.4094 3.5728 -2.12894 0
M  V30 232 H 19.9864 3.71666 -0.303136 0
M  V30 233 N 22.1715 0.800033 1.35784 0
M  V30 234 C 23.5825 0.439142 1.81462 0
M  V30 235 C 23.9335 -1.03813 1.66485 0
M  V30 236 O 23.0585 -1.80626 1.19177 0
M  V30 237 C 23.6535 0.790314 3.29453 0
M  V30 238 C 22.2125 0.482111 3.733 0
M  V30 239 C 21.3595 1.01938 2.57883 0
M  V30 240 H 24.3105 0.992254 1.23855 0
M  V30 241 H 24.3315 0.0853677 3.80404 0
M  V30 242 H 23.8435 1.86554 3.40322 0
M  V30 243 H 21.9445 -0.584652 3.67984 0
M  V30 244 H 22.0575 1.01015 4.6833 0
M  V30 245 H 20.4215 0.442043 2.50835 0
M  V30 246 H 21.2045 2.10059 2.71533 0
M  V30 247 N 23.6496 -1.47581 0.552962 0
M  V30 248 C 24.8746 -2.07378 0.0300593 0
M  V30 249 C 25.2996 -1.40355 -1.25229 0
M  V30 250 O 24.6576 -0.477099 -1.7491 0
M  V30 251 C 24.7056 -3.60274 -0.153231 0
M  V30 252 O 23.8096 -3.94041 -1.21678 0
M  V30 253 H 23.1506 -0.662158 0.0494182 0
M  V30 254 H 25.6806 -1.89662 0.767434 0
M  V30 255 H 25.6906 -4.0633 -0.368761 0
M  V30 256 H 24.3656 -4.08455 0.783397 0
M  V30 257 H 22.9426 -3.59735 -0.982079 0
M  V30 258 N 25.1277 -0.289203 -1.54924 0
M  V30 259 C 26.5387 0.205791 -1.85562 0
M  V30 260 C 26.8897 1.54351 -1.2112 0
M  V30 261 O 26.0147 2.10435 -0.504601 0
M  V30 262 C 26.6097 0.380177 -3.3666 0
M  V30 263 C 25.1687 0.819395 -3.67373 0
M  V30 264 C 24.3157 -0.079159 -2.77187 0
M  V30 265 H 27.2667 -0.510577 -1.50262 0
M  V30 266 H 27.2877 1.21659 -3.60526 0
M  V30 267 H 26.7997 -0.593589 -3.83534 0
M  V30 268 H 24.9007 1.80413 -3.26009 0
M  V30 269 H 25.0137 0.646957 -4.74712 0
M  V30 270 H 23.3777 0.439565 -2.50878 0
M  V30 271 H 24.1607 -1.04906 -3.26878 0
M  V30 272 N 26.6058 1.57591 -0.0167156 0
M  V30 273 C 27.5688 2.08393 0.954204 0
M  V30 274 C 28.5688 0.996531 1.26198 0
M  V30 275 O 29.7588 1.25858 1.20438 0
M  V30 276 C 26.8908 2.5394 2.27436 0
M  V30 277 H 28.0838 2.95455 0.514451 0
M  V30 278 H 25.6368 1.54582 0.231089 0
M  V30 279 H 26.3718 1.70171 2.76066 0
M  V30 280 H 26.1568 3.33371 2.06412 0
M  V30 281 H 27.6468 2.93512 2.97053 0
M  V30 282 N 28.0839 -0.256276 1.55502 0
M  V30 283 C 29.0159 -1.33981 1.85962 0
M  V30 284 C 30.0289 -1.44743 0.745212 0
M  V30 285 O 31.2179 -1.4626 1.02324 0
M  V30 286 C 28.3179 -2.7194 2.02242 0
M  V30 287 C 27.4909 -2.83562 3.33033 0
M  V30 288 C 26.5499 -4.02304 3.39172 0
M  V30 289 O 25.5759 -3.92273 4.12444 0
M  V30 290 N 26.7779 -5.15045 2.67784 0
M  V30 291 H 29.5429 -1.08191 2.7949 0
M  V30 292 H 27.1039 -0.446388 1.55624 0
M  V30 293 H 29.0959 -3.49697 2.03701 0
M  V30 294 H 27.6659 -2.90479 1.15502 0
M  V30 295 H 26.8859 -1.92555 3.43971 0
M  V30 296 H 28.1739 -2.88271 4.19258 0
M  V30 297 H 27.5719 -5.26085 2.07968 0
M  V30 298 H 26.1289 -5.90972 2.74947 0
M  V30 299 N 29.562 -1.4872 -0.521534 0
M  V30 300 C 30.525 -1.63379 -1.60748 0
M  V30 301 C 31.525 -0.50661 -1.52611 0
M  V30 302 O 32.715 -0.772601 -1.5613 0
M  V30 303 C 29.847 -1.61192 -3.00383 0
M  V30 304 H 31.04 -2.60217 -1.49087 0
M  V30 305 H 28.593 -1.37444 -0.744235 0
M  V30 306 H 29.328 -0.65863 -3.17541 0
M  V30 307 H 29.113 -2.43032 -3.07698 0
M  V30 308 H 30.603 -1.7466 -3.7932 0
M  V30 309 N 31.0401 0.771051 -1.3745 0
M  V30 310 C 31.9721 1.89352 -1.29146 0
M  V30 311 C 32.9851 1.61477 -0.207124 0
M  V30 312 O 34.1741 1.72382 -0.463324 0
M  V30 313 C 31.2741 3.24596 -0.974195 0
M  V30 314 C 30.4471 3.80111 -2.16413 0
M  V30 315 C 29.5061 4.93832 -1.81703 0
M  V30 316 O 28.5321 5.09382 -2.54006 0
M  V30 317 N 29.7341 5.75483 -0.761573 0
M  V30 318 H 32.4991 1.96991 -2.25864 0
M  V30 319 H 30.0601 0.950191 -1.31084 0
M  V30 320 H 32.0521 3.98193 -0.722828 0
M  V30 321 H 30.6221 3.12454 -0.0955527 0
M  V30 322 H 29.8421 2.98284 -2.57721 0
M  V30 323 H 31.1301 4.13932 -2.95867 0
M  V30 324 H 30.5281 5.65469 -0.161609 0
M  V30 325 H 29.0851 6.49302 -0.570064 0
M  V30 326 N 32.5182 1.22032 0.997298 0
M  V30 327 C 33.7462 1.06841 1.7718 0
M  V30 328 C 34.1612 -0.381325 1.84909 0
M  V30 329 O 33.5182 -1.26437 1.31605 0
M  V30 330 C 33.5692 1.66814 3.20711 0
M  V30 331 O 33.2902 3.06116 3.13408 0
M  V30 332 C 34.7912 1.56838 4.14628 0
M  V30 333 H 32.0112 0.374782 0.556578 0
M  V30 334 H 34.5552 1.61532 1.2541 0
M  V30 335 H 32.7102 1.16196 3.69564 0
M  V30 336 H 33.1242 3.34926 4.0364 0
M  V30 337 H 34.5982 2.03532 5.13107 0
M  V30 338 H 35.0752 0.524155 4.36061 0
M  V30 339 H 35.6812 2.06741 3.7167 0
M  V30 340 N 33.9963 -1.19345 1.0293 0
M  V30 341 C 34.9263 -2.2481 0.631105 0
M  V30 342 C 35.9073 -1.66245 -0.360104 0
M  V30 343 O 37.0923 -1.92677 -0.242726 0
M  V30 344 C 34.2223 -3.47295 -0.0184607 0
M  V30 345 C 33.1763 -4.18536 0.895073 0
M  V30 346 C 32.5023 -5.34586 0.110592 0
M  V30 347 C 33.8023 -4.73287 2.209 0
M  V30 348 H 35.4963 -2.58372 1.51275 0
M  V30 349 H 33.0423 -1.24194 0.728818 0
M  V30 350 H 34.9953 -4.20268 -0.308675 0
M  V30 351 H 33.7193 -3.12933 -0.934907 0
M  V30 352 H 32.3783 -3.47446 1.16949 0
M  V30 353 H 32.0263 -4.96469 -0.807902 0
M  V30 354 H 31.7263 -5.83183 0.719087 0
M  V30 355 H 33.2503 -6.10355 -0.172871 0
M  V30 356 H 34.6643 -5.38013 1.98028 0
M  V30 357 H 33.0613 -5.32373 2.76946 0
M  V30 358 H 34.1313 -3.91331 2.86336 0
M  V30 359 N 35.4744 -0.807222 -1.35358 0
M  V30 360 C 36.7024 -0.400377 -2.02989 0
M  V30 361 C 37.1174 0.988859 -1.60832 0
M  V30 362 O 36.4744 1.63729 -0.806175 0
M  V30 363 C 36.5254 -0.474867 -3.58368 0
M  V30 364 O 36.2464 -1.80933 -3.98992 0
M  V30 365 C 37.7474 -0.0609112 -4.43258 0
M  V30 366 H 34.9674 -0.162587 -0.651004 0
M  V30 367 H 37.5114 -1.09102 -1.72965 0
M  V30 368 H 35.6664 0.167534 -3.87038 0
M  V30 369 H 36.0804 -1.77256 -4.9364 0
M  V30 370 H 37.5544 -0.164145 -5.51756 0
M  V30 371 H 38.0314 0.993831 -4.27808 0
M  V30 372 H 38.6374 -0.676492 -4.19885 0
M  V30 373 N 36.9525 1.47285 -0.560781 0
M  V30 374 C 38.3685 1.58065 -0.22081 0
M  V30 375 C 38.5685 1.55892 1.27671 0
M  V30 376 O 37.6245 1.46422 2.0571 0
M  V30 377 C 38.9375 2.88418 -0.850625 0
M  V30 378 C 40.4855 3.02009 -0.822184 0
M  V30 379 C 40.9605 4.35066 -1.43113 0
M  V30 380 N 42.4515 4.41711 -1.39448 0
M  V30 381 C 43.1865 5.43237 -1.83525 0
M  V30 382 N 42.6825 6.51555 -2.35474 0
M  V30 383 N 44.4755 5.34304 -1.74574 0
M  V30 384 H 36.6265 1.46941 -1.53369 0
M  V30 385 H 38.8895 0.699558 -0.639783 0
M  V30 386 H 38.5955 2.95755 -1.9032 0
M  V30 387 H 38.4695 3.75612 -0.345773 0
M  V30 388 H 40.8565 2.94266 0.221714 0
M  V30 389 H 40.9375 2.16347 -1.36483 0
M  V30 390 H 40.5815 4.43565 -2.47412 0
M  V30 391 H 40.5115 5.19465 -0.863899 0
M  V30 392 H 43.0025 3.64027 -1.01452 0
M  V30 393 H 43.3155 7.25203 -2.67021 0
M  V30 394 H 41.6605 6.52435 -2.39487 0
M  V30 395 H 44.8515 4.48581 -1.33763 0
M  V30 396 H 45.0245 6.13288 -2.09242 0
M  V30 397 N 38.4306 0.297415 1.54768 0
M  V30 398 C 39.6766 -0.313376 2.00364 0
M  V30 399 C 40.0096 -1.53815 1.18553 0
M  V30 400 O 39.2846 -1.92739 0.261103 0
M  V30 401 C 39.5676 -0.673525 3.53745 0
M  V30 402 C 39.4206 0.560133 4.46299 0
M  V30 403 C 40.7396 -1.50143 4.13697 0
M  V30 404 H 37.8586 -0.112428 0.728374 0
M  V30 405 H 40.5006 0.4088 1.8555 0
M  V30 406 H 38.6506 -1.28881 3.665 0
M  V30 407 H 40.3226 1.19863 4.45455 0
M  V30 408 H 38.5656 1.19405 4.17043 0
M  V30 409 H 39.2366 0.26405 5.51368 0
M  V30 410 H 41.7126 -0.981588 4.04356 0
M  V30 411 H 40.5886 -1.72221 5.21182 0
M  V30 412 H 40.8496 -2.48952 3.65343 0
M  V30 413 N 39.9087 -1.5758 0.0250728 0
M  V30 414 C 41.3197 -1.79476 -0.514323 0
M  V30 415 C 41.6707 -0.934956 -1.72491 0
M  V30 416 O 40.7957 -0.144245 -2.15919 0
M  V30 417 C 41.3907 -3.25503 -0.939842 0
M  V30 418 C 39.9497 -3.48408 -1.42438 0
M  V30 419 C 39.0967 -2.74583 -0.387201 0
M  V30 420 H 42.0477 -1.567 0.25113 0
M  V30 421 H 42.0687 -3.34992 -1.80445 0
M  V30 422 H 41.5807 -3.88056 -0.0585628 0
M  V30 423 H 39.6817 -2.91103 -2.32572 0
M  V30 424 H 39.7947 -4.57119 -1.43455 0
M  V30 425 H 38.1587 -2.39942 -0.854409 0
M  V30 426 H 38.9417 -3.39849 0.485543 0
M  V30 427 N 41.3868 0.248026 -1.55636 0
M  V30 428 C 42.8028 0.596483 -1.48035 0
M  V30 429 C 43.0028 1.88386 -0.715039 0
M  V30 430 O 42.0588 2.51319 -0.243944 0
M  V30 431 C 43.3718 0.700258 -2.92433 0
M  V30 432 C 44.9198 0.792659 -3.02797 0
M  V30 433 C 45.3948 0.928005 -4.485 0
M  V30 434 N 46.8858 0.992903 -4.52433 0
M  V30 435 C 47.6208 1.11687 -5.62418 0
M  V30 436 N 47.1168 1.20645 -6.82214 0
M  V30 437 N 48.9098 1.14994 -5.50212 0
M  V30 438 H 41.0608 -0.597109 -2.03834 0
M  V30 439 H 43.3238 -0.205925 -0.925364 0
M  V30 440 H 43.0298 -0.175658 -3.51261 0
M  V30 441 H 42.9038 1.57255 -3.42857 0
M  V30 442 H 45.2908 1.65903 -2.4405 0
M  V30 443 H 45.3718 -0.104762 -2.55585 0
M  V30 444 H 45.0158 0.0661971 -5.07857 0
M  V30 445 H 44.9458 1.84045 -4.93391 0
M  V30 446 H 47.4368 0.935064 -3.66149 0
M  V30 447 H 47.7498 1.30008 -7.61786 0
M  V30 448 H 46.0948 1.17605 -6.84977 0
M  V30 449 H 49.2858 1.07643 -4.55555 0
M  V30 450 H 49.4588 1.24311 -6.35965 0
M  V30 451 N 42.8649 1.48995 0.513639 0
M  V30 452 C 44.2759 1.5119 1.09537 0
M  V30 453 C 44.6269 0.290906 1.94031 0
M  V30 454 O 43.7519 -0.60049 2.07902 0
M  V30 455 C 44.3469 2.73964 1.99322 0
M  V30 456 C 42.9059 2.78978 2.52682 0
M  V30 457 C 42.0529 2.44934 1.30009 0
M  V30 458 H 45.0039 1.55875 0.298125 0
M  V30 459 H 45.0249 2.53409 2.83838 0
M  V30 460 H 44.5369 3.62813 1.37799 0
M  V30 461 H 42.6379 1.94378 3.1788 0
M  V30 462 H 42.7509 3.8083 2.90698 0
M  V30 463 H 41.1149 1.9644 1.62122 0
M  V30 464 H 41.8979 3.36043 0.702131 0
M  V30 465 N 44.343 -0.763751 1.37857 0
M  V30 466 C 45.306 -1.85889 1.34081 0
M  V30 467 C 46.306 -1.58949 0.243277 0
M  V30 468 O 47.496 -1.66882 0.499589 0
M  V30 469 C 44.628 -3.23176 1.08489 0
M  V30 470 H 45.821 -1.90648 2.31502 0
M  V30 471 H 43.374 -0.964367 1.23003 0
M  V30 472 H 44.109 -3.24091 0.116318 0
M  V30 473 H 43.894 -3.44124 1.8794 0
M  V30 474 H 45.384 -4.03254 1.08517 0
M  V30 475 N 45.8211 -1.22559 -0.990812 0
M  V30 476 C 46.7311 -1.01394 -2.11557 0
M  V30 477 C 47.7471 0.0383962 -1.73958 0
M  V30 478 O 48.9231 -0.154787 -2.00804 0
M  V30 479 C 45.9881 -0.596569 -3.41529 0
M  V30 480 C 45.0491 -1.72276 -3.93217 0
M  V30 481 C 44.2821 -1.32521 -5.16985 0
M  V30 482 O 44.5051 -0.204909 -5.70032 0
M  V30 483 O 43.4391 -2.14247 -5.62478 0
M  V30 484 H 47.2651 -1.95633 -2.32296 0
M  V30 485 H 44.8501 -1.01172 -1.0993 0
M  V30 486 H 46.7321 -0.374263 -4.19735 0
M  V30 487 H 45.4071 0.316939 -3.22145 0
M  V30 488 H 44.3141 -1.99961 -3.16174 0
M  V30 489 H 45.6471 -2.61421 -4.17037 0
M  V30 490 N 47.2992 1.18797 -1.03562 0
M  V30 491 C 48.2292 2.24472 -0.643019 0
M  V30 492 C 49.2102 1.66433 0.351283 0
M  V30 493 O 50.3952 1.92803 0.232505 0
M  V30 494 C 47.5252 3.473 4.24935e-05 0
M  V30 495 C 46.4792 4.18055 -0.917257 0
M  V30 496 C 45.8052 5.34519 -0.138941 0
M  V30 497 C 47.1052 4.72109 -2.23407 0
M  V30 498 H 48.7992 2.57566 -1.52643 0
M  V30 499 H 46.3452 1.23806 -0.735394 0
M  V30 500 H 48.2982 4.20426 0.286383 0
M  V30 501 H 47.0222 3.13424 0.918299 0
M  V30 502 H 45.6812 3.46821 -1.1879 0
M  V30 503 H 45.3292 4.96891 0.781562 0
M  V30 504 H 45.0292 5.82794 -0.750005 0
M  V30 505 H 46.5532 6.10438 0.1405 0
M  V30 506 H 47.9672 5.36955 -2.00879 0
M  V30 507 H 46.3642 5.30897 -2.79765 0
M  V30 508 H 47.4342 3.89807 -2.88407 0
M  V30 509 N 48.7773 0.814389 1.34928 0
M  V30 510 C 49.7403 0.235759 2.27984 0
M  V30 511 C 50.7403 -0.581412 1.49921 0
M  V30 512 O 51.9303 -0.398758 1.69575 0
M  V30 513 C 49.0623 -0.670433 3.34242 0
M  V30 514 H 50.2553 1.05659 2.80671 0
M  V30 515 H 47.8083 0.585614 1.44915 0
M  V30 516 H 48.5433 -1.51466 2.86755 0
M  V30 517 H 48.3283 -0.0860822 3.92005 0
M  V30 518 H 49.8183 -1.06935 4.03676 0
M  V30 519 N 50.2554 -1.46986 0.568584 0
M  V30 520 C 51.6664 -1.86188 0.138219 0
M  V30 521 C 52.0174 -1.47388 -1.29504 0
M  V30 522 O 51.1424 -0.88219 -1.97602 0
M  V30 523 C 51.7374 -3.3792 0.244065 0
M  V30 524 C 50.2964 -3.76171 -0.131335 0
M  V30 525 C 49.4434 -2.71027 0.586465 0
M  V30 526 H 52.3944 -1.38342 0.777645 0
M  V30 527 H 52.4154 -3.76729 -0.534351 0
M  V30 528 H 51.9274 -3.66128 1.28731 0
M  V30 529 H 50.0284 -3.5358 -1.17526 0
M  V30 530 H 50.1414 -4.78523 0.235146 0
M  V30 531 H 48.5054 -2.54684 0.0282722 0
M  V30 532 H 49.2884 -3.02077 1.63109 0
M  V30 533 N 51.7335 -0.305618 -1.54608 0
M  V30 534 C 52.6635 0.561482 -2.26649 0
M  V30 535 C 53.6445 1.13415 -1.26772 0
M  V30 536 O 54.8295 1.16262 -1.55553 0
M  V30 537 C 51.9595 1.73122 -3.01075 0
M  V30 538 C 50.9135 1.2887 -4.08138 0
M  V30 539 C 50.2395 2.54396 -4.70305 0
M  V30 540 C 51.5395 0.416578 -5.20636 0
M  V30 541 H 53.2335 -0.0393902 -2.99374 0
M  V30 542 H 50.7795 -0.020385 -1.43986 0
M  V30 543 H 52.7325 2.34396 -3.50195 0
M  V30 544 H 51.4565 2.3584 -2.25936 0
M  V30 545 H 50.1155 0.698991 -3.59875 0
M  V30 546 H 49.7635 3.15439 -3.918 0
M  V30 547 H 49.4635 2.25486 -5.42614 0
M  V30 548 H 50.9875 3.16464 -5.2219 0
M  V30 549 H 52.4015 0.935116 -5.65622 0
M  V30 550 H 50.7985 0.221046 -5.99693 0
M  V30 551 H 51.8685 -0.557162 -4.81688 0
M  V30 552 N 53.2116 1.57565 -0.0334293 0
M  V30 553 C 54.4516 1.93844 0.648379 0
M  V30 554 C 54.8156 0.910387 1.69044 0
M  V30 555 O 56.0166 1.15952 2.42505 0
M  V30 556 C 54.2876 3.35017 1.24492 0
M  V30 557 S 55.8466 3.93229 1.94721 0
M  V30 558 H 52.6646 0.678231 0.213364 0
M  V30 559 H 55.2666 1.95254 -0.0981253 0
M  V30 560 H 53.9706 4.07652 0.474128 0
M  V30 561 H 53.5016 3.37061 2.02864 0
M  V30 562 H 55.5166 3.77014 3.22606 0
M  V30 563 N 54.6897 -0.239769 1.55765 0
M  V30 564 C 55.9377 -0.964892 1.77579 0
M  V30 565 C 56.2587 -1.85582 0.598699 0
M  V30 566 O 55.5287 -1.92075 -0.385226 0
M  V30 567 H 54.1087 -0.359265 0.654933 0
M  V30 568 H 56.7707 -0.256001 1.93211 0
M  V30 569 H 55.8667 -1.58243 2.69009 0
M  V30 570 N 56.1678 -1.49265 -0.50573 0
M  V30 571 C 57.5838 -1.35923 -0.836486 0
M  V30 572 C 57.7838 -0.388704 -1.97715 0
M  V30 573 O 56.8398 0.181336 -2.51848 0
M  V30 574 C 58.1528 -2.76531 -1.18115 0
M  V30 575 C 59.7008 -2.85197 -1.28964 0
M  V30 576 C 60.1758 -4.26561 -1.66761 0
M  V30 577 N 61.6668 -4.2935 -1.73819 0
M  V30 578 C 62.4018 -5.35693 -2.045 0
M  V30 579 N 61.8978 -6.52287 -2.33438 0
M  V30 580 N 63.6908 -5.23105 -2.05711 0
M  V30 581 H 55.8418 -2.10965 0.246519 0
M  V30 582 H 58.1048 -0.9468 0.0476887 0
M  V30 583 H 57.8108 -3.49226 -0.416398 0
M  V30 584 H 57.6848 -3.11599 -2.1257 0
M  V30 585 H 60.0718 -2.12742 -2.04511 0
M  V30 586 H 60.1528 -2.53718 -0.325704 0
M  V30 587 H 59.7968 -4.99541 -0.917656 0
M  V30 588 H 59.7268 -4.55502 -2.64246 0
M  V30 589 H 62.2178 -3.4526 -1.53635 0
M  V30 590 H 62.5308 -7.29158 -2.56024 0
M  V30 591 H 60.8758 -6.55521 -2.30905 0
M  V30 592 H 64.0668 -4.31026 -1.82577 0
M  V30 593 H 64.2398 -6.06078 -2.29289 0
M  V30 594 N 57.6459 0.756429 -1.3826 0
M  V30 595 C 59.0619 1.0591 -1.19395 0
M  V30 596 C 59.2619 2.01459 -0.0406567 0
M  V30 597 O 58.3179 2.44909 0.614467 0
M  V30 598 C 59.6309 1.64191 -2.51916 0
M  V30 599 C 61.1789 1.76376 -2.58574 0
M  V30 600 C 61.6539 2.38069 -3.91264 0
M  V30 601 N 63.1449 2.45503 -3.92788 0
M  V30 602 C 63.8799 2.94126 -4.92217 0
M  V30 603 N 63.3759 3.42805 -6.02043 0
M  V30 604 N 65.1689 2.9314 -4.7961 0
M  V30 605 H 57.3199 0.122313 -2.12048 0
M  V30 606 H 59.5829 0.116892 -0.940766 0
M  V30 607 H 59.2889 1.01451 -3.3675 0
M  V30 608 H 59.1629 2.6329 -2.70108 0
M  V30 609 H 61.5499 2.38244 -1.74137 0
M  V30 610 H 61.6309 0.759894 -2.44252 0
M  V30 611 H 61.2749 1.76835 -4.76121 0
M  V30 612 H 61.2049 3.39091 -4.02895 0
M  V30 613 H 63.6959 2.1107 -3.13461 0
M  V30 614 H 64.0089 3.78354 -6.73846 0
M  V30 615 H 62.3539 3.4087 -6.05667 0
M  V30 616 H 65.5449 2.54419 -3.92923 0
M  V30 617 H 65.7179 3.30721 -5.5725 0
M  V30 618 N 59.124 1.23083 0.984299 0
M  V30 619 C 60.372 1.05848 1.72165 0
M  V30 620 C 60.693 -0.406049 1.90726 0
M  V30 621 O 59.963 -1.29139 1.47309 0
M  V30 622 H 58.543 0.388685 0.637913 0
M  V30 623 H 61.205 1.54736 1.18503 0
M  V30 624 H 60.301 1.54327 2.71274 0
M  V30 625 N 60.6021 -1.18246 1.0419 0
M  V30 626 C 61.5321 -2.24127 0.654914 0
M  V30 627 C 62.5131 -1.66617 -0.342451 0
M  V30 628 O 63.6981 -1.92924 -0.222277 0
M  V30 629 C 60.8281 -3.47295 0.0183757 0
M  V30 630 C 59.7821 -4.17563 0.939414 0
M  V30 631 C 59.1081 -5.34438 0.167286 0
M  V30 632 C 60.4081 -4.70917 2.25908 0
M  V30 633 H 62.1021 -2.56753 1.54007 0
M  V30 634 H 59.6481 -1.23414 0.74195 0
M  V30 635 H 61.6011 -4.20572 -0.264082 0
M  V30 636 H 60.3251 -3.13907 -0.901664 0
M  V30 637 H 58.9841 -3.46186 1.20628 0
M  V30 638 H 58.6321 -4.97298 -0.7552 0
M  V30 639 H 58.3321 -5.82388 0.780901 0
M  V30 640 H 59.8561 -6.10504 -0.108125 0
M  V30 641 H 61.2701 -5.35882 2.03724 0
M  V30 642 H 59.6671 -5.29406 2.82577 0
M  V30 643 H 60.7371 -3.88272 2.9047 0
M  V30 644 N 62.0802 -0.821533 -1.34494 0
M  V30 645 C 63.4962 -0.507117 -1.51329 0
M  V30 646 C 63.6962 0.968964 -1.76673 0
M  V30 647 O 62.7522 1.75348 -1.81685 0
M  V30 648 C 64.0652 -1.36544 -2.67911 0
M  V30 649 C 65.6132 -1.36242 -2.81793 0
M  V30 650 C 66.0882 -2.2052 -4.01416 0
M  V30 651 N 67.5792 -2.18136 -4.08621 0
M  V30 652 C 68.3142 -2.80095 -5.00334 0
M  V30 653 N 67.8102 -3.51039 -5.9728 0
M  V30 654 N 69.6032 -2.69656 -4.93196 0
M  V30 655 H 61.7542 -1.77729 -1.16302 0
M  V30 656 H 64.0172 -0.757291 -0.570276 0
M  V30 657 H 63.7232 -2.41361 -2.55808 0
M  V30 658 H 63.5972 -1.02917 -3.62888 0
M  V30 659 H 65.9842 -0.322041 -2.93338 0
M  V30 660 H 66.0652 -1.73866 -1.87628 0
M  V30 661 H 65.7092 -3.24607 -3.90631 0
M  V30 662 H 65.6392 -1.80247 -4.94791 0
M  V30 663 H 68.1302 -1.6653 -3.39229 0
M  V30 664 H 68.4432 -3.95565 -6.63889 0
M  V30 665 H 66.7882 -3.55145 -5.97409 0
M  V30 666 H 69.9792 -2.13808 -4.16418 0
M  V30 667 H 70.1522 -3.1823 -5.64476 0
M  V30 668 N 63.5583 1.46682 -0.576371 0
M  V30 669 C 64.7863 2.06798 -0.0649635 0
M  V30 670 C 65.2013 1.42612 1.23723 0
M  V30 671 O 64.5583 0.529203 1.74659 0
M  V30 672 C 64.6093 3.6132 0.114202 0
M  V30 673 O 64.3303 4.23104 -1.13644 0
M  V30 674 C 65.8313 4.38349 0.66069 0
M  V30 675 H 63.0513 0.668778 -0.0545616 0
M  V30 676 H 65.5953 1.88404 -0.795237 0
M  V30 677 H 63.7503 3.79162 0.794673 0
M  V30 678 H 64.1643 5.15894 -0.946253 0
M  V30 679 H 65.6383 5.47081 0.73526 0
M  V30 680 H 66.1153 4.05953 1.67627 0
M  V30 681 H 66.7213 4.25297 0.0152951 0
M  V30 682 N 65.0364 0.313813 1.54444 0
M  V30 683 C 66.3134 -0.345447 1.92525 0
M  V30 684 C 66.6934 -1.70667 1.24242 0
M  V30 685 O 66.0414 -2.25273 0.382654 0
M  V30 686 C 66.2514 -0.44737 3.46121 0
M  V30 687 C 67.5994 -0.712238 4.18584 0
M  V30 688 O 68.6234 -0.530678 3.52225 0
M  V30 689 O 67.4824 -1.06183 5.36085 0
M  V30 690 H 64.5764 -0.195407 0.803583 0
M  V30 691 H 67.1224 0.362813 1.65776 0
M  V30 692 H 65.8944 0.509043 3.87975 0
M  V30 693 H 65.5174 -1.20359 3.78945 0
M  V30 694 N 66.5145 -1.57545 0.0417849 0
M  V30 695 C 67.7635 -1.91494 -0.633492 0
M  V30 696 C 68.0765 -0.921084 -1.72556 0
M  V30 697 O 69.2825 -1.15228 -2.45835 0
M  V30 698 C 67.7385 -3.40072 -1.17808 0
M  V30 699 C 67.3465 -4.47843 -0.118633 0
M  V30 700 C 69.0905 -3.8307 -1.82915 0
M  V30 701 C 66.9975 -5.87529 -0.675578 0
M  V30 702 H 65.9275 -0.714653 -0.24039 0
M  V30 703 H 68.5785 -1.83175 0.109148 0
M  V30 704 H 66.9605 -3.43364 -1.97274 0
M  V30 705 H 68.1345 -4.56128 0.654494 0
M  V30 706 H 66.4495 -4.14128 0.434414 0
M  V30 707 H 69.0465 -4.84794 -2.25563 0
M  V30 708 H 69.3895 -3.1881 -2.67705 0
M  V30 709 H 69.9225 -3.82255 -1.10119 0
M  V30 710 H 66.6615 -6.55362 0.134475 0
M  V30 711 H 66.1815 -5.82824 -1.4169 0
M  V30 712 H 67.8605 -6.36491 -1.1614 0
M  V30 713 N 67.9926 0.231505 -1.5589 0
M  V30 714 C 69.2696 0.981096 -1.69215 0
M  V30 715 C 69.6496 2.02799 -0.586164 0
M  V30 716 O 68.9976 2.24823 0.408253 0
M  V30 717 C 69.2076 1.60054 -3.10135 0
M  V30 718 C 70.5556 2.09658 -3.69227 0
M  V30 719 O 71.5796 1.69967 -3.13033 0
M  V30 720 O 70.4386 2.8258 -4.67772 0
M  V30 721 H 67.5326 0.457653 -0.688827 0
M  V30 722 H 70.0786 0.224073 -1.68214 0
M  V30 723 H 68.8506 0.844105 -3.82087 0
M  V30 724 H 68.4736 2.42336 -3.15212 0
M  V30 725 N 69.4707 1.49531 0.497807 0
M  V30 726 C 70.4337 1.65916 1.58128 0
M  V30 727 C 71.4337 0.530825 1.51786 0
M  V30 728 O 72.6237 0.797342 1.54881 0
M  V30 729 C 69.7557 1.65951 2.9778 0
M  V30 730 H 70.9487 2.62556 1.44929 0
M  V30 731 H 68.5017 1.38611 0.722275 0
M  V30 732 H 69.2367 0.709065 3.16453 0
M  V30 733 H 69.0217 2.47897 3.03792 0
M  V30 734 H 70.5117 1.80673 3.76493 0
M  V30 735 N 70.9488 -0.749086 1.3866 0
M  V30 736 C 72.1768 -1.53834 1.38358 0
M  V30 737 C 72.5918 -1.88783 -0.0255219 0
M  V30 738 O 71.9488 -1.53101 -0.993292 0
M  V30 739 C 71.9998 -2.83468 2.2434 0
M  V30 740 O 71.7208 -2.50008 3.5976 0
M  V30 741 C 73.2218 -3.7758 2.32267 0
M  V30 742 H 70.4418 -0.47585 0.473083 0
M  V30 743 H 72.9858 -0.926726 1.82297 0
M  V30 744 H 71.1408 -3.40995 1.83851 0
M  V30 745 H 71.5548 -3.33182 4.05081 0
M  V30 746 H 73.0288 -4.65478 2.96706 0
M  V30 747 H 73.5058 -4.18334 1.33765 0
M  V30 748 H 74.1118 -3.25976 2.73166 0
M  V30 749 N 72.4269 -1.23603 -0.977757 0
M  V30 750 C 73.6669 -1.08148 -1.73446 0
M  V30 751 C 74.0309 0.374785 -1.88307 0
M  V30 752 O 75.2319 0.650588 -2.60808 0
M  V30 753 C 73.5029 -1.78991 -3.0935 0
M  V30 754 S 75.0619 -1.79141 -4.00567 0
M  V30 755 H 71.8799 -0.386987 -0.596458 0
M  V30 756 H 74.4819 -1.5678 -1.16792 0
M  V30 757 H 73.1859 -2.8408 -2.96187 0
M  V30 758 H 72.7169 -1.30651 -3.71071 0
M  V30 759 H 74.7319 -0.851892 -4.88833 0
M  V30 760 N 73.905 1.17692 -1.04816 0
M  V30 761 C 75.133 1.91786 -0.776254 0
M  V30 762 C 75.548 1.76604 0.667577 0
M  V30 763 O 74.905 1.10067 1.45573 0
M  V30 764 C 74.956 3.42967 -1.14263 0
M  V30 765 O 74.677 3.57678 -2.52978 0
M  V30 766 C 76.178 4.34144 -0.896311 0
M  V30 767 H 73.398 0.608624 -0.282519 0
M  V30 768 H 75.942 1.49268 -1.39783 0
M  V30 769 H 74.097 3.83245 -0.565874 0
M  V30 770 H 74.511 4.51319 -2.67229 0
M  V30 771 H 75.985 5.38744 -1.20244 0
M  V30 772 H 76.462 4.38876 0.168636 0
M  V30 773 H 77.068 3.99574 -1.45672 0
M  V30 774 N 75.3831 0.828654 1.34056 0
M  V30 775 C 76.7941 0.477534 1.8049 0
M  V30 776 C 77.1451 -1.00258 1.6865 0
M  V30 777 O 76.2701 -1.78057 1.22982 0
M  V30 778 C 76.8651 0.860018 3.27703 0
M  V30 779 C 75.4241 0.561185 3.72193 0
M  V30 780 C 74.5711 1.07385 2.55663 0
M  V30 781 H 77.5221 1.0183 1.21722 0
M  V30 782 H 77.5431 0.166038 3.80138 0
M  V30 783 H 77.0551 1.93731 3.36288 0
M  V30 784 H 75.1561 -0.506465 3.69142 0
M  V30 785 H 75.2691 1.10926 4.66082 0
M  V30 786 H 73.6331 0.495149 2.49841 0
M  V30 787 H 74.4161 2.15771 2.67016 0
M  V30 788 N 76.8612 -1.46375 0.584142 0
M  V30 789 C 78.2772 -1.57694 0.245929 0
M  V30 790 C 78.4772 -1.57903 -1.25175 0
M  V30 791 O 77.5332 -1.49676 -2.03355 0
M  V30 792 C 78.8462 -2.87028 0.896402 0
M  V30 793 C 80.3942 -3.00662 0.870127 0
M  V30 794 C 80.8692 -4.32734 1.50017 0
M  V30 795 N 82.3602 -4.39436 1.46458 0
M  V30 796 C 83.0952 -5.40248 1.92144 0
M  V30 797 N 82.5912 -6.47726 2.4581 0
M  V30 798 N 84.3842 -5.31459 1.83052 0
M  V30 799 H 76.5352 -1.44483 1.55687 0
M  V30 800 H 78.7982 -0.689291 0.650831 0
M  V30 801 H 78.5042 -2.9269 1.95002 0
M  V30 802 H 78.3782 -3.75014 0.405486 0
M  V30 803 H 80.7652 -2.94581 -0.174871 0
M  V30 804 H 80.8462 -2.14148 1.39908 0
M  V30 805 H 80.4902 -4.39573 2.54437 0
M  V30 806 H 80.4202 -5.18025 0.946432 0
M  V30 807 H 82.9112 -3.62367 1.07231 0
M  V30 808 H 83.2242 -7.20863 2.78525 0
M  V30 809 H 81.5692 -6.48542 2.49836 0
M  V30 810 H 84.7602 -4.46396 1.40883 0
M  V30 811 H 84.9332 -6.09881 2.18973 0
M  V30 812 N 78.3393 -0.321999 -1.54275 0
M  V30 813 C 79.7553 0.0306999 -1.5957 0
M  V30 814 C 79.9553 1.50614 -1.33857 0
M  V30 815 O 79.0113 2.2619 -1.12223 0
M  V30 816 C 80.3243 -0.386122 -2.98211 0
M  V30 817 C 81.8723 -0.336647 -3.11184 0
M  V30 818 C 82.3473 -0.728607 -4.52167 0
M  V30 819 N 83.8383 -0.681952 -4.58152 0
M  V30 820 C 84.5733 -0.957449 -5.6535 0
M  V30 821 N 84.0693 -1.3 -6.80494 0
M  V30 822 N 85.8623 -0.883113 -5.55119 0
M  V30 823 H 78.0133 -1.28332 -1.69247 0
M  V30 824 H 80.2763 -0.521716 -0.791528 0
M  V30 825 H 79.9823 -1.41404 -3.22022 0
M  V30 826 H 79.8563 0.249662 -3.76373 0
M  V30 827 H 82.2433 0.682058 -2.8711 0
M  V30 828 H 82.3243 -1.00734 -2.3513 0
M  V30 829 H 81.9683 -1.74522 -4.76974 0
M  V30 830 H 81.8983 -0.0356152 -5.26588 0
M  V30 831 H 84.3893 -0.428985 -3.75457 0
M  V30 832 H 84.7023 -1.49563 -7.58189 0
M  V30 833 H 83.0473 -1.33824 -6.81994 0
M  V30 834 H 86.2383 -0.615001 -4.64042 0
M  V30 835 H 86.4113 -1.10118 -6.38575 0
M  V30 836 N 79.8174 1.5752 -0.0501392 0
M  V30 837 C 80.7804 2.1037 0.909786 0
M  V30 838 C 81.7804 1.02308 1.24056 0
M  V30 839 O 82.9704 1.28385 1.17741 0
M  V30 840 C 80.1024 2.58708 2.21998 0
M  V30 841 H 81.2954 2.96479 0.451665 0
M  V30 842 H 78.8484 1.55038 0.198248 0
M  V30 843 H 79.5834 1.75989 2.72394 0
M  V30 844 H 79.3684 3.37675 1.99295 0
M  V30 845 H 80.8584 2.99747 2.9076 0
M  V30 846 N 81.2955 -0.223234 1.56011 0
M  V30 847 C 82.5205 -0.968978 1.83373 0
M  V30 848 C 82.9455 -1.77227 0.630254 0
M  V30 849 O 82.3035 -1.76345 -0.420959 0
M  V30 850 C 82.3515 -1.86363 3.08709 0
M  V30 851 O 81.4555 -2.95873 2.87285 0
M  V30 852 H 80.7965 -0.274461 0.604622 0
M  V30 853 H 83.3265 -0.237056 2.03222 0
M  V30 854 H 83.3365 -2.27376 3.38768 0
M  V30 855 H 82.0115 -1.27319 3.95933 0
M  V30 856 H 80.5885 -2.58818 2.68454 0
M  V30 857 N 82.7736 -1.49793 -0.48987 0
M  V30 858 C 83.9986 -1.63836 -1.27172 0
M  V30 859 C 84.4236 -0.31402 -1.8546 0
M  V30 860 O 83.7816 0.719803 -1.66399 0
M  V30 861 C 83.8296 -2.71797 -2.36978 0
M  V30 862 O 82.9336 -2.31744 -3.41128 0
M  V30 863 H 82.2746 -0.547997 -0.37496 0
M  V30 864 H 84.8046 -1.96053 -0.585191 0
M  V30 865 H 84.8146 -2.94305 -2.82575 0
M  V30 866 H 83.4896 -3.67923 -1.93921 0
M  V30 867 H 82.0666 -2.1961 -3.01373 0
M  V30 868 N 84.2517 0.741722 -1.39055 0
M  V30 869 C 85.1997 1.87702 -1.3737 0
M  V30 870 C 86.1937 1.67427 -0.257812 0
M  V30 871 O 87.3997 1.7485 -0.427489 0
M  V30 872 H 83.7747 0.617757 -0.428812 0
M  V30 873 H 85.7457 1.86239 -2.33147 0
M  V30 874 C 84.4947 3.25315 -1.22741 0
M  V30 875 H 83.8177 3.41509 -2.07873 0
M  V30 876 H 85.2577 4.04964 -1.25618 0
M  V30 877 C 83.7167 3.36838 0.0647316 0
M  V30 878 O 84.2467 3.88073 1.03741 0
M  V30 879 N 82.4527 2.90329 0.125544 0
M  V30 880 H 81.9997 2.48823 -0.666682 0
M  V30 881 H 81.9577 2.98418 0.989639 0
M  V30 882 N 85.7298 1.2412 0.971189 0
M  V30 883 C 86.6618 0.988349 2.06795 0
M  V30 884 C 87.6748 -0.0409541 1.62748 0
M  V30 885 O 88.8638 0.195673 1.77424 0
M  V30 886 C 85.9638 0.469023 3.35639 0
M  V30 887 C 85.1368 1.56065 4.08611 0
M  V30 888 C 84.1958 1.04458 5.15728 0
M  V30 889 O 83.2218 1.73553 5.42096 0
M  V30 890 N 84.4238 -0.122817 5.8037 0
M  V30 891 H 87.1888 1.93265 2.29061 0
M  V30 892 H 84.7498 1.15102 1.13856 0
M  V30 893 H 86.7418 0.108613 4.04554 0
M  V30 894 H 85.3118 -0.380919 3.1027 0
M  V30 895 H 84.5318 2.09341 3.34021 0
M  V30 896 H 85.8198 2.29449 4.54126 0
M  V30 897 H 85.2178 -0.700563 5.61345 0
M  V30 898 H 83.7748 -0.424404 6.50417 0
M  V30 899 N 87.2079 -1.17134 1.05439 0
M  V30 900 C 88.6239 -1.39454 0.776201 0
M  V30 901 C 88.8239 -1.91454 -0.628307 0
M  V30 902 O 87.8799 -2.10777 -1.39031 0
M  V30 903 C 89.1929 -2.38305 1.83388 0
M  V30 904 C 90.7409 -2.52006 1.85639 0
M  V30 905 C 91.2159 -3.54133 2.90437 0
M  V30 906 N 92.7069 -3.61653 2.89415 0
M  V30 907 C 93.4419 -4.4044 3.67152 0
M  V30 908 N 92.9379 -5.22721 4.54681 0
M  V30 909 N 94.7309 -4.35337 3.55581 0
M  V30 910 H 86.8819 -0.817134 1.96053 0
M  V30 911 H 89.1449 -0.421626 0.849079 0
M  V30 912 H 88.8509 -2.07173 2.84204 0
M  V30 913 H 88.7249 -3.37841 1.67761 0
M  V30 914 H 91.1119 -2.82447 0.85486 0
M  V30 915 H 91.1929 -1.52537 2.05344 0
M  V30 916 H 90.8369 -3.24431 3.90777 0
M  V30 917 H 90.7669 -4.53313 2.67983 0
M  V30 918 H 93.2579 -3.02909 2.25952 0
M  V30 919 H 93.5709 -5.80027 5.10674 0
M  V30 920 H 91.9159 -5.22093 4.58741 0
M  V30 921 H 95.1069 -3.70112 2.86592 0
M  V30 922 H 95.2799 -4.96494 4.1641 0
M  V30 923 N 88.686 -0.835752 -1.33615 0
M  V30 924 C 89.934 -0.429109 -1.97492 0
M  V30 925 C 90.255 1.01433 -1.66543 0
M  V30 926 O 89.525 1.70611 -0.962744 0
M  V30 927 H 88.105 -0.155686 -0.730596 0
M  V30 928 H 90.767 -1.06802 -1.63031 0
M  V30 929 H 89.863 -0.55861 -3.0706 0
M  V30 930 N 90.1641 1.46063 -0.591896 0
M  V30 931 C 91.0941 2.33172 0.123673 0
M  V30 932 C 92.0751 1.45897 0.87453 0
M  V30 933 O 93.2601 1.74698 0.848181 0
M  V30 934 C 90.3901 3.28336 1.13194 0
M  V30 935 C 89.3441 4.25124 0.495324 0
M  V30 936 C 88.6701 5.09863 1.61071 0
M  V30 937 C 89.9701 5.19143 -0.573425 0
M  V30 938 H 91.6641 2.93252 -0.603646 0
M  V30 939 H 89.2101 1.41014 -0.291741 0
M  V30 940 H 91.1631 3.88137 1.64097 0
M  V30 941 H 89.8871 2.66383 1.88965 0
M  V30 942 H 88.5461 3.66599 0.00729452 0
M  V30 943 H 88.1941 4.44288 2.35832 0
M  V30 944 H 87.8941 5.75417 1.19035 0
M  V30 945 H 89.4181 5.72529 2.12233 0
M  V30 946 H 90.8321 5.73106 -0.1491 0
M  V30 947 H 89.2291 5.93089 -0.914636 0
M  V30 948 H 90.2991 4.62519 -1.45617 0
M  V30 949 N 91.6422 0.330177 1.54103 0
M  V30 950 C 92.5902 -0.548226 2.26047 0
M  V30 951 C 93.5842 -1.11309 1.27698 0
M  V30 952 O 94.7902 -1.06036 1.45452 0
M  V30 953 H 91.1652 -0.195456 0.726155 0
M  V30 954 H 93.1362 0.0807567 2.98291 0
M  V30 955 C 91.8852 -1.69415 3.03634 0
M  V30 956 H 91.2082 -1.26876 3.79134 0
M  V30 957 H 92.6482 -2.28423 3.5721 0
M  V30 958 C 91.1072 -2.61569 2.12328 0
M  V30 959 O 91.6372 -3.63462 1.7105 0
M  V30 960 N 89.8432 -2.29952 1.77681 0
M  V30 961 H 89.3902 -1.47134 2.11446 0
M  V30 962 H 89.3482 -2.91871 1.16869 0
M  V30 963 N 93.1203 -1.57491 0.0584922 0
M  V30 964 C 94.0523 -2.08916 -0.942694 0
M  V30 965 C 95.0653 -1.0185 -1.27006 0
M  V30 966 O 96.2543 -1.29398 -1.22957 0
M  V30 967 C 93.3543 -2.52341 -2.26224 0
M  V30 968 C 92.5273 -3.82827 -2.1157 0
M  V30 969 C 91.5863 -4.12487 -3.26712 0
M  V30 970 O 90.6123 -4.82295 -3.02292 0
M  V30 971 N 91.8143 -3.64978 -4.5141 0
M  V30 972 H 94.5793 -2.95437 -0.503722 0
M  V30 973 H 92.1403 -1.61397 -0.12757 0
M  V30 974 H 94.1323 -2.69254 -3.02133 0
M  V30 975 H 92.7023 -1.7103 -2.61663 0
M  V30 976 H 91.9223 -3.75425 -1.20208 0
M  V30 977 H 93.2103 -4.68263 -1.99015 0
M  V30 978 H 92.6083 -3.08558 -4.7414 0
M  V30 979 H 91.1653 -3.87115 -5.2439 0
M  V30 980 N 94.5984 0.214957 -1.56127 0
M  V30 981 C 95.8474 0.936451 -1.78643 0
M  V30 982 C 96.1604 1.85237 -0.628229 0
M  V30 983 O 97.3664 2.613 -0.737186 0
M  V30 984 C 95.8224 1.7154 -3.16389 0
M  V30 985 C 95.4304 0.845299 -4.39953 0
M  V30 986 C 97.1744 2.42772 -3.48227 0
M  V30 987 C 95.0814 1.62198 -5.68723 0
M  V30 988 H 94.0114 0.353401 -0.666051 0
M  V30 989 H 96.6624 0.190169 -1.82512 0
M  V30 990 H 95.0444 2.50484 -3.06715 0
M  V30 991 H 96.2184 0.0959353 -4.607 0
M  V30 992 H 94.5334 0.244789 -4.1568 0
M  V30 993 H 97.1304 3.01394 -4.41663 0
M  V30 994 H 97.4734 3.15984 -2.71035 0
M  V30 995 H 98.0064 1.70813 -3.5926 0
M  V30 996 H 94.7454 0.933011 -6.48826 0
M  V30 997 H 94.2654 2.34579 -5.52026 0
M  V30 998 H 95.9444 2.18095 -6.09133 0
M  V30 999 N 96.0765 1.50051 0.48192 0
M  V30 1000 C 97.3225 1.61706 1.2338 0
M  V30 1001 C 97.6775 0.308488 1.89911 0
M  V30 1002 O 96.9705 -0.692798 1.78636 0
M  V30 1003 C 97.1645 2.72717 2.30998 0
M  V30 1004 C 96.9935 4.14242 1.75024 0
M  V30 1005 C 95.7635 4.80786 1.55476 0
M  V30 1006 C 97.9615 4.98846 1.25128 0
M  V30 1007 N 95.9435 6.06563 0.946311 0
M  V30 1008 C 97.3145 6.15258 0.765382 0
M  V30 1009 C 99.3695 4.84702 1.13881 0
M  V30 1010 C 98.0725 7.19079 0.178113 0
M  V30 1011 C 100.098 5.8869 0.565486 0
M  V30 1012 C 99.4605 7.04343 0.0899105 0
M  V30 1013 H 95.5595 0.645958 0.440753 0
M  V30 1014 H 98.1435 1.8713 0.537624 0
M  V30 1015 H 96.3145 2.49033 2.98055 0
M  V30 1016 H 98.0465 2.73789 2.9803 0
M  V30 1017 H 94.8015 4.37899 1.80392 0
M  V30 1018 H 95.2255 6.73767 0.660812 0
M  V30 1019 H 99.8675 3.95583 1.49244 0
M  V30 1020 H 97.5855 8.07882 -0.187749 0
M  V30 1021 H 101.171 5.79808 0.480974 0
M  V30 1022 H 100.051 7.83433 -0.346782 0
M  V30 1023 N 97.5546 -0.734337 1.39446 0
M  V30 1024 C 98.5026 -1.86971 1.38364 0
M  V30 1025 C 99.4966 -1.67288 0.266687 0
M  V30 1026 O 100.703 -1.74621 0.436755 0
M  V30 1027 H 97.0776 -0.615474 0.432082 0
M  V30 1028 H 99.0486 -1.85 2.34132 0
M  V30 1029 C 97.7976 -3.2466 1.24465 0
M  V30 1030 H 97.1206 -3.40402 2.09682 0
M  V30 1031 H 98.5606 -4.04292 1.27764 0
M  V30 1032 C 97.0196 -3.36867 -0.0468674 0
M  V30 1033 O 97.5496 -3.88618 -1.01681 0
M  V30 1034 N 95.7556 -2.90391 -0.110145 0
M  V30 1035 H 95.3026 -2.48466 0.679868 0
M  V30 1036 H 95.2606 -2.98939 -0.973799 0
M  V30 1037 N 99.0327 -1.24633 -0.964593 0
M  V30 1038 C 100.279 -1.08949 -1.71049 0
M  V30 1039 C 100.612 0.370302 -1.90637 0
M  V30 1040 O 99.8867 1.27349 -1.47011 0
M  V30 1041 C 100.17 -1.83329 -3.0994 0
M  V30 1042 C 100.023 -3.37077 -2.97824 0
M  V30 1043 C 101.342 -1.60846 -4.09654 0
M  V30 1044 H 98.4607 -0.397178 -0.620821 0
M  V30 1045 H 101.103 -1.5334 -1.12191 0
M  V30 1046 H 99.2527 -1.45597 -3.60186 0
M  V30 1047 H 100.925 -3.84425 -2.5498 0
M  V30 1048 H 99.1677 -3.65298 -2.33965 0
M  V30 1049 H 99.8387 -3.84324 -3.96231 0
M  V30 1050 H 102.315 -1.93674 -3.68279 0
M  V30 1051 H 101.191 -2.1534 -5.04896 0
M  V30 1052 H 101.452 -0.547434 -4.38698 0
M  V30 1053 N 100.511 1.16574 -1.06058 0
M  V30 1054 C 101.458 2.20883 -0.669263 0
M  V30 1055 C 102.428 1.62729 0.332918 0
M  V30 1056 O 103.613 1.895 0.222346 0
M  V30 1057 C 100.753 3.45049 -0.0593572 0
M  V30 1058 C 99.8658 4.17458 -1.11143 0
M  V30 1059 C 99.0008 5.29135 -0.467916 0
M  V30 1060 C 98.0398 5.93343 -1.50369 0
M  V30 1061 N 97.1768 6.96516 -0.883706 0
M  V30 1062 H 102.017 2.53709 -1.5632 0
M  V30 1063 H 99.5538 1.24616 -0.781625 0
M  V30 1064 H 101.512 4.16033 0.311771 0
M  V30 1065 H 100.142 3.12781 0.797992 0
M  V30 1066 H 99.1938 3.45101 -1.60029 0
M  V30 1067 H 100.506 4.61307 -1.89731 0
M  V30 1068 H 99.6598 6.06684 -0.0436871 0
M  V30 1069 H 98.3988 4.86443 0.349864 0
M  V30 1070 H 97.4038 5.14517 -1.93784 0
M  V30 1071 H 98.6288 6.38114 -2.32352 0
M  V30 1072 H 96.5748 6.55943 -0.086595 0
M  V30 1073 H 96.4918 7.38723 -1.607 0
M  V30 1074 H 97.7598 7.77993 -0.484543 0
M  V30 1075 N 101.989 0.842826 1.3317 0
M  V30 1076 C 102.936 0.276885 2.29133 0
M  V30 1077 C 103.906 -0.609527 1.54512 0
M  V30 1078 O 105.091 -0.546955 1.82792 0
M  V30 1079 C 102.231 -0.538707 3.40869 0
M  V30 1080 C 101.344 0.372169 4.30394 0
M  V30 1081 C 100.479 -0.454908 5.29249 0
M  V30 1082 C 99.5179 0.45411 6.10413 0
M  V30 1083 N 98.6549 -0.335075 7.013 0
M  V30 1084 H 103.495 1.10052 2.76934 0
M  V30 1085 H 101.032 0.554161 1.36262 0
M  V30 1086 H 102.99 -1.02709 4.0436 0
M  V30 1087 H 101.62 -1.32727 2.9425 0
M  V30 1088 H 100.672 0.97888 3.6759 0
M  V30 1089 H 101.984 1.0703 4.87182 0
M  V30 1090 H 101.138 -1.00695 5.98285 0
M  V30 1091 H 99.8769 -1.18646 4.73048 0
M  V30 1092 H 98.8819 1.01813 5.40291 0
M  V30 1093 H 100.107 1.18409 6.68697 0
M  V30 1094 H 98.0529 -1.04994 6.47543 0
M  V30 1095 H 97.9699 0.304262 7.55387 0
M  V30 1096 H 99.2379 -0.869224 7.74638 0
M  V30 1097 N 103.467 -1.45747 0.599634 0
M  V30 1098 C 104.399 -2.28628 -0.161879 0
M  V30 1099 C 105.412 -1.39494 -0.839367 0
M  V30 1100 O 106.601 -1.63941 -0.706089 0
M  V30 1101 C 103.701 -3.15014 -1.24976 0
M  V30 1102 C 102.874 -4.32378 -0.660935 0
M  V30 1103 C 101.933 -5.00033 -1.63869 0
M  V30 1104 O 100.959 -5.57085 -1.1681 0
M  V30 1105 N 102.161 -4.98589 -2.97303 0
M  V30 1106 H 104.926 -2.94624 0.549265 0
M  V30 1107 H 102.487 -1.55847 0.438565 0
M  V30 1108 H 104.479 -3.5714 -1.9035 0
M  V30 1109 H 103.049 -2.5098 -1.86354 0
M  V30 1110 H 102.269 -3.9383 0.170688 0
M  V30 1111 H 103.557 -5.08197 -0.247619 0
M  V30 1112 H 102.955 -4.53514 -3.38145 0
M  V30 1113 H 101.512 -5.44603 -3.58121 0
M  V30 1114 N 104.945 -0.338344 -1.53925 0
M  V30 1115 C 106.17 0.263987 -2.05713 0
M  V30 1116 C 106.595 1.43847 -1.21201 0
M  V30 1117 O 105.953 1.79904 -0.224535 0
M  V30 1118 C 106.001 0.662 -3.54471 0
M  V30 1119 O 105.105 1.76265 -3.72833 0
M  V30 1120 H 104.446 0.0448722 -0.662482 0
M  V30 1121 H 106.976 -0.491048 -1.9862 0
M  V30 1122 H 106.986 0.940594 -3.9701 0
M  V30 1123 H 105.661 -0.196937 -4.15433 0
M  V30 1124 H 104.238 1.48173 -3.42198 0
M  V30 1125 N 106.423 1.57458 -0.0668435 0
M  V30 1126 C 107.669 1.93587 0.6043 0
M  V30 1127 C 108.002 0.946722 1.69561 0
M  V30 1128 O 107.277 -0.0248516 1.94484 0
M  V30 1129 C 107.56 3.40014 1.18585 0
M  V30 1130 C 107.413 4.49685 0.101529 0
M  V30 1131 C 108.732 3.87154 2.09284 0
M  V30 1132 H 105.851 0.703958 0.218202 0
M  V30 1133 H 108.493 1.89542 -0.131804 0
M  V30 1134 H 106.643 3.43592 1.81319 0
M  V30 1135 H 108.315 4.5823 -0.531279 0
M  V30 1136 H 106.558 4.30059 -0.568487 0
M  V30 1137 H 107.229 5.49266 0.54874 0
M  V30 1138 H 109.705 3.85551 1.56491 0
M  V30 1139 H 108.581 4.90231 2.46911 0
M  V30 1140 H 108.842 3.2481 2.99918 0
M  V30 1141 N 107.901 -0.206675 1.56239 0
M  V30 1142 C 109.131 -0.943975 1.83773 0
M  V30 1143 C 109.539 -1.77841 0.645703 0
M  V30 1144 O 108.882 -1.79403 -0.395008 0
M  V30 1145 C 108.944 -1.899 3.05251 0
M  V30 1146 C 108.608 -1.24764 4.39639 0
M  V30 1147 C 109.605 -0.630216 5.16066 0
M  V30 1148 C 107.29 -1.25496 4.8637 0
M  V30 1149 C 109.284 -0.0287946 6.37393 0
M  V30 1150 C 106.971 -0.649698 6.07637 0
M  V30 1151 C 107.969 -0.0376845 6.8299 0
M  V30 1152 O 107.657 0.55812 8.0196 0
M  V30 1153 H 107.389 -0.281508 0.614597 0
M  V30 1154 H 109.943 -0.222458 2.04192 0
M  V30 1155 H 108.173 -2.6599 2.80689 0
M  V30 1156 H 109.862 -2.5031 3.1953 0
M  V30 1157 H 110.628 -0.616785 4.81062 0
M  V30 1158 H 106.507 -1.72072 4.27683 0
M  V30 1159 H 110.051 0.449518 6.9615 0
M  V30 1160 H 105.948 -0.660592 6.42111 0
M  V30 1161 H 106.716 0.453891 8.17241 0
M  V30 1162 N 109.379 -1.50304 -0.473955 0
M  V30 1163 C 110.309 -1.71886 -1.58042 0
M  V30 1164 C 111.29 -0.567799 -1.60344 0
M  V30 1165 O 112.475 -0.806623 -1.76656 0
M  V30 1166 C 109.605 -1.81036 -2.96384 0
M  V30 1167 C 108.559 -2.962 -3.08949 0
M  V30 1168 C 107.885 -2.9049 -4.48909 0
M  V30 1169 C 109.185 -4.36752 -2.86434 0
M  V30 1170 H 110.879 -2.64527 -1.40234 0
M  V30 1171 H 108.425 -1.27295 -0.673201 0
M  V30 1172 H 110.378 -1.94719 -3.73714 0
M  V30 1173 H 109.102 -0.850147 -3.15341 0
M  V30 1174 H 107.761 -2.82164 -2.3405 0
M  V30 1175 H 107.409 -1.92321 -4.64781 0
M  V30 1176 H 107.109 -3.67802 -4.58253 0
M  V30 1177 H 108.633 -3.06218 -5.28264 0
M  V30 1178 H 110.047 -4.5133 -3.53517 0
M  V30 1179 H 108.444 -5.15493 -3.07225 0
M  V30 1180 H 109.514 -4.49321 -1.82316 0
M  V30 1181 N 110.857 0.726932 -1.39834 0
M  V30 1182 C 111.79 1.8501 -1.33592 0
M  V30 1183 C 112.768 1.61262 -0.208191 0
M  V30 1184 O 113.952 1.84422 -0.389981 0
M  V30 1185 C 111.079 3.21143 -1.07633 0
M  V30 1186 C 110.125 3.63737 -2.22705 0
M  V30 1187 S 110.958 3.72167 -3.85035 0
M  V30 1188 C 112.114 5.11077 -3.61318 0
M  V30 1189 H 112.347 1.90022 -2.28646 0
M  V30 1190 H 109.88 0.892595 -1.25985 0
M  V30 1191 H 111.838 3.99747 -0.933415 0
M  V30 1192 H 110.499 3.13776 -0.142526 0
M  V30 1193 H 109.692 4.62551 -2.00155 0
M  V30 1194 H 109.294 2.9236 -2.33242 0
M  V30 1195 H 111.586 5.97656 -3.19083 0
M  V30 1196 H 112.529 5.38658 -4.59623 0
M  V30 1197 H 112.937 4.81135 -2.95245 0
M  V30 1198 N 112.336 1.25143 0.95797 0
M  V30 1199 C 113.284 1.05019 2.07542 0
M  V30 1200 C 114.278 -0.0178751 1.69391 0
M  V30 1201 O 115.484 0.137472 1.79474 0
M  V30 1202 H 111.859 0.32265 0.679265 0
M  V30 1203 H 113.83 1.99759 2.21673 0
M  V30 1204 C 112.579 0.682074 3.40944 0
M  V30 1205 H 111.902 1.49573 3.70767 0
M  V30 1206 H 113.342 0.580945 4.20001 0
M  V30 1207 C 111.801 -0.611608 3.31302 0
M  V30 1208 O 112.331 -1.65465 3.66038 0
M  V30 1209 N 110.537 -0.595982 2.84423 0
M  V30 1210 H 110.084 0.253192 2.56353 0
M  V30 1211 H 110.042 -1.46173 2.78354 0
M  V30 1212 N 113.814 -1.1601 1.06675 0
M  V30 1213 C 114.744 -2.22688 0.702307 0
M  V30 1214 C 115.725 -1.67306 -0.307032 0
M  V30 1215 O 116.91 -1.93352 -0.181305 0
M  V30 1216 C 114.04 -3.47178 0.092038 0
M  V30 1217 C 112.994 -4.15477 1.02777 0
M  V30 1218 C 112.32 -5.33963 0.28061 0
M  V30 1219 C 113.62 -4.66019 2.35846 0
M  V30 1220 H 115.314 -2.53429 1.59419 0
M  V30 1221 H 112.86 -1.21813 0.767961 0
M  V30 1222 H 114.813 -4.21037 -0.174814 0
M  V30 1223 H 113.537 -3.15749 -0.834877 0
M  V30 1224 H 112.196 -3.43549 1.27944 0
M  V30 1225 H 111.844 -4.98788 -0.649545 0
M  V30 1226 H 111.544 -5.806 0.904258 0
M  V30 1227 H 113.068 -6.10596 0.021396 0
M  V30 1228 H 114.482 -5.3144 2.15045 0
M  V30 1229 H 112.879 -5.23293 2.93743 0
M  V30 1230 H 113.949 -3.82023 2.98641 0
M  V30 1231 N 115.292 -0.849877 -1.32721 0
M  V30 1232 C 116.708 -0.539102 -1.50219 0
M  V30 1233 C 116.908 0.931271 -1.78689 0
M  V30 1234 O 115.964 1.71455 -1.85363 0
M  V30 1235 C 117.277 -1.42196 -2.64954 0
M  V30 1236 C 118.825 -1.42189 -2.78839 0
M  V30 1237 C 119.3 -2.28985 -3.96648 0
M  V30 1238 N 120.791 -2.26754 -4.03902 0
M  V30 1239 C 121.526 -2.90644 -4.94281 0
M  V30 1240 N 121.022 -3.63629 -5.897 0
M  V30 1241 N 122.815 -2.80057 -4.87365 0
M  V30 1242 H 114.966 -1.80156 -1.12506 0
M  V30 1243 H 117.229 -0.769217 -0.554085 0
M  V30 1244 H 116.935 -2.46733 -2.50631 0
M  V30 1245 H 116.809 -1.10591 -3.60624 0
M  V30 1246 H 119.196 -0.38419 -2.92588 0
M  V30 1247 H 119.277 -1.77807 -1.83898 0
M  V30 1248 H 118.921 -3.32819 -3.83658 0
M  V30 1249 H 118.851 -1.90702 -4.90857 0
M  V30 1250 H 121.342 -1.73688 -3.3562 0
M  V30 1251 H 121.655 -4.09558 -6.55349 0
M  V30 1252 H 120 -3.67737 -5.89741 0
M  V30 1253 H 123.191 -2.22593 -4.11789 0
M  V30 1254 H 123.364 -3.30132 -5.57599 0
M  V30 1255 N 116.77 1.45427 -0.607355 0
M  V30 1256 C 117.717 2.3053 0.111625 0
M  V30 1257 C 118.687 1.4209 0.860216 0
M  V30 1258 O 119.872 1.71019 0.845998 0
M  V30 1259 C 117.012 3.26992 1.10319 0
M  V30 1260 C 116.125 4.30535 0.355493 0
M  V30 1261 C 115.26 5.14105 1.33676 0
M  V30 1262 C 114.299 6.09376 0.576862 0
M  V30 1263 N 113.436 6.85727 1.5074 0
M  V30 1264 H 118.276 2.91477 -0.620093 0
M  V30 1265 H 115.813 1.43631 -0.317594 0
M  V30 1266 H 117.771 3.81385 1.6912 0
M  V30 1267 H 116.401 2.67799 1.80232 0
M  V30 1268 H 115.453 3.78805 -0.348023 0
M  V30 1269 H 116.765 4.98235 -0.237423 0
M  V30 1270 H 115.919 5.72897 1.99684 0
M  V30 1271 H 114.658 4.46423 1.9636 0
M  V30 1272 H 113.663 5.49715 -0.0968519 0
M  V30 1273 H 114.888 6.79085 -0.0449341 0
M  V30 1274 H 112.834 6.20735 2.12189 0
M  V30 1275 H 112.751 7.49778 0.967913 0
M  V30 1276 H 114.019 7.4906 2.15706 0
M  V30 1277 N 118.248 0.346503 1.53744 0
M  V30 1278 C 119.473 -0.253074 2.0585 0
M  V30 1279 C 119.898 -1.43202 1.21962 0
M  V30 1280 O 119.256 -1.79783 0.234073 0
M  V30 1281 C 119.304 -0.643193 3.54817 0
M  V30 1282 O 118.408 -1.74286 3.73762 0
M  V30 1283 H 117.749 -0.0413583 0.662711 0
M  V30 1284 H 120.279 0.501574 1.98357 0
M  V30 1285 H 120.289 -0.919526 3.97503 0
M  V30 1286 H 118.964 0.218966 4.15323 0
M  V30 1287 H 117.541 -1.46356 3.42979 0
M  V30 1288 N 119.726 -1.57421 0.075193 0
M  V30 1289 C 120.974 -1.93236 -0.591974 0
M  V30 1290 C 121.295 -0.956241 -1.69944 0
M  V30 1291 O 120.565 -0.00494792 -1.95899 0
M  V30 1292 H 119.145 -0.713355 -0.22166 0
M  V30 1293 H 121.807 -1.9444 0.133848 0
M  V30 1294 H 120.903 -2.95131 -1.01509 0
M  V30 1295 N 121.204 0.198386 -1.56346 0
M  V30 1296 C 122.432 0.935572 -1.84539 0
M  V30 1297 C 122.847 1.76989 -0.657281 0
M  V30 1298 O 122.204 1.78626 0.374043 0
M  V30 1299 C 122.255 1.8344 -3.11499 0
M  V30 1300 O 121.976 1.03377 -4.25728 0
M  V30 1301 C 123.477 2.68355 -3.52846 0
M  V30 1302 H 120.697 0.273126 -0.612897 0
M  V30 1303 H 123.241 0.20663 -2.03453 0
M  V30 1304 H 121.396 2.51701 -2.94492 0
M  V30 1305 H 121.81 1.64599 -4.98003 0
M  V30 1306 H 123.284 3.27085 -4.44657 0
M  V30 1307 H 123.761 3.41901 -2.75681 0
M  V30 1308 H 124.367 2.05471 -3.72373 0
M  V30 1309 N 122.682 1.50554 0.465978 0
M  V30 1310 C 123.612 1.72722 1.57128 0
M  V30 1311 C 124.593 0.576294 1.6004 0
M  V30 1312 O 125.778 0.81598 1.76225 0
M  V30 1313 C 122.908 1.82605 2.95419 0
M  V30 1314 C 121.862 2.97835 3.07373 0
M  V30 1315 C 121.188 2.92867 4.47363 0
M  V30 1316 C 122.488 4.38265 2.84114 0
M  V30 1317 H 124.182 2.65267 1.38829 0
M  V30 1318 H 121.728 1.2765 0.666441 0
M  V30 1319 H 123.681 1.96698 3.72677 0
M  V30 1320 H 122.405 0.866858 3.14886 0
M  V30 1321 H 121.064 2.83401 2.3255 0
M  V30 1322 H 120.712 1.94783 4.63755 0
M  V30 1323 H 120.412 3.70227 4.56296 0
M  V30 1324 H 121.936 3.09015 5.26633 0
M  V30 1325 H 123.35 4.53198 3.51118 0
M  V30 1326 H 121.747 5.17115 3.04487 0
M  V30 1327 H 122.817 4.50281 1.7993 0
M  V30 1328 N 124.16 -0.719506 1.40217 0
M  V30 1329 C 125.408 -1.47641 1.3801 0
M  V30 1330 C 125.729 -1.94992 -0.018145 0
M  V30 1331 O 124.999 -1.70073 -0.972207 0
M  V30 1332 H 123.579 -0.547744 0.507923 0
M  V30 1333 H 126.241 -0.853187 1.75233 0
M  V30 1334 H 125.337 -2.35112 2.05253 0
M  V30 1335 N 125.638 -1.25649 -0.95132 0
M  V30 1336 C 126.588 -1.03004 -2.03406 0
M  V30 1337 C 127.572 0.034187 -1.60864 0
M  V30 1338 O 128.764 -0.181549 -1.76066 0
M  V30 1339 C 125.893 -0.654255 -3.37008 0
M  V30 1340 C 124.979 -1.75542 -3.86065 0
M  V30 1341 N 125.37 -2.99113 -4.07879 0
M  V30 1342 C 123.668 -1.63669 -4.14884 0
M  V30 1343 C 124.369 -3.70611 -4.48356 0
M  V30 1344 N 123.345 -2.98247 -4.54477 0
M  V30 1345 H 127.147 -1.96813 -2.1827 0
M  V30 1346 H 124.661 -1.16017 -1.13639 0
M  V30 1347 H 126.658 -0.473206 -4.14206 0
M  V30 1348 H 125.318 0.276468 -3.23521 0
M  V30 1349 H 126.329 -3.35124 -3.94857 0
M  V30 1350 H 123.006 -0.775161 -4.10241 0
M  V30 1351 H 124.396 -4.76695 -4.73509 0
M  V30 1352 N 127.117 1.15442 -1.07289 0
M  V30 1353 C 128.528 1.67803 -0.818475 0
M  V30 1354 C 128.879 1.8489 0.656507 0
M  V30 1355 O 128.004 1.55176 1.50829 0
M  V30 1356 C 128.599 3.04805 -1.47917 0
M  V30 1357 C 127.158 3.54245 -1.27229 0
M  V30 1358 C 126.305 2.29986 -1.54925 0
M  V30 1359 H 129.256 0.996646 -1.23502 0
M  V30 1360 H 129.277 3.69702 -0.90005 0
M  V30 1361 H 128.789 2.92336 -2.55267 0
M  V30 1362 H 126.89 3.71956 -0.21899 0
M  V30 1363 H 127.003 4.35723 -1.99203 0
M  V30 1364 H 125.367 2.35496 -0.970242 0
M  V30 1365 H 126.15 2.20105 -2.63455 0
M  V30 1366 N 128.595 0.856903 1.32268 0
M  V30 1367 C 129.843 0.460474 1.96784 0
M  V30 1368 C 130.164 -0.987701 1.68135 0
M  V30 1369 O 129.434 -1.69058 0.989765 0
M  V30 1370 H 128.014 0.167289 0.728027 0
M  V30 1371 H 130.676 1.09383 1.61312 0
M  V30 1372 H 129.772 0.60739 3.06133 0
M  V30 1373 N 130.073 -1.45103 0.615059 0
M  V30 1374 C 131.298 -2.07064 0.117988 0
M  V30 1375 C 131.723 -1.4554 -1.19163 0
M  V30 1376 O 131.081 -0.550855 -1.72729 0
M  V30 1377 C 131.129 -3.606 -0.000288387 0
M  V30 1378 O 130.233 -3.98847 -1.04856 0
M  V30 1379 H 129.574 -0.659467 0.0774581 0
M  V30 1380 H 132.104 -1.86236 0.847186 0
M  V30 1381 H 132.114 -4.07529 -0.196091 0
M  V30 1382 H 130.789 -4.04765 0.955932 0
M  V30 1383 H 129.366 -3.63577 -0.828619 0
M  V30 1384 N 131.551 -0.354651 -1.53558 0
M  V30 1385 C 132.481 0.489091 -2.2832 0
M  V30 1386 C 133.462 1.09324 -1.30316 0
M  V30 1387 O 134.647 1.11255 -1.59173 0
M  V30 1388 C 131.777 1.63456 -3.0643 0
M  V30 1389 C 130.731 1.1582 -4.12031 0
M  V30 1390 C 130.057 2.39305 -4.7816 0
M  V30 1391 C 131.357 0.250731 -5.21698 0
M  V30 1392 H 133.051 -0.134614 -2.99097 0
M  V30 1393 H 130.597 -0.0661826 -1.43848 0
M  V30 1394 H 132.55 2.23136 -3.57475 0
M  V30 1395 H 131.274 2.28533 -2.33325 0
M  V30 1396 H 129.933 0.584146 -3.61916 0
M  V30 1397 H 129.581 3.02814 -4.01637 0
M  V30 1398 H 129.281 2.08109 -5.49513 0
M  V30 1399 H 130.805 2.99691 -5.31994 0
M  V30 1400 H 132.219 0.754695 -5.68311 0
M  V30 1401 H 130.616 0.0301468 -6.00092 0
M  V30 1402 H 131.686 -0.710125 -4.79672 0
M  V30 1403 N 133.029 1.57378 -0.0835403 0
M  V30 1404 C 134.306 1.85363 0.624507 0
M  V30 1405 C 134.686 0.978239 1.87066 0
M  V30 1406 O 134.034 0.0475908 2.2845 0
M  V30 1407 C 134.244 3.35795 0.950947 0
M  V30 1408 C 135.592 4.03581 1.31939 0
M  V30 1409 O 136.616 3.40609 1.04232 0
M  V30 1410 O 135.475 5.14672 1.83779 0
M  V30 1411 H 132.569 0.766162 0.311329 0
M  V30 1412 H 135.115 1.69307 -0.115362 0
M  V30 1413 H 133.887 3.91244 0.0663899 0
M  V30 1414 H 133.51 3.57154 1.74719 0
M  V30 1415 N 134.507 -0.190092 1.56449 0
M  V30 1416 C 135.417 -1.25591 1.98152 0
M  V30 1417 C 136.433 -1.49519 0.889944 0
M  V30 1418 O 137.609 -1.62036 1.19609 0
M  V30 1419 C 134.674 -2.57916 2.3169 0
M  V30 1420 C 133.735 -2.42015 3.5458 0
M  V30 1421 C 132.968 -3.6803 3.8651 0
M  V30 1422 O 133.191 -4.72413 3.1966 0
M  V30 1423 O 132.125 -3.6326 4.79923 0
M  V30 1424 H 135.951 -0.931988 2.89046 0
M  V30 1425 H 133.536 -0.395488 1.4407 0
M  V30 1426 H 135.418 -3.36008 2.54316 0
M  V30 1427 H 134.093 -2.89925 1.43963 0
M  V30 1428 H 133 -1.62017 3.37196 0
M  V30 1429 H 134.333 -2.14937 4.4279 0
M  V30 1430 N 135.985 -1.50799 -0.457987 0
M  V30 1431 C 137.213 -1.66218 -1.23203 0
M  V30 1432 C 137.628 -0.350894 -1.85511 0
M  V30 1433 O 136.985 0.668546 -1.69814 0
M  V30 1434 C 137.036 -2.76291 -2.33121 0
M  V30 1435 O 136.757 -4.02338 -1.73366 0
M  V30 1436 C 138.258 -3.028 -3.2377 0
M  V30 1437 H 135.478 -0.558361 -0.372121 0
M  V30 1438 H 138.022 -1.97099 -0.545179 0
M  V30 1439 H 136.177 -2.48068 -2.97558 0
M  V30 1440 H 136.591 -4.63312 -2.4585 0
M  V30 1441 H 138.065 -3.8345 -3.97077 0
M  V30 1442 H 138.542 -2.14385 -3.83322 0
M  V30 1443 H 139.148 -3.32604 -2.65056 0
M  V30 1444 N 137.463 0.71206 -1.40597 0
M  V30 1445 C 138.691 1.50111 -1.42388 0
M  V30 1446 C 139.106 1.88784 -0.0245395 0
M  V30 1447 O 138.463 1.55681 0.952351 0
M  V30 1448 C 138.514 2.7742 -2.31776 0
M  V30 1449 O 138.235 2.40382 -3.66262 0
M  V30 1450 C 139.736 3.7129 -2.42196 0
M  V30 1451 H 136.956 0.46314 -0.485533 0
M  V30 1452 H 139.5 0.878068 -1.8469 0
M  V30 1453 H 137.655 3.36001 -1.92827 0
M  V30 1454 H 138.069 3.22324 -4.13772 0
M  V30 1455 H 139.543 4.57448 -3.08943 0
M  V30 1456 H 140.02 4.14641 -1.44809 0
M  V30 1457 H 140.626 3.18619 -2.81712 0
M  V30 1458 N 138.941 1.26152 0.944643 0
M  V30 1459 C 140.171 1.14094 1.72239 0
M  V30 1460 C 140.579 -0.306931 1.86694 0
M  V30 1461 O 139.922 -1.22222 1.3714 0
M  V30 1462 C 139.984 1.73316 3.14963 0
M  V30 1463 C 139.648 3.2239 3.23904 0
M  V30 1464 C 140.645 4.19252 3.07447 0
M  V30 1465 C 138.33 3.62788 3.47405 0
M  V30 1466 C 140.324 5.54491 3.14353 0
M  V30 1467 C 138.011 4.98162 3.53947 0
M  V30 1468 C 139.009 5.93823 3.37436 0
M  V30 1469 O 138.697 7.26732 3.43679 0
M  V30 1470 H 138.429 0.398292 0.546205 0
M  V30 1471 H 140.983 1.67201 1.19301 0
M  V30 1472 H 139.213 1.14667 3.69308 0
M  V30 1473 H 140.902 1.56214 3.74636 0
M  V30 1474 H 141.668 3.8938 2.8915 0
M  V30 1475 H 137.547 2.88816 3.59313 0
M  V30 1476 H 141.091 6.29137 3.01384 0
M  V30 1477 H 136.988 5.27695 3.71763 0
M  V30 1478 H 137.756 7.3496 3.60245 0
M  V30 1479 N 140.419 -1.14872 1.07899 0
M  V30 1480 C 141.329 -2.2341 0.715915 0
M  V30 1481 C 142.345 -1.71808 -0.275306 0
M  V30 1482 O 143.521 -2.01039 -0.120545 0
M  V30 1483 C 140.586 -3.46474 0.125168 0
M  V30 1484 C 139.647 -4.13039 1.17034 0
M  V30 1485 C 138.88 -5.30229 0.607688 0
M  V30 1486 O 139.103 -5.675 -0.574497 0
M  V30 1487 O 138.037 -5.86444 1.35526 0
M  V30 1488 H 141.863 -2.56808 1.62121 0
M  V30 1489 H 139.448 -1.22702 0.852322 0
M  V30 1490 H 141.33 -4.20917 -0.201729 0
M  V30 1491 H 140.005 -3.14811 -0.753364 0
M  V30 1492 H 138.912 -3.40493 1.54968 0
M  V30 1493 H 140.245 -4.48796 2.02097 0
M  V30 1494 N 141.898 -0.863906 -1.31812 0
M  V30 1495 C 143.314 -0.555004 -1.49639 0
M  V30 1496 C 143.514 0.912266 -1.79666 0
M  V30 1497 O 142.57 1.69479 -1.87171 0
M  V30 1498 C 143.883 -1.44998 -2.63431 0
M  V30 1499 C 145.431 -1.45138 -2.77316 0
M  V30 1500 C 145.906 -2.33179 -3.94197 0
M  V30 1501 N 147.397 -2.31025 -4.01474 0
M  V30 1502 C 148.132 -2.95871 -4.9117 0
M  V30 1503 N 147.628 -3.69863 -5.8581 0
M  V30 1504 N 149.421 -2.85211 -4.84367 0
M  V30 1505 H 141.572 -1.81339 -1.10589 0
M  V30 1506 H 143.835 -0.77505 -0.545895 0
M  V30 1507 H 143.541 -2.49377 -2.48 0
M  V30 1508 H 143.415 -1.14409 -3.59431 0
M  V30 1509 H 145.802 -0.415201 -2.92164 0
M  V30 1510 H 145.883 -1.79747 -1.82001 0
M  V30 1511 H 145.527 -3.3687 -3.80107 0
M  V30 1512 H 145.457 -1.95897 -4.88807 0
M  V30 1513 H 147.948 -1.77238 -3.33759 0
M  V30 1514 H 148.261 -4.16486 -6.50968 0
M  V30 1515 H 146.606 -3.73971 -5.85808 0
M  V30 1516 H 149.797 -2.26948 -4.09405 0
M  V30 1517 H 149.97 -3.36027 -5.54066 0
M  V30 1518 N 143.376 1.44774 -0.622745 0
M  V30 1519 C 144.306 2.33382 0.0741861 0
M  V30 1520 C 145.287 1.47719 0.843387 0
M  V30 1521 O 146.472 1.76458 0.810934 0
M  V30 1522 C 143.602 3.30663 1.06204 0
M  V30 1523 C 142.556 4.26079 0.405037 0
M  V30 1524 C 141.882 5.13165 1.5022 0
M  V30 1525 C 143.182 5.1781 -0.683414 0
M  V30 1526 H 144.876 2.91905 -0.665713 0
M  V30 1527 H 142.422 1.40363 -0.321587 0
M  V30 1528 H 144.375 3.9153 1.55827 0
M  V30 1529 H 143.099 2.70331 1.83272 0
M  V30 1530 H 141.758 3.66532 -0.0704683 0
M  V30 1531 H 141.406 4.49191 2.26355 0
M  V30 1532 H 141.106 5.77812 1.06803 0
M  V30 1533 H 142.63 5.76902 2.00041 0
M  V30 1534 H 144.044 5.72661 -0.270631 0
M  V30 1535 H 142.441 5.91015 -1.04023 0
M  V30 1536 H 143.511 4.59326 -1.55395 0
M  V30 1537 N 144.854 0.36279 1.53368 0
M  V30 1538 C 145.817 -0.472679 2.24273 0
M  V30 1539 C 146.817 -1.012 1.24961 0
M  V30 1540 O 148.007 -0.898194 1.49259 0
M  V30 1541 C 145.139 -1.66039 2.97731 0
M  V30 1542 H 146.332 0.14773 2.99536 0
M  V30 1543 H 143.885 0.114434 1.55881 0
M  V30 1544 H 144.62 -2.31896 2.26704 0
M  V30 1545 H 144.405 -1.28066 3.70596 0
M  V30 1546 H 145.895 -2.25252 3.51641 0
M  V30 1547 N 146.332 -1.57332 0.0918853 0
M  V30 1548 C 147.242 -2.17368 -0.882505 0
M  V30 1549 C 148.258 -1.14226 -1.31257 0
M  V30 1550 O 149.434 -1.46582 -1.38115 0
M  V30 1551 C 146.499 -2.73962 -2.12476 0
M  V30 1552 C 145.56 -3.92048 -1.7492 0
M  V30 1553 C 144.793 -4.45933 -2.93223 0
M  V30 1554 O 145.016 -3.98764 -4.07852 0
M  V30 1555 O 143.95 -5.36999 -2.71875 0
M  V30 1556 H 147.776 -3.01031 -0.40172 0
M  V30 1557 H 145.361 -1.48813 -0.132291 0
M  V30 1558 H 147.243 -3.10147 -2.85283 0
M  V30 1559 H 145.918 -1.93347 -2.59613 0
M  V30 1560 H 144.825 -3.6068 -0.993025 0
M  V30 1561 H 146.158 -4.74017 -1.32548 0
M  V30 1562 N 147.81 0.181792 -1.56548 0
M  V30 1563 C 148.72 1.24538 -1.98815 0
M  V30 1564 C 149.736 1.49045 -0.897861 0
M  V30 1565 O 150.912 1.61399 -1.20467 0
M  V30 1566 C 147.977 2.56683 -2.33055 0
M  V30 1567 C 147.038 2.40131 -3.55859 0
M  V30 1568 C 146.271 3.65975 -3.88456 0
M  V30 1569 O 146.494 4.70711 -3.22161 0
M  V30 1570 O 145.428 3.6071 -4.81842 0
M  V30 1571 H 149.254 0.916647 -2.89536 0
M  V30 1572 H 146.839 0.387842 -1.44278 0
M  V30 1573 H 148.721 3.34655 -2.56094 0
M  V30 1574 H 147.396 2.89157 -1.45498 0
M  V30 1575 H 146.303 1.60226 -3.38051 0
M  V30 1576 H 147.636 2.12585 -4.43924 0
M  V30 1577 N 149.288 1.51039 0.449983 0
M  V30 1578 C 150.516 1.66869 1.2232 0
M  V30 1579 C 150.931 0.360727 1.85322 0
M  V30 1580 O 150.288 -0.659531 1.70166 0
M  V30 1581 C 150.339 2.77524 2.31652 0
M  V30 1582 O 150.06 4.03252 1.7123 0
M  V30 1583 C 151.561 3.04512 3.2216 0
M  V30 1584 H 148.781 0.560326 0.369155 0
M  V30 1585 H 151.325 1.97385 0.534719 0
M  V30 1586 H 149.48 2.49642 2.96239 0
M  V30 1587 H 149.894 4.64609 2.43389 0
M  V30 1588 H 151.368 3.85551 3.95038 0
M  V30 1589 H 151.845 2.16415 3.8218 0
M  V30 1590 H 152.451 3.34005 2.63288 0
M  V30 1591 N 150.766 -0.704594 1.40972 0
M  V30 1592 C 151.696 -1.83124 1.44872 0
M  V30 1593 C 152.677 -1.67281 0.30838 0
M  V30 1594 O 153.862 -1.87149 0.518556 0
M  V30 1595 C 150.992 -3.21181 1.32136 0
M  V30 1596 C 149.946 -3.51714 2.43888 0
M  V30 1597 C 149.272 -4.89032 2.16222 0
M  V30 1598 C 150.572 -3.516 3.86232 0
M  V30 1599 H 152.266 -1.80117 2.39161 0
M  V30 1600 H 149.812 -0.865145 1.15114 0
M  V30 1601 H 151.765 -3.99702 1.33479 0
M  V30 1602 H 150.489 -3.24791 0.343279 0
M  V30 1603 H 149.148 -2.75539 2.41813 0
M  V30 1604 H 148.796 -4.89256 1.16778 0
M  V30 1605 H 148.496 -5.10426 2.911 0
M  V30 1606 H 150.02 -5.69873 2.19265 0
M  V30 1607 H 151.434 -4.2014 3.9007 0
M  V30 1608 H 149.831 -3.84523 4.60719 0
M  V30 1609 H 150.901 -2.50757 4.15029 0
M  V30 1610 N 152.244 -1.26651 -0.937939 0
M  V30 1611 C 153.521 -1.0313 -1.66204 0
M  V30 1612 C 153.901 0.437256 -2.06522 0
M  V30 1613 O 153.249 1.41831 -1.79154 0
M  V30 1614 C 153.459 -1.98314 -2.87181 0
M  V30 1615 C 154.807 -2.27107 -3.58758 0
M  V30 1616 O 155.831 -1.96205 -2.97291 0
M  V30 1617 O 154.69 -2.79736 -4.69479 0
M  V30 1618 H 151.784 -0.392384 -0.727986 0
M  V30 1619 H 154.33 -1.37874 -0.989382 0
M  V30 1620 H 153.102 -2.97399 -2.54302 0
M  V30 1621 H 152.725 -1.64068 -3.6217 0
M  V30 1622 N 153.722 1.14298 -1.08507 0
M  V30 1623 C 154.947 1.8976 -0.837001 0
M  V30 1624 C 155.372 1.78097 0.605228 0
M  V30 1625 O 154.73 1.12188 1.4242 0
M  V30 1626 C 154.778 3.37685 -1.26495 0
M  V30 1627 O 153.882 4.10281 -0.417514 0
M  V30 1628 H 153.223 0.590365 -0.303917 0
M  V30 1629 H 155.753 1.44672 -1.44676 0
M  V30 1630 H 155.763 3.88501 -1.24625 0
M  V30 1631 H 154.438 3.45492 -2.31534 0
M  V30 1632 H 153.015 3.69536 -0.499722 0
M  V30 1633 N 155.201 0.870884 1.31352 0
M  V30 1634 C 156.131 0.343096 2.30966 0
M  V30 1635 C 157.112 -0.566507 1.60389 0
M  V30 1636 O 158.297 -0.483336 1.88089 0
M  V30 1637 C 155.427 -0.455487 3.443 0
M  V30 1638 C 154.381 0.361103 4.26474 0
M  V30 1639 C 153.707 -0.563221 5.31725 0
M  V30 1640 C 155.007 1.59566 4.97329 0
M  V30 1641 H 156.701 1.17548 2.75359 0
M  V30 1642 H 154.247 0.566686 1.32381 0
M  V30 1643 H 156.2 -0.83525 4.13039 0
M  V30 1644 H 154.924 -1.32139 2.98675 0
M  V30 1645 H 153.583 0.722825 3.59403 0
M  V30 1646 H 153.231 -1.42643 4.82351 0
M  V30 1647 H 152.931 -0.0207409 5.87596 0
M  V30 1648 H 154.455 -0.939808 6.03324 0
M  V30 1649 H 155.869 1.28728 5.58661 0
M  V30 1650 H 154.266 2.07728 5.63 0
M  V30 1651 H 155.336 2.34798 4.24262 0
M  V30 1652 N 156.679 -1.44442 0.630414 0
M  V30 1653 C 157.642 -2.29107 -0.0652523 0
M  V30 1654 C 158.642 -1.41002 -0.772995 0
M  V30 1655 O 159.832 -1.62881 -0.617692 0
M  V30 1656 C 156.964 -3.22564 -1.10296 0
M  V30 1657 H 158.157 -2.92103 0.679401 0
M  V30 1658 H 155.71 -1.51343 0.390517 0
M  V30 1659 H 156.445 -2.64416 -1.87762 0
M  V30 1660 H 156.23 -3.87491 -0.59941 0
M  V30 1661 H 157.72 -3.86167 -1.5895 0
M  V30 1662 N 158.157 -0.370918 -1.53173 0
M  V30 1663 C 159.067 0.480823 -2.2962 0
M  V30 1664 C 160.083 1.08789 -1.35798 0
M  V30 1665 O 161.259 1.09768 -1.68858 0
M  V30 1666 C 158.324 1.60227 -3.07454 0
M  V30 1667 C 157.385 1.0222 -4.16953 0
M  V30 1668 C 156.618 2.0902 -4.91066 0
M  V30 1669 O 156.841 3.30222 -4.65091 0
M  V30 1670 O 155.775 1.71778 -5.76867 0
M  V30 1671 H 159.601 -0.141421 -3.03371 0
M  V30 1672 H 157.186 -0.135146 -1.48787 0
M  V30 1673 H 159.068 2.25417 -3.56041 0
M  V30 1674 H 157.743 2.20982 -2.36535 0
M  V30 1675 H 156.65 0.334064 -3.72605 0
M  V30 1676 H 157.983 0.459131 -4.90054 0
M  V30 1677 N 159.635 1.57281 -0.100228 0
M  V30 1678 C 160.882 1.94537 0.562268 0
M  V30 1679 C 161.21 0.982315 1.67871 0
M  V30 1680 O 160.465 0.00280936 1.957 0
M  V30 1681 C 160.764 3.38305 1.15259 0
M  V30 1682 C 160.43 4.50618 0.159409 0
M  V30 1683 C 159.092 4.81066 -0.113741 0
M  V30 1684 C 161.444 5.18615 -0.518461 0
M  V30 1685 C 158.772 5.76835 -1.07137 0
M  V30 1686 C 161.124 6.15412 -1.46459 0
M  V30 1687 C 159.788 6.44262 -1.74592 0
M  V30 1688 H 159.058 0.711863 0.205748 0
M  V30 1689 H 161.705 1.90679 -0.17715 0
M  V30 1690 H 160.01 3.38766 1.96836 0
M  V30 1691 H 161.707 3.64435 1.67297 0
M  V30 1692 H 158.297 4.2689 0.382491 0
M  V30 1693 H 162.481 4.95264 -0.320581 0
M  V30 1694 H 157.737 5.975 -1.29628 0
M  V30 1695 H 161.911 6.67194 -1.99564 0
M  V30 1696 H 159.538 7.1828 -2.48953 0
M  V30 1697 N 161.113 -0.173488 1.56642 0
M  V30 1698 C 162.36 -0.890465 1.81871 0
M  V30 1699 C 162.688 -1.82339 0.67696 0
M  V30 1700 O 161.943 -1.92795 -0.335926 0
M  V30 1701 C 162.242 -1.72069 3.13252 0
M  V30 1702 C 161.908 -0.936878 4.41059 0
M  V30 1703 C 160.57 -0.720545 4.75775 0
M  V30 1704 C 162.922 -0.386919 5.19762 0
M  V30 1705 C 160.25 0.0568829 5.86672 0
M  V30 1706 C 162.602 0.37741 6.31473 0
M  V30 1707 C 161.266 0.604563 6.64757 0
M  V30 1708 H 160.536 -0.325844 0.665512 0
M  V30 1709 H 163.183 -0.155527 1.90867 0
M  V30 1710 H 161.488 -2.52496 2.99588 0
M  V30 1711 H 163.185 -2.27844 3.29982 0
M  V30 1712 H 159.775 -1.11553 4.13828 0
M  V30 1713 H 163.959 -0.541398 4.93338 0
M  V30 1714 H 159.215 0.242635 6.10918 0
M  V30 1715 H 163.389 0.810825 6.91664 0
M  V30 1716 H 161.016 1.20885 7.50527 0
M  V30 1717 N 162.591 -1.51276 -0.441967 0
M  V30 1718 C 163.501 -1.75092 -1.56141 0
M  V30 1719 C 164.517 -0.634963 -1.62001 0
M  V30 1720 O 165.693 -0.916686 -1.79329 0
M  V30 1721 C 162.758 -1.86666 -2.92158 0
M  V30 1722 C 161.819 -3.10506 -2.96453 0
M  V30 1723 C 161.052 -3.21519 -4.25982 0
M  V30 1724 O 161.275 -2.38586 -5.18105 0
M  V30 1725 O 160.209 -4.14465 -4.36466 0
M  V30 1726 H 164.035 -2.70044 -1.38961 0
M  V30 1727 H 161.62 -1.35722 -0.624499 0
M  V30 1728 H 163.502 -1.96292 -3.72891 0
M  V30 1729 H 162.177 -0.949014 -3.09476 0
M  V30 1730 H 161.084 -3.06363 -2.14692 0
M  V30 1731 H 162.417 -4.01945 -2.84079 0
M  V30 1732 N 164.069 0.697108 -1.41344 0
M  V30 1733 C 165.346 1.45154 -1.31109 0
M  V30 1734 C 165.726 2.11009 0.0620449 0
M  V30 1735 O 165.074 2.01571 1.07618 0
M  V30 1736 C 165.284 2.47223 -2.46337 0
M  V30 1737 C 166.632 3.1252 -2.87431 0
M  V30 1738 O 167.656 2.57547 -2.46065 0
M  V30 1739 O 166.515 4.12083 -3.58957 0
M  V30 1740 H 163.609 0.646365 -0.515889 0
M  V30 1741 H 166.155 0.727716 -1.53305 0
M  V30 1742 H 164.927 1.97204 -3.37974 0
M  V30 1743 H 164.55 3.27116 -2.2601 0
M  V30 1744 N 165.547 1.27147 0.931209 0
M  V30 1745 C 166.477 1.12081 2.04842 0
M  V30 1746 C 167.458 0.0232364 1.70084 0
M  V30 1747 O 168.643 0.197085 1.93197 0
M  V30 1748 C 165.773 0.76354 3.38803 0
M  V30 1749 C 164.727 1.81396 3.87659 0
M  V30 1750 C 164.053 1.31075 5.18385 0
M  V30 1751 C 165.353 3.21739 4.11438 0
M  V30 1752 H 167.047 2.05537 2.17703 0
M  V30 1753 H 164.593 0.989603 1.04608 0
M  V30 1754 H 166.546 0.644982 4.16435 0
M  V30 1755 H 165.27 -0.206727 3.25945 0
M  V30 1756 H 163.929 1.92136 3.12217 0
M  V30 1757 H 163.577 0.330037 5.01916 0
M  V30 1758 H 163.277 2.013 5.52044 0
M  V30 1759 H 164.801 1.20506 5.98591 0
M  V30 1760 H 166.215 3.14019 4.79651 0
M  V30 1761 H 164.612 3.89644 4.56397 0
M  V30 1762 H 165.682 3.67054 3.16859 0
M  V30 1763 N 167.025 -1.13721 1.09112 0
M  V30 1764 C 167.988 -2.17222 0.731241 0
M  V30 1765 C 168.988 -1.59035 -0.237566 0
M  V30 1766 O 170.178 -1.74192 -0.0161704 0
M  V30 1767 C 167.31 -3.40804 0.0808443 0
M  V30 1768 H 168.503 -2.50573 1.64783 0
M  V30 1769 H 166.056 -1.28493 0.889897 0
M  V30 1770 H 166.791 -3.1304 -0.847127 0
M  V30 1771 H 166.576 -3.84306 0.777896 0
M  V30 1772 H 168.066 -4.1731 -0.155657 0
M  V30 1773 N 168.503 -0.877838 -1.30888 0
M  V30 1774 C 169.78 -0.413052 -1.91189 0
M  V30 1775 C 170.16 1.1056 -1.79832 0
M  V30 1776 O 169.508 1.93771 -1.21099 0
M  V30 1777 C 169.718 -0.903191 -3.3711 0
M  V30 1778 C 171.066 -0.93395 -4.14201 0
M  V30 1779 O 172.09 -0.849373 -3.45925 0
M  V30 1780 O 170.949 -1.05772 -5.36167 0
M  V30 1781 H 168.043 -0.125035 -0.817493 0
M  V30 1782 H 170.589 -0.966269 -1.39504 0
M  V30 1783 H 169.361 -1.94692 -3.39427 0
M  V30 1784 H 168.984 -0.328732 -3.96239 0
M  V30 1785 N 169.982 1.44106 -0.638065 0
M  V30 1786 C 170.929 2.30715 0.062701 0
M  V30 1787 C 171.899 1.43882 0.829883 0
M  V30 1788 O 173.084 1.72775 0.809532 0
M  V30 1789 C 170.224 3.29258 1.03358 0
M  V30 1790 C 169.337 4.31192 0.26409 0
M  V30 1791 C 168.472 5.16825 1.22741 0
M  V30 1792 C 167.511 6.10462 0.447475 0
M  V30 1793 N 166.648 6.8877 1.36161 0
M  V30 1794 H 171.488 2.90096 -0.681781 0
M  V30 1795 H 169.025 1.42925 -0.347988 0
M  V30 1796 H 170.983 3.84886 1.60992 0
M  V30 1797 H 169.613 2.71562 1.74511 0
M  V30 1798 H 168.665 3.77981 -0.428295 0
M  V30 1799 H 169.977 4.97619 -0.343052 0
M  V30 1800 H 169.131 5.77004 1.87487 0
M  V30 1801 H 167.87 4.50488 1.86847 0
M  V30 1802 H 166.875 5.49386 -0.213433 0
M  V30 1803 H 168.1 6.78837 -0.188968 0
M  V30 1804 H 166.046 6.25096 1.98975 0
M  V30 1805 H 165.963 7.51663 0.808656 0
M  V30 1806 H 167.231 7.53467 1.99769 0
M  V30 1807 N 171.46 0.379036 1.52974 0
M  V30 1808 C 172.871 -0.0972525 1.86447 0
M  V30 1809 C 173.222 -1.47027 1.29914 0
M  V30 1810 O 172.347 -2.07135 0.626433 0
M  V30 1811 C 172.942 -0.183248 3.38304 0
M  V30 1812 C 171.501 -0.603812 3.71525 0
M  V30 1813 C 170.648 0.240632 2.76254 0
M  V30 1814 H 173.599 0.597316 1.4703 0
M  V30 1815 H 173.62 -1.00432 3.67006 0
M  V30 1816 H 173.132 0.816191 3.79421 0
M  V30 1817 H 171.233 -1.61099 3.35973 0
M  V30 1818 H 171.346 -0.369086 4.77676 0
M  V30 1819 H 169.71 -0.292548 2.53014 0
M  V30 1820 H 170.493 1.23786 3.20206 0
M  V30 1821 N 172.938 -1.57226 0.108567 0
M  V30 1822 C 174.168 -1.9889 -0.559142 0
M  V30 1823 C 174.576 -0.986889 -1.61422 0
M  V30 1824 O 173.919 0.0298705 -1.83676 0
M  V30 1825 C 173.981 -3.36952 -1.25315 0
M  V30 1826 C 173.645 -4.55679 -0.347248 0
M  V30 1827 C 174.642 -5.18281 0.409996 0
M  V30 1828 C 172.327 -5.0162 -0.261367 0
M  V30 1829 C 174.321 -6.25203 1.24096 0
M  V30 1830 C 172.008 -6.08405 0.573238 0
M  V30 1831 C 173.006 -6.70063 1.32304 0
M  V30 1832 O 172.694 -7.74788 2.14381 0
M  V30 1833 H 172.426 -0.658343 -0.153492 0
M  V30 1834 H 174.98 -2.04532 0.188584 0
M  V30 1835 H 173.21 -3.28032 -2.04773 0
M  V30 1836 H 174.899 -3.62974 -1.81673 0
M  V30 1837 H 175.665 -4.8371 0.353457 0
M  V30 1838 H 171.544 -4.53381 -0.834656 0
M  V30 1839 H 175.088 -6.73259 1.82669 0
M  V30 1840 H 170.985 -6.42406 0.631208 0
M  V30 1841 H 171.753 -7.91837 2.07209 0
M  V30 1842 N 174.416 0.165178 -1.56732 0
M  V30 1843 C 175.644 0.896218 -1.86482 0
M  V30 1844 C 176.059 1.75555 -0.694675 0
M  V30 1845 O 175.416 1.79379 0.33607 0
M  V30 1846 C 175.467 1.76792 -3.1532 0
M  V30 1847 O 175.188 0.943239 -4.27825 0
M  V30 1848 C 176.689 2.6081 -3.58459 0
M  V30 1849 H 173.909 0.260064 -0.618553 0
M  V30 1850 H 176.453 0.163428 -2.03846 0
M  V30 1851 H 174.608 2.45398 -2.99764 0
M  V30 1852 H 175.022 1.53998 -5.01383 0
M  V30 1853 H 176.496 3.17579 -4.51495 0
M  V30 1854 H 176.973 3.35977 -2.82872 0
M  V30 1855 H 177.579 1.97526 -3.76648 0
M  V30 1856 N 175.894 1.51508 0.433938 0
M  V30 1857 C 177.141 1.64345 1.18309 0
M  V30 1858 C 177.469 0.361315 1.91115 0
M  V30 1859 O 176.724 -0.654753 1.84422 0
M  V30 1860 C 177.023 2.79928 2.22205 0
M  V30 1861 C 176.689 4.19078 1.66387 0
M  V30 1862 C 175.351 4.56932 1.50887 0
M  V30 1863 C 177.703 5.05894 1.25381 0
M  V30 1864 C 175.031 5.79305 0.928608 0
M  V30 1865 C 177.383 6.2885 0.687823 0
M  V30 1866 C 176.047 6.65473 0.519755 0
M  V30 1867 H 175.317 0.601381 0.432923 0
M  V30 1868 H 177.964 1.85549 0.473676 0
M  V30 1869 H 176.269 2.52959 2.99197 0
M  V30 1870 H 177.966 2.87059 2.79997 0
M  V30 1871 H 174.556 3.89234 1.79428 0
M  V30 1872 H 178.74 4.77253 1.36175 0
M  V30 1873 H 173.996 6.06324 0.786186 0
M  V30 1874 H 178.17 6.95461 0.361581 0
M  V30 1875 H 175.797 7.6017 0.0679979 0
M  V30 1876 N 177.372 -0.689602 1.41712 0
M  V30 1877 C 178.282 -1.83314 1.46401 0
M  V30 1878 C 179.298 -1.7036 0.35405 0
M  V30 1879 O 180.474 -1.92171 0.602692 0
M  V30 1880 C 177.539 -3.19344 1.34982 0
M  V30 1881 C 176.6 -3.44363 2.56344 0
M  V30 1882 C 175.833 -4.73904 2.45461 0
M  V30 1883 O 176.056 -5.508 1.48241 0
M  V30 1884 O 174.99 -4.99839 3.35328 0
M  V30 1885 H 178.816 -1.82314 2.42889 0
M  V30 1886 H 176.401 -0.843438 1.23315 0
M  V30 1887 H 178.283 -4.00547 1.3092 0
M  V30 1888 H 176.958 -3.21014 0.41612 0
M  V30 1889 H 175.865 -2.63067 2.65982 0
M  V30 1890 H 177.198 -3.47512 3.48563 0
M  V30 1891 N 178.85 -1.27639 -0.924453 0
M  V30 1892 C 180.127 -1.04887 -1.651 0
M  V30 1893 C 180.507 0.415327 -2.06974 0
M  V30 1894 O 179.855 1.39923 -1.80648 0
M  V30 1895 C 180.065 -2.01348 -2.85061 0
M  V30 1896 C 181.413 -2.30899 -3.56329 0
M  V30 1897 O 182.437 -1.99348 -2.95193 0
M  V30 1898 O 181.296 -2.84699 -4.66485 0
M  V30 1899 H 178.39 -0.400083 -0.723784 0
M  V30 1900 H 180.936 -1.38916 -0.974703 0
M  V30 1901 H 179.708 -3.0008 -2.51133 0
M  V30 1902 H 179.331 -1.679 -3.6041 0
M  V30 1903 N 180.328 1.1314 -1.09713 0
M  V30 1904 C 181.558 1.88048 -0.855656 0
M  V30 1905 C 181.966 1.79537 0.596919 0
M  V30 1906 O 181.309 1.16196 1.42282 0
M  V30 1907 C 181.371 3.38314 -1.21589 0
M  V30 1908 C 181.035 3.70605 -2.67397 0
M  V30 1909 C 182.032 3.69596 -3.65643 0
M  V30 1910 C 179.717 4.0017 -3.03593 0
M  V30 1911 C 181.711 3.977 -4.9811 0
M  V30 1912 C 179.398 4.27935 -4.36251 0
M  V30 1913 C 180.396 4.26685 -5.33318 0
M  V30 1914 O 180.084 4.53767 -6.63589 0
M  V30 1915 H 179.816 0.60208 -0.307368 0
M  V30 1916 H 182.37 1.44128 -1.46343 0
M  V30 1917 H 180.6 3.82752 -0.551177 0
M  V30 1918 H 182.289 3.94552 -0.953083 0
M  V30 1919 H 183.055 3.46826 -3.39023 0
M  V30 1920 H 178.934 4.00289 -2.2867 0
M  V30 1921 H 182.478 3.9664 -5.73866 0
M  V30 1922 H 178.375 4.50178 -4.62613 0
M  V30 1923 H 179.143 4.71422 -6.69107 0
M  V30 1924 N 181.806 0.884767 1.30421 0
M  V30 1925 C 183.083 0.423185 1.90967 0
M  V30 1926 C 183.463 -1.09605 1.80416 0
M  V30 1927 O 182.811 -1.93126 1.22125 0
M  V30 1928 C 183.021 0.921056 3.36627 0
M  V30 1929 C 184.369 0.955903 4.137 0
M  V30 1930 O 185.393 0.867706 3.4547 0
M  V30 1931 O 184.252 1.08614 5.35598 0
M  V30 1932 H 181.346 0.129369 0.816819 0
M  V30 1933 H 183.892 0.973653 1.3899 0
M  V30 1934 H 182.664 1.96489 3.3839 0
M  V30 1935 H 182.287 0.349741 3.96059 0
M  V30 1936 N 183.284 -1.43765 0.645699 0
M  V30 1937 C 184.53 -2.02197 0.156271 0
M  V30 1938 C 184.863 -1.50776 -1.22393 0
M  V30 1939 O 184.138 -0.697771 -1.81553 0
M  V30 1940 C 184.421 -3.59749 0.158872 0
M  V30 1941 C 184.274 -4.21419 1.57245 0
M  V30 1942 C 185.593 -4.37149 -0.50879 0
M  V30 1943 H 182.712 -0.734694 0.0582602 0
M  V30 1944 H 185.354 -1.71157 0.824951 0
M  V30 1945 H 183.504 -3.86325 -0.410525 0
M  V30 1946 H 185.176 -4.059 2.19186 0
M  V30 1947 H 183.419 -3.78356 2.122 0
M  V30 1948 H 184.09 -5.30482 1.52619 0
M  V30 1949 H 186.566 -4.16093 -0.024412 0
M  V30 1950 H 185.442 -5.4683 -0.476213 0
M  V30 1951 H 185.703 -4.12839 -1.58165 0
M  V30 1952 N 184.763 -0.387143 -1.52771 0
M  V30 1953 C 185.988 0.198407 -2.06449 0
M  V30 1954 C 186.413 1.39918 -1.25716 0
M  V30 1955 O 185.771 1.79099 -0.281657 0
M  V30 1956 C 185.819 0.548893 -3.56398 0
M  V30 1957 O 184.923 1.64315 -3.78252 0
M  V30 1958 H 184.264 0.0237731 -0.663574 0
M  V30 1959 H 186.794 -0.553989 -1.96957 0
M  V30 1960 H 186.804 0.813812 -3.99801 0
M  V30 1961 H 185.479 -0.329005 -4.14597 0
M  V30 1962 H 184.056 1.37211 -3.46738 0
M  V30 1963 N 186.241 1.57166 -0.116904 0
M  V30 1964 C 187.488 1.95123 0.541603 0
M  V30 1965 C 187.816 1.00006 1.6682 0
M  V30 1966 O 187.071 0.0235658 1.95686 0
M  V30 1967 C 187.37 3.39508 1.11664 0
M  V30 1968 C 187.036 4.50762 0.111606 0
M  V30 1969 C 185.698 4.80918 -0.164758 0
M  V30 1970 C 188.05 5.18036 -0.573438 0
M  V30 1971 C 185.378 5.75666 -1.13249 0
M  V30 1972 C 187.73 6.13824 -1.52978 0
M  V30 1973 C 186.394 6.42374 -1.81415 0
M  V30 1974 H 185.664 0.714005 0.198187 0
M  V30 1975 H 188.311 1.9048 -0.197365 0
M  V30 1976 H 186.616 3.40835 1.93232 0
M  V30 1977 H 188.313 3.66189 1.63422 0
M  V30 1978 H 184.903 4.27272 0.337192 0
M  V30 1979 H 189.087 4.94896 -0.373092 0
M  V30 1980 H 184.343 5.96092 -1.35958 0
M  V30 1981 H 188.517 6.65039 -2.06629 0
M  V30 1982 H 186.144 7.15599 -2.56557 0
M  V30 1983 N 187.719 -0.156864 1.56817 0
M  V30 1984 C 188.967 -0.869404 1.82444 0
M  V30 1985 C 189.288 -1.82147 0.69623 0
M  V30 1986 O 188.558 -1.93847 -0.28287 0
M  V30 1987 H 187.138 -0.324043 0.673056 0
M  V30 1988 H 189.8 -0.153224 1.94297 0
M  V30 1989 H 188.896 -1.43761 2.77019 0
M  V30 1990 N 189.197 -1.51736 -0.425897 0
M  V30 1991 C 190.422 -1.69082 -1.20108 0
M  V30 1992 C 190.847 -0.392398 -1.83962 0
M  V30 1993 O 190.205 0.64858 -1.69302 0
M  V30 1994 C 190.253 -2.81604 -2.25237 0
M  V30 1995 O 189.357 -2.46004 -3.30992 0
M  V30 1996 H 188.698 -0.563408 -0.35138 0
M  V30 1997 H 191.228 -1.98358 -0.501512 0
M  V30 1998 H 191.238 -3.06025 -2.69838 0
M  V30 1999 H 189.913 -3.75817 -1.78142 0
M  V30 2000 H 188.49 -2.32195 -2.91787 0
M  V30 2001 N 190.675 0.682077 -1.42076 0
M  V30 2002 C 191.923 1.4393 -1.41876 0
M  V30 2003 C 192.244 1.94971 -0.0335599 0
M  V30 2004 O 191.514 1.72591 0.926773 0
M  V30 2005 H 190.094 0.534085 -0.522267 0
M  V30 2006 H 192.756 0.806427 -1.77434 0
M  V30 2007 H 191.852 2.29588 -2.11414 0
M  V30 2008 N 192.153 1.28127 0.917671 0
M  V30 2009 C 193.399 1.15223 1.66888 0
M  V30 2010 C 193.732 -0.299293 1.9188 0
M  V30 2011 O 193.007 -1.21805 1.51637 0
M  V30 2012 C 193.29 1.94706 3.02922 0
M  V30 2013 C 193.143 3.47898 2.85109 0
M  V30 2014 C 194.462 1.75939 4.03402 0
M  V30 2015 H 191.581 0.419946 0.605652 0
M  V30 2016 H 194.223 1.57398 1.06423 0
M  V30 2017 H 192.373 1.58864 3.54534 0
M  V30 2018 H 194.045 3.93624 2.40537 0
M  V30 2019 H 192.288 3.7373 2.20246 0
M  V30 2020 H 192.959 3.98765 3.81694 0
M  V30 2021 H 195.435 2.07209 3.60837 0
M  V30 2022 H 194.311 2.33931 4.96556 0
M  V30 2023 H 194.572 0.709877 4.36364 0
M  V30 2024 N 193.631 -1.12557 1.10312 0
M  V30 2025 C 194.561 -2.20341 0.772798 0
M  V30 2026 C 195.542 -1.68198 -0.25365 0
M  V30 2027 O 196.727 -1.93831 -0.119699 0
M  V30 2028 C 193.857 -3.46709 0.202443 0
M  V30 2029 C 192.811 -4.11996 1.15943 0
M  V30 2030 C 192.137 -5.328 0.450345 0
M  V30 2031 C 193.437 -4.5828 2.50552 0
M  V30 2032 H 195.131 -2.48229 1.674 0
M  V30 2033 H 192.677 -1.19308 0.806326 0
M  V30 2034 H 194.63 -4.2138 -0.0407752 0
M  V30 2035 H 193.354 -3.18245 -0.734001 0
M  V30 2036 H 192.013 -3.39305 1.38808 0
M  V30 2037 H 191.661 -5.00602 -0.490531 0
M  V30 2038 H 191.361 -5.7743 1.08851 0
M  V30 2039 H 192.885 -6.10219 0.215642 0
M  V30 2040 H 194.299 -5.2433 2.31843 0
M  V30 2041 H 192.696 -5.13683 3.10242 0
M  V30 2042 H 193.766 -3.72329 3.10643 0
M  V30 2043 N 195.109 -0.891671 -1.2995 0
M  V30 2044 C 196.337 -0.52866 -2.00032 0
M  V30 2045 C 196.752 0.884574 -1.66795 0
M  V30 2046 O 196.109 1.5827 -0.908669 0
M  V30 2047 C 196.16 -0.701814 -3.54622 0
M  V30 2048 O 195.881 -2.05942 -3.86678 0
M  V30 2049 C 197.382 -0.342683 -4.41973 0
M  V30 2050 H 194.602 -0.203659 -0.639347 0
M  V30 2051 H 197.146 -1.19881 -1.65677 0
M  V30 2052 H 195.301 -0.0789468 -3.8732 0
M  V30 2053 H 195.715 -2.08291 -4.81368 0
M  V30 2054 H 197.189 -0.514709 -5.49595 0
M  V30 2055 H 197.666 0.71975 -4.33262 0
M  V30 2056 H 198.272 -0.942154 -4.14733 0
M  V30 2057 N 196.587 1.43421 -0.653314 0
M  V30 2058 C 197.833 2.02111 -0.166992 0
M  V30 2059 C 198.166 1.51423 1.21592 0
M  V30 2060 O 197.441 0.707389 1.8118 0
M  V30 2061 C 197.724 3.5966 -0.177948 0
M  V30 2062 C 197.577 4.20579 -1.59478 0
M  V30 2063 C 198.896 4.37413 0.4856 0
M  V30 2064 H 196.015 0.734374 -0.0621557 0
M  V30 2065 H 198.657 1.70717 -0.834016 0
M  V30 2066 H 196.807 3.86537 0.390032 0
M  V30 2067 H 198.479 4.04732 -2.21336 0
M  V30 2068 H 196.722 3.77226 -2.14204 0
M  V30 2069 H 197.393 5.29665 -1.5543 0
M  V30 2070 H 199.869 4.161 0.00234528 0
M  V30 2071 H 198.745 5.47075 0.447207 0
M  V30 2072 H 199.006 4.13672 1.55974 0
M  V30 2073 N 198.065 0.39524 1.52563 0
M  V30 2074 C 199.012 -0.437036 2.26624 0
M  V30 2075 C 199.982 -1.05281 1.28472 0
M  V30 2076 O 201.167 -1.07971 1.57311 0
M  V30 2077 C 198.307 -1.55524 3.08069 0
M  V30 2078 C 197.42 -0.961745 4.21158 0
M  V30 2079 C 196.555 -2.05149 4.89987 0
M  V30 2080 C 195.594 -1.4342 5.95061 0
M  V30 2081 N 194.731 -2.46351 6.57462 0
M  V30 2082 H 199.571 0.200976 2.97322 0
M  V30 2083 H 197.108 0.110944 1.46681 0
M  V30 2084 H 199.066 -2.21437 3.53584 0
M  V30 2085 H 197.696 -2.16348 2.3957 0
M  V30 2086 H 196.748 -0.192048 3.79915 0
M  V30 2087 H 198.06 -0.470701 4.96574 0
M  V30 2088 H 197.214 -2.78819 5.38837 0
M  V30 2089 H 195.953 -2.57615 4.14109 0
M  V30 2090 H 194.958 -0.682774 5.45544 0
M  V30 2091 H 196.183 -0.917416 6.72875 0
M  V30 2092 H 194.129 -2.97975 5.8442 0
M  V30 2093 H 194.046 -2.02019 7.28508 0
M  V30 2094 H 195.314 -3.19633 7.10954 0
M  V30 2095 N 199.544 -1.57102 0.125237 0
M  V30 2096 C 200.474 -2.18659 -0.819174 0
M  V30 2097 C 201.455 -1.12843 -1.27281 0
M  V30 2098 O 202.64 -1.41104 -1.33429 0
M  V30 2099 C 199.77 -2.79096 -2.06695 0
M  V30 2100 C 198.724 -3.90548 -1.75088 0
M  V30 2101 C 198.05 -4.37821 -3.06948 0
M  V30 2102 C 199.35 -5.12356 -1.01435 0
M  V30 2103 H 201.044 -2.9783 -0.306202 0
M  V30 2104 H 198.59 -1.4326 -0.145839 0
M  V30 2105 H 200.543 -3.2082 -2.73226 0
M  V30 2106 H 199.267 -1.97223 -2.60328 0
M  V30 2107 H 197.926 -3.49409 -1.10944 0
M  V30 2108 H 197.574 -3.52799 -3.58527 0
M  V30 2109 H 197.274 -5.12982 -2.86571 0
M  V30 2110 H 198.798 -4.822 -3.74587 0
M  V30 2111 H 200.212 -5.5106 -1.58132 0
M  V30 2112 H 198.609 -5.9314 -0.911319 0
M  V30 2113 H 199.679 -4.849 -0.00218681 0
M  V30 2114 N 201.022 0.148545 -1.56898 0
M  V30 2115 C 202.27 0.859717 -1.82902 0
M  V30 2116 C 202.591 1.81775 -0.70588 0
M  V30 2117 O 201.861 1.93994 0.272586 0
M  V30 2118 H 200.441 0.320469 -0.674766 0
M  V30 2119 H 203.103 0.142918 -1.94375 0
M  V30 2120 H 202.199 1.4229 -2.77777 0
M  V30 2121 N 202.5 1.5196 0.417844 0
M  V30 2122 C 203.748 1.65263 1.16329 0
M  V30 2123 C 204.069 0.380634 1.91249 0
M  V30 2124 O 203.339 -0.604214 1.86349 0
M  V30 2125 H 201.919 0.60912 0.432414 0
M  V30 2126 H 204.581 1.88969 0.477162 0
M  V30 2127 H 203.677 2.4896 1.88217 0
M  V30 2128 N 203.978 -0.674533 1.42435 0
M  V30 2129 C 205.255 -1.4305 1.33402 0
M  V30 2130 C 205.635 -2.11081 -0.0284674 0
M  V30 2131 O 204.983 -2.03257 -1.04397 0
M  V30 2132 C 205.193 -2.43272 2.50239 0
M  V30 2133 C 206.541 -3.07907 2.92367 0
M  V30 2134 O 207.565 -2.53599 2.50132 0
M  V30 2135 O 206.424 -4.0632 3.65467 0
M  V30 2136 H 203.518 -0.638076 0.526106 0
M  V30 2137 H 206.064 -0.703235 1.54443 0
M  V30 2138 H 204.836 -1.91803 3.41068 0
M  V30 2139 H 204.459 -3.23479 2.31186 0
M  V30 2140 N 205.456 -1.28612 -0.910864 0
M  V30 2141 C 206.386 -1.15326 -2.03032 0
M  V30 2142 C 207.367 -0.0502924 -1.70026 0
M  V30 2143 O 208.552 -0.227797 -1.92859 0
M  V30 2144 C 205.682 -0.817343 -3.37545 0
M  V30 2145 C 204.636 -1.8754 -3.84724 0
M  V30 2146 C 203.962 -1.39305 -5.16235 0
M  V30 2147 C 205.262 -3.28244 -4.06267 0
M  V30 2148 H 206.956 -2.08975 -2.14406 0
M  V30 2149 H 204.502 -1.00612 -1.03021 0
M  V30 2150 H 206.455 -0.711151 -4.15356 0
M  V30 2151 H 205.179 0.154846 -3.26233 0
M  V30 2152 H 203.838 -1.97079 -3.09121 0
M  V30 2153 H 203.486 -0.409846 -5.01328 0
M  V30 2154 H 203.186 -2.10057 -5.48771 0
M  V30 2155 H 204.71 -1.30014 -5.96598 0
M  V30 2156 H 206.124 -3.21611 -4.74594 0
M  V30 2157 H 204.521 -3.96855 -4.5014 0
M  V30 2158 H 205.591 -3.72048 -3.10979 0
M  V30 2159 N 206.934 1.1197 -1.10907 0
M  V30 2160 C 208.182 1.83225 -0.852819 0
M  V30 2161 C 208.503 1.84769 0.623341 0
M  V30 2162 O 207.773 1.3143 1.45269 0
M  V30 2163 H 206.353 0.67849 -0.312507 0
M  V30 2164 H 209.015 1.3556 -1.40033 0
M  V30 2165 H 208.111 2.87265 -1.22005 0
M  V30 2166 N 208.412 0.89855 1.29475 0
M  V30 2167 C 209.64 0.539261 1.99749 0
M  V30 2168 C 210.055 -0.875716 1.67262 0
M  V30 2169 O 209.412 -1.57786 0.917049 0
M  V30 2170 C 209.463 0.72061 3.54245 0
M  V30 2171 O 209.184 2.07989 3.8558 0
M  V30 2172 C 210.685 0.366118 4.41786 0
M  V30 2173 H 207.905 0.207047 0.638258 0
M  V30 2174 H 210.449 1.20758 1.65039 0
M  V30 2175 H 208.604 0.0994862 3.87272 0
M  V30 2176 H 209.018 2.10841 4.80257 0
M  V30 2177 H 210.492 0.543848 5.49314 0
M  V30 2178 H 210.969 -0.696763 4.33638 0
M  V30 2179 H 211.575 0.964135 4.14228 0
M  V30 2180 N 209.89 -1.43072 0.660911 0
M  V30 2181 C 211.12 -2.05769 0.185153 0
M  V30 2182 C 211.528 -1.49668 -1.15742 0
M  V30 2183 O 210.871 -0.625649 -1.72717 0
M  V30 2184 C 210.933 -3.59489 0.0278237 0
M  V30 2185 C 210.597 -4.38212 1.2969 0
M  V30 2186 C 211.594 -4.69772 2.22734 0
M  V30 2187 C 209.279 -4.7809 1.54063 0
M  V30 2188 C 211.273 -5.40129 3.38437 0
M  V30 2189 C 208.96 -5.4819 2.70058 0
M  V30 2190 C 209.958 -5.79132 3.62071 0
M  V30 2191 O 209.646 -6.47798 4.76039 0
M  V30 2192 H 209.378 -0.669873 0.0908086 0
M  V30 2193 H 211.932 -1.84436 0.90402 0
M  V30 2194 H 210.162 -3.79426 -0.746489 0
M  V30 2195 H 211.851 -4.03862 -0.406275 0
M  V30 2196 H 212.617 -4.39476 2.05149 0
M  V30 2197 H 208.496 -4.53408 0.833215 0
M  V30 2198 H 212.04 -5.64198 4.10277 0
M  V30 2199 H 207.937 -5.77902 2.87574 0
M  V30 2200 H 208.705 -6.66283 4.75404 0
M  V30 2201 N 211.368 -0.403325 -1.52352 0
M  V30 2202 C 212.614 0.174605 -2.02047 0
M  V30 2203 C 212.947 1.45282 -1.28867 0
M  V30 2204 O 212.222 1.90483 -0.393257 0
M  V30 2205 C 212.505 0.428238 -3.57545 0
M  V30 2206 C 212.358 -0.866248 -4.4138 0
M  V30 2207 C 213.677 1.21287 -4.23057 0
M  V30 2208 H 210.796 0.0619851 -0.734389 0
M  V30 2209 H 213.438 -0.53565 -1.82293 0
M  V30 2210 H 211.588 1.03327 -3.74507 0
M  V30 2211 H 213.26 -1.50265 -4.3614 0
M  V30 2212 H 211.503 -1.47851 -4.07827 0
M  V30 2213 H 212.174 -0.643249 -5.48239 0
M  V30 2214 H 214.65 0.700703 -4.10158 0
M  V30 2215 H 213.526 1.35909 -5.31808 0
M  V30 2216 H 213.787 2.23193 -3.81625 0
M  V30 2217 N 212.846 1.57033 -0.133567 0
M  V30 2218 C 214.095 1.94861 0.520768 0
M  V30 2219 C 214.408 1.02012 1.66892 0
M  V30 2220 O 215.614 1.29365 2.38699 0
M  V30 2221 C 214.07 3.46362 0.977809 0
M  V30 2222 C 213.678 4.47773 -0.142674 0
M  V30 2223 C 215.422 3.93083 1.60269 0
M  V30 2224 C 213.329 5.90468 0.331883 0
M  V30 2225 H 212.259 0.727453 0.198315 0
M  V30 2226 H 214.91 1.82227 -0.215759 0
M  V30 2227 H 213.292 3.54282 1.7692 0
M  V30 2228 H 214.466 4.51536 -0.919317 0
M  V30 2229 H 212.781 4.10891 -0.675124 0
M  V30 2230 H 215.378 4.97121 1.96914 0
M  V30 2231 H 215.721 3.33876 2.48662 0
M  V30 2232 H 216.254 3.88025 0.876453 0
M  V30 2233 H 212.993 6.53463 -0.516341 0
M  V30 2234 H 212.513 5.90094 1.07469 0
M  V30 2235 H 214.192 6.42179 0.788332 0
M  V30 2236 N 214.325 -0.140222 1.56975 0
M  V30 2237 C 215.273 -1.19207 1.99731 0
M  V30 2238 C 216.267 -1.44089 0.890777 0
M  V30 2239 O 217.473 -1.44301 1.07597 0
M  V30 2240 H 213.848 -0.40142 0.635898 0
M  V30 2241 H 215.819 -0.804813 2.87342 0
M  V30 2242 C 214.568 -2.51617 2.39967 0
M  V30 2243 H 213.891 -2.33303 3.24669 0
M  V30 2244 H 215.331 -3.23827 2.73701 0
M  V30 2245 C 213.79 -3.12654 1.25496 0
M  V30 2246 O 214.32 -3.97786 0.559371 0
M  V30 2247 N 212.526 -2.72206 1.01746 0
M  V30 2248 H 212.073 -2.03074 1.58489 0
M  V30 2249 H 212.031 -3.13377 0.253461 0
M  V30 2250 N 215.803 -1.52179 -0.40978 0
M  V30 2251 C 216.75 -1.75475 -1.49924 0
M  V30 2252 C 217.72 -0.597175 -1.54994 0
M  V30 2253 O 218.905 -0.834655 -1.71575 0
M  V30 2254 C 216.045 -1.9107 -2.87378 0
M  V30 2255 C 215.158 -3.18717 -2.91622 0
M  V30 2256 C 214.293 -3.24747 -4.20372 0
M  V30 2257 C 213.332 -4.46598 -4.18588 0
M  V30 2258 N 212.469 -4.50025 -5.38908 0
M  V30 2259 H 217.309 -2.68458 -1.29361 0
M  V30 2260 H 214.846 -1.33024 -0.627934 0
M  V30 2261 H 216.804 -1.98096 -3.6717 0
M  V30 2262 H 215.434 -1.01469 -3.06437 0
M  V30 2263 H 214.486 -3.20866 -2.04326 0
M  V30 2264 H 215.798 -4.08544 -2.86169 0
M  V30 2265 H 214.952 -3.30841 -5.08556 0
M  V30 2266 H 213.691 -2.32857 -4.28519 0
M  V30 2267 H 212.696 -4.40652 -3.28794 0
M  V30 2268 H 213.921 -5.39783 -4.12081 0
M  V30 2269 H 211.867 -3.61017 -5.47725 0
M  V30 2270 H 211.784 -5.33697 -5.35447 0
M  V30 2271 H 213.052 -4.60347 -6.29048 0
M  V30 2272 N 217.281 0.66697 -1.42791 0
M  V30 2273 C 218.213 1.7925 -1.42836 0
M  V30 2274 C 219.226 1.59496 -0.326333 0
M  V30 2275 O 220.415 1.6847 -0.589916 0
M  V30 2276 C 217.515 3.16476 -1.21229 0
M  V30 2277 C 216.688 3.63011 -2.44013 0
M  V30 2278 C 215.747 4.78993 -2.17834 0
M  V30 2279 O 214.773 4.89137 -2.91091 0
M  V30 2280 N 215.975 5.68248 -1.18635 0
M  V30 2281 H 218.74 1.79695 -2.39854 0
M  V30 2282 H 216.301 0.850338 -1.37771 0
M  V30 2283 H 218.293 3.91734 -1.01621 0
M  V30 2284 H 216.863 3.10884 -0.32706 0
M  V30 2285 H 216.083 2.78346 -2.79137 0
M  V30 2286 H 217.371 3.90845 -3.25757 0
M  V30 2287 H 216.769 5.62712 -0.580615 0
M  V30 2288 H 215.326 6.43285 -1.05013 0
M  V30 2289 N 218.759 1.29093 0.90403 0
M  V30 2290 C 219.987 1.19689 1.68766 0
M  V30 2291 C 220.402 -0.243113 1.87228 0
M  V30 2292 O 219.759 -1.16326 1.40621 0
M  V30 2293 C 219.81 1.90144 3.07453 0
M  V30 2294 O 219.531 3.2852 2.89838 0
M  V30 2295 C 221.032 1.87162 4.01852 0
M  V30 2296 H 218.252 0.415035 0.527244 0
M  V30 2297 H 220.796 1.7039 1.13082 0
M  V30 2298 H 218.951 1.43289 3.59926 0
M  V30 2299 H 219.365 3.63944 3.77684 0
M  V30 2300 H 220.839 2.41032 4.96596 0
M  V30 2301 H 221.316 0.84617 4.30972 0
M  V30 2302 H 221.922 2.33741 3.5531 0
M  V30 2303 N 220.237 -1.11381 1.11499 0
M  V30 2304 C 221.648 -1.6465 0.880191 0
M  V30 2305 C 221.999 -1.87199 -0.587434 0
M  V30 2306 O 221.124 -1.60667 -1.44966 0
M  V30 2307 C 221.719 -2.99105 1.59128 0
M  V30 2308 C 220.278 -3.49279 1.40289 0
M  V30 2309 C 219.425 -2.24077 1.63354 0
M  V30 2310 H 222.376 -0.950123 1.27116 0
M  V30 2311 H 222.397 -3.66107 1.03664 0
M  V30 2312 H 221.909 -2.82661 2.65941 0
M  V30 2313 H 220.01 -3.70887 0.356888 0
M  V30 2314 H 220.123 -4.2803 2.15238 0
M  V30 2315 H 218.487 -2.31733 1.05698 0
M  V30 2316 H 219.27 -2.10175 2.71443 0
M  V30 2317 N 221.715 -0.905404 -1.28997 0
M  V30 2318 C 222.663 -0.377431 -2.29517 0
M  V30 2319 C 223.657 0.526461 -1.61012 0
M  V30 2320 O 224.863 0.40863 -1.753 0
M  V30 2321 H 221.238 -0.103437 -0.744852 0
M  V30 2322 H 223.209 -1.23848 -2.71485 0
M  V30 2323 C 221.958 0.374833 -3.45674 0
M  V30 2324 H 221.281 -0.311474 -3.98585 0
M  V30 2325 H 222.721 0.70903 -4.1803 0
M  V30 2326 C 221.18 1.57963 -2.97572 0
M  V30 2327 O 221.71 2.67886 -2.99333 0
M  V30 2328 N 219.916 1.42375 -2.53333 0
M  V30 2329 H 219.463 0.529466 -2.521 0
M  V30 2330 H 219.421 2.23117 -2.21509 0
M  V30 2331 N 223.193 1.4272 -0.668489 0
M  V30 2332 C 224.14 2.30796 0.0137489 0
M  V30 2333 C 225.11 1.4561 0.799177 0
M  V30 2334 O 226.295 1.74453 0.772702 0
M  V30 2335 C 223.435 3.31377 0.963507 0
M  V30 2336 C 222.548 4.31655 0.172569 0
M  V30 2337 C 221.683 5.19312 1.1175 0
M  V30 2338 C 220.722 6.11274 0.317886 0
M  V30 2339 N 219.859 6.91504 1.2152 0
M  V30 2340 H 224.699 2.88585 -0.743161 0
M  V30 2341 H 222.236 1.42154 -0.378226 0
M  V30 2342 H 224.194 3.88214 1.52792 0
M  V30 2343 H 222.824 2.75202 1.68712 0
M  V30 2344 H 221.876 3.76988 -0.508374 0
M  V30 2345 H 223.188 4.96779 -0.448527 0
M  V30 2346 H 222.342 5.80851 1.75206 0
M  V30 2347 H 221.081 4.5435 1.77249 0
M  V30 2348 H 220.086 5.48809 -0.329918 0
M  V30 2349 H 221.311 6.78283 -0.332917 0
M  V30 2350 H 219.257 6.29176 1.85671 0
M  V30 2351 H 219.174 7.53209 0.649036 0
M  V30 2352 H 220.442 7.57535 1.83742 0
M  V30 2353 N 224.671 0.411399 1.52136 0
M  V30 2354 C 225.603 -0.448386 2.24771 0
M  V30 2355 C 226.616 -1.00828 1.27818 0
M  V30 2356 O 227.805 -0.906841 1.53749 0
M  V30 2357 C 224.905 -1.63636 2.96777 0
M  V30 2358 C 224.078 -1.19995 4.20618 0
M  V30 2359 C 223.137 -2.25509 4.75428 0
M  V30 2360 O 222.163 -1.86007 5.3795 0
M  V30 2361 N 223.365 -3.577 4.57199 0
M  V30 2362 H 226.13 0.174025 2.99194 0
M  V30 2363 H 223.691 0.238897 1.60128 0
M  V30 2364 H 225.683 -2.33793 3.30338 0
M  V30 2365 H 224.253 -2.16465 2.25526 0
M  V30 2366 H 223.473 -0.326421 3.92846 0
M  V30 2367 H 224.761 -0.885365 5.01038 0
M  V30 2368 H 224.159 -3.92543 4.07341 0
M  V30 2369 H 222.716 -4.23827 4.95191 0
M  V30 2370 N 226.149 -1.5696 0.141893 0
M  V30 2371 C 227.398 -1.95135 -0.510427 0
M  V30 2372 C 227.711 -1.02896 -1.66348 0
M  V30 2373 O 228.917 -1.30629 -2.38009 0
M  V30 2374 C 227.373 -3.46876 -0.959427 0
M  V30 2375 C 226.981 -4.47691 0.166419 0
M  V30 2376 C 228.725 -3.93927 -1.58183 0
M  V30 2377 C 226.632 -5.90636 -0.300565 0
M  V30 2378 H 225.562 -0.728494 -0.194454 0
M  V30 2379 H 228.213 -1.8211 0.22542 0
M  V30 2380 H 226.595 -3.55215 -1.75038 0
M  V30 2381 H 227.769 -4.51043 0.94325 0
M  V30 2382 H 226.084 -4.10527 0.696905 0
M  V30 2383 H 228.681 -4.98158 -1.94275 0
M  V30 2384 H 229.024 -3.3519 -2.46888 0
M  V30 2385 H 229.557 -3.88484 -0.855863 0
M  V30 2386 H 226.296 -6.5318 0.550989 0
M  V30 2387 H 225.816 -5.90655 -1.04338 0
M  V30 2388 H 227.495 -6.42588 -0.754265 0
M  V30 2389 N 227.627 0.131896 -1.57047 0
M  V30 2390 C 228.873 0.838268 -1.85323 0
M  V30 2391 C 229.228 1.78098 -0.727937 0
M  V30 2392 O 228.521 1.89645 0.27304 0
M  V30 2393 C 228.715 1.63703 -3.17704 0
M  V30 2394 C 228.544 0.773167 -4.43004 0
M  V30 2395 C 227.314 0.432956 -5.03442 0
M  V30 2396 C 229.512 0.0966216 -5.14209 0
M  V30 2397 N 227.494 -0.442924 -6.123 0
M  V30 2398 C 228.865 -0.638778 -6.16701 0
M  V30 2399 C 230.92 0.018861 -4.97896 0
M  V30 2400 C 229.623 -1.44462 -7.04644 0
M  V30 2401 C 231.649 -0.773762 -5.86316 0
M  V30 2402 C 231.011 -1.4974 -6.883 0
M  V30 2403 H 227.11 0.284086 -0.728573 0
M  V30 2404 H 229.694 0.102731 -1.94429 0
M  V30 2405 H 227.865 2.3437 -3.09718 0
M  V30 2406 H 229.597 2.28774 -3.33833 0
M  V30 2407 H 226.352 0.772237 -4.67262 0
M  V30 2408 H 226.776 -0.872332 -6.71356 0
M  V30 2409 H 231.418 0.56397 -4.19022 0
M  V30 2410 H 229.136 -2.00093 -7.82936 0
M  V30 2411 H 232.722 -0.83612 -5.75761 0
M  V30 2412 H 231.602 -2.10087 -7.55535 0
M  V30 2413 N 229.106 1.52395 0.401703 0
M  V30 2414 C 230.036 1.79231 1.49661 0
M  V30 2415 C 231.017 0.643654 1.57452 0
M  V30 2416 O 232.202 0.889989 1.72606 0
M  V30 2417 C 229.332 1.94971 2.87409 0
M  V30 2418 C 228.286 3.10604 2.94465 0
M  V30 2419 C 227.612 3.11577 4.34538 0
M  V30 2420 C 228.912 4.49921 2.6527 0
M  V30 2421 H 230.606 2.70917 1.27454 0
M  V30 2422 H 228.152 1.30362 0.6117 0
M  V30 2423 H 230.105 2.12328 3.63999 0
M  V30 2424 H 228.829 0.999632 3.10926 0
M  V30 2425 H 227.488 2.93009 2.20321 0
M  V30 2426 H 227.136 2.14277 4.55076 0
M  V30 2427 H 226.836 3.89247 4.40183 0
M  V30 2428 H 228.36 3.31073 5.13053 0
M  V30 2429 H 229.774 4.67683 3.31581 0
M  V30 2430 H 228.171 5.29564 2.82281 0
M  V30 2431 H 229.241 4.57507 1.60671 0
M  V30 2432 N 230.584 -0.659388 1.43143 0
M  V30 2433 C 231.809 -1.45221 1.48073 0
M  V30 2434 C 232.234 -1.87845 0.097995 0
M  V30 2435 O 231.592 -1.56985 -0.90694 0
M  V30 2436 C 231.64 -2.66748 2.42647 0
M  V30 2437 O 230.744 -3.65583 1.90848 0
M  V30 2438 H 230.085 -0.435669 0.501088 0
M  V30 2439 H 232.615 -0.807432 1.87994 0
M  V30 2440 H 232.625 -3.14637 2.59745 0
M  V30 2441 H 231.3 -2.35067 3.43098 0
M  V30 2442 H 229.877 -3.24693 1.83381 0
M  V30 2443 N 232.062 -1.29571 -0.897171 0
M  V30 2444 C 233.287 -1.20705 -1.68656 0
M  V30 2445 C 233.712 0.228582 -1.86706 0
M  V30 2446 O 233.07 1.16494 -1.3892 0
M  V30 2447 C 233.118 -1.9282 -3.04717 0
M  V30 2448 O 232.222 -1.24697 -3.93096 0
M  V30 2449 H 231.563 -0.418126 -0.515816 0
M  V30 2450 H 234.093 -1.71183 -1.12061 0
M  V30 2451 H 234.103 -2.01372 -3.54843 0
M  V30 2452 H 232.778 -2.97239 -2.90899 0
M  V30 2453 H 231.355 -1.2442 -3.51531 0
M  V30 2454 N 233.54 1.10788 -1.12088 0
M  V30 2455 C 234.951 1.64181 -0.88891 0
M  V30 2456 C 235.302 1.87508 0.577498 0
M  V30 2457 O 234.427 1.61434 1.44112 0
M  V30 2458 C 235.022 2.98257 -1.60712 0
M  V30 2459 C 233.581 3.4853 -1.42139 0
M  V30 2460 C 232.728 2.23208 -1.6454 0
M  V30 2461 H 235.679 0.943368 -1.27618 0
M  V30 2462 H 235.7 3.65552 -1.05604 0
M  V30 2463 H 235.212 2.81246 -2.67436 0
M  V30 2464 H 233.313 3.70692 -0.376552 0
M  V30 2465 H 233.426 4.26882 -2.17505 0
M  V30 2466 H 231.79 2.31169 -1.06925 0
M  V30 2467 H 232.573 2.08733 -2.72554 0
M  V30 2468 N 235.018 0.912232 1.28515 0
M  V30 2469 C 236.243 0.559774 1.99703 0
M  V30 2470 C 236.668 -0.851393 1.67729 0
M  V30 2471 O 236.026 -1.56875 0.908834 0
M  V30 2472 C 236.074 0.773874 3.52198 0
M  V30 2473 O 235.178 -0.167842 4.12058 0
M  V30 2474 H 234.519 0.21723 0.627461 0
M  V30 2475 H 237.049 1.22725 1.63706 0
M  V30 2476 H 237.059 0.683386 4.02236 0
M  V30 2477 H 235.734 1.80261 3.74805 0
M  V30 2478 H 234.311 -0.0287509 3.72889 0
M  V30 2479 N 236.496 -1.42363 0.676048 0
M  V30 2480 C 237.721 -2.06377 0.205705 0
M  V30 2481 C 238.146 -1.50463 -1.12883 0
M  V30 2482 O 237.504 -0.623619 -1.70237 0
M  V30 2483 C 237.552 -3.60277 0.152655 0
M  V30 2484 O 236.656 -4.02935 -0.87845 0
M  V30 2485 H 235.997 -0.655588 0.105359 0
M  V30 2486 H 238.527 -1.82475 0.925412 0
M  V30 2487 H 238.537 -4.07993 -0.0230675 0
M  V30 2488 H 237.212 -4.00346 1.12675 0
M  V30 2489 H 235.789 -3.66764 -0.673668 0
M  V30 2490 N 237.974 -0.419461 -1.51915 0
M  V30 2491 C 239.222 0.152637 -2.01523 0
M  V30 2492 C 239.543 1.44762 -1.30649 0
M  V30 2493 O 238.813 1.90997 -0.435535 0
M  V30 2494 H 237.393 0.0593966 -0.744635 0
M  V30 2495 H 240.055 -0.558073 -1.86739 0
M  V30 2496 H 239.151 0.341369 -3.10227 0
M  V30 2497 N 239.452 1.56882 -0.150215 0
M  V30 2498 C 240.863 1.82995 0.370076 0
M  V30 2499 C 241.214 1.06907 1.64515 0
M  V30 2500 O 240.339 0.315369 2.1409 0
M  V30 2501 C 240.934 3.31942 0.678208 0
M  V30 2502 C 239.493 3.58625 1.14301 0
M  V30 2503 C 238.64 2.76792 0.167778 0
M  V30 2504 H 241.591 1.54209 -0.374858 0
M  V30 2505 H 241.612 3.48272 1.53254 0
M  V30 2506 H 241.124 3.87294 -0.249991 0
M  V30 2507 H 239.225 3.08664 2.08704 0
M  V30 2508 H 239.338 4.67073 1.06676 0
M  V30 2509 H 237.702 2.45972 0.661037 0
M  V30 2510 H 238.485 3.34916 -0.754069 0
M  V30 2511 N 240.93 -0.123565 1.57115 0
M  V30 2512 C 241.877 -1.15177 2.00007 0
M  V30 2513 C 242.847 -1.41403 0.871454 0
M  V30 2514 O 244.032 -1.53346 1.13533 0
M  V30 2515 C 241.172 -2.47436 2.40561 0
M  V30 2516 C 240.285 -2.28184 3.66819 0
M  V30 2517 C 239.42 -3.53641 3.96373 0
M  V30 2518 C 238.459 -3.29528 5.15827 0
M  V30 2519 N 237.596 -4.47175 5.41275 0
M  V30 2520 H 242.436 -0.779008 2.87638 0
M  V30 2521 H 239.973 -0.373166 1.42288 0
M  V30 2522 H 241.931 -3.24584 2.62109 0
M  V30 2523 H 240.561 -2.82614 1.55978 0
M  V30 2524 H 239.613 -1.41976 3.52912 0
M  V30 2525 H 240.925 -2.0634 4.5412 0
M  V30 2526 H 240.079 -4.39209 4.18545 0
M  V30 2527 H 238.818 -3.78512 3.07538 0
M  V30 2528 H 237.823 -2.42349 4.93505 0
M  V30 2529 H 239.048 -3.06031 6.06236 0
M  V30 2530 H 236.994 -4.72175 4.55397 0
M  V30 2531 H 236.911 -4.28419 6.22891 0
M  V30 2532 H 238.179 -5.3389 5.67963 0
M  V30 2533 N 242.408 -1.52605 -0.393616 0
M  V30 2534 C 243.824 -1.41753 -0.733357 0
M  V30 2535 C 244.024 -0.534293 -1.94287 0
M  V30 2536 O 243.08 -0.0059787 -2.52499 0
M  V30 2537 C 244.393 -2.84531 -0.972772 0
M  V30 2538 C 245.941 -2.93978 -1.07453 0
M  V30 2539 C 246.416 -4.37756 -1.3466 0
M  V30 2540 N 247.907 -4.4106 -1.41492 0
M  V30 2541 C 248.642 -5.49387 -1.642 0
M  V30 2542 N 248.138 -6.67806 -1.8441 0
M  V30 2543 N 249.931 -5.36923 -1.66342 0
M  V30 2544 H 242.082 -2.08555 0.402328 0
M  V30 2545 H 244.345 -0.940654 0.117789 0
M  V30 2546 H 244.051 -3.51353 -0.156204 0
M  V30 2547 H 243.925 -3.26508 -1.88871 0
M  V30 2548 H 246.312 -2.27326 -1.88167 0
M  V30 2549 H 246.393 -2.55435 -0.136605 0
M  V30 2550 H 246.037 -5.04972 -0.544581 0
M  V30 2551 H 245.967 -4.73848 -2.2973 0
M  V30 2552 H 248.458 -3.55705 -1.27601 0
M  V30 2553 H 248.771 -7.46141 -2.01231 0
M  V30 2554 H 247.116 -6.70843 -1.81644 0
M  V30 2555 H 250.307 -4.43381 -1.50102 0
M  V30 2556 H 250.48 -6.21416 -1.837 0
M  V30 2557 N 243.887 0.651787 -1.4349 0
M  V30 2558 C 245.117 1.43728 -1.48411 0
M  V30 2559 C 245.525 1.8893 -0.10103 0
M  V30 2560 O 244.868 1.60182 0.899307 0
M  V30 2561 C 244.93 2.70411 -2.36893 0
M  V30 2562 C 244.594 2.4714 -3.8441 0
M  V30 2563 C 245.591 2.10271 -4.75481 0
M  V30 2564 C 243.276 2.6142 -4.28912 0
M  V30 2565 C 245.27 1.87982 -6.0905 0
M  V30 2566 C 242.957 2.38746 -5.62533 0
M  V30 2567 C 243.955 2.02083 -6.5242 0
M  V30 2568 O 243.643 1.79647 -7.8357 0
M  V30 2569 H 243.375 0.447962 -0.506267 0
M  V30 2570 H 245.929 0.80624 -1.88915 0
M  V30 2571 H 244.159 3.36079 -1.91278 0
M  V30 2572 H 245.848 3.32364 -2.33 0
M  V30 2573 H 246.614 1.98814 -4.42378 0
M  V30 2574 H 242.493 2.88931 -3.59222 0
M  V30 2575 H 246.037 1.5929 -6.7917 0
M  V30 2576 H 241.934 2.49806 -5.95203 0
M  V30 2577 H 242.702 1.9406 -7.95162 0
M  V30 2578 N 245.365 1.30045 0.890287 0
M  V30 2579 C 246.642 1.09227 1.62262 0
M  V30 2580 C 247.022 -0.360305 2.08002 0
M  V30 2581 O 246.37 -1.35084 1.84295 0
M  V30 2582 C 246.58 2.08835 2.79623 0
M  V30 2583 C 247.928 2.40266 3.50082 0
M  V30 2584 O 248.952 2.07104 2.89804 0
M  V30 2585 O 247.811 2.96967 4.58773 0
M  V30 2586 H 244.905 0.419132 0.712922 0
M  V30 2587 H 247.451 1.41451 0.937529 0
M  V30 2588 H 246.223 3.06633 2.43089 0
M  V30 2589 H 245.846 1.77397 3.55832 0
M  V30 2590 N 246.843 -1.10192 1.12674 0
M  V30 2591 C 248.089 -1.82658 0.894847 0
M  V30 2592 C 248.444 -1.83666 -0.573107 0
M  V30 2593 O 247.737 -1.28816 -1.41835 0
M  V30 2594 C 247.931 -3.28552 1.4067 0
M  V30 2595 C 247.76 -3.41756 2.92289 0
M  V30 2596 C 246.53 -3.54021 3.60551 0
M  V30 2597 C 248.728 -3.34949 3.90274 0
M  V30 2598 N 246.71 -3.55827 5.0026 0
M  V30 2599 C 248.081 -3.43531 5.16127 0
M  V30 2600 C 250.136 -3.18565 3.8265 0
M  V30 2601 C 248.839 -3.37416 6.3525 0
M  V30 2602 C 250.865 -3.13772 5.01299 0
M  V30 2603 C 250.227 -3.22938 6.26012 0
M  V30 2604 H 246.326 -0.683044 0.380756 0
M  V30 2605 H 248.91 -1.31752 1.43351 0
M  V30 2606 H 247.081 -3.77946 0.895055 0
M  V30 2607 H 248.813 -3.88991 1.11661 0
M  V30 2608 H 245.568 -3.57135 3.1105 0
M  V30 2609 H 245.992 -3.60335 5.73138 0
M  V30 2610 H 250.634 -3.10354 2.87124 0
M  V30 2611 H 248.352 -3.44391 7.3104 0
M  V30 2612 H 251.938 -3.02242 4.97133 0
M  V30 2613 H 250.818 -3.19235 7.16281 0
M  V30 2614 N 248.321 -0.919034 -1.28029 0
M  V30 2615 C 249.549 -0.570971 -1.98866 0
M  V30 2616 C 249.964 0.848996 -1.68634 0
M  V30 2617 O 249.321 1.56307 -0.942036 0
M  V30 2618 C 249.372 -0.776876 -3.53054 0
M  V30 2619 O 249.093 -2.14097 -3.82222 0
M  V30 2620 C 250.594 -0.436356 -4.41147 0
M  V30 2621 H 247.814 -0.217175 -0.634883 0
M  V30 2622 H 250.358 -1.23368 -1.63097 0
M  V30 2623 H 248.513 -0.161085 -3.87065 0
M  V30 2624 H 248.927 -2.18455 -4.76841 0
M  V30 2625 H 250.401 -0.63117 -5.4838 0
M  V30 2626 H 250.878 0.627686 -4.34692 0
M  V30 2627 H 251.484 -1.02991 -4.12641 0
M  V30 2628 N 249.799 1.42003 -0.683588 0
M  V30 2629 C 251.047 2.01015 -0.209101 0
M  V30 2630 C 251.368 1.54365 1.19149 0
M  V30 2631 O 250.638 0.769083 1.80172 0
M  V30 2632 H 249.218 0.743294 -0.074315 0
M  V30 2633 H 251.88 1.73798 -0.882066 0
M  V30 2634 H 250.976 3.11343 -0.2172 0
M  V30 2635 N 251.277 0.427512 1.51691 0
M  V30 2636 C 252.224 -0.388867 2.275 0
M  V30 2637 C 253.194 -1.02532 1.30677 0
M  V30 2638 O 254.379 -1.0461 1.59566 0
M  V30 2639 C 251.519 -1.48954 3.11298 0
M  V30 2640 C 250.632 -0.872194 4.23104 0
M  V30 2641 C 249.767 -1.94709 4.94228 0
M  V30 2642 C 248.806 -1.30766 5.97969 0
M  V30 2643 N 247.943 -2.32349 6.62539 0
M  V30 2644 H 252.783 0.263997 2.96828 0
M  V30 2645 H 250.32 0.142033 1.46413 0
M  V30 2646 H 252.278 -2.13887 3.58201 0
M  V30 2647 H 250.908 -2.11217 2.44105 0
M  V30 2648 H 249.96 -0.111419 3.80237 0
M  V30 2649 H 251.272 -0.365264 4.97461 0
M  V30 2650 H 250.426 -2.67327 5.44629 0
M  V30 2651 H 249.165 -2.48773 4.1948 0
M  V30 2652 H 248.17 -0.566902 5.4687 0
M  V30 2653 H 249.395 -0.774483 6.74669 0
M  V30 2654 H 247.341 -2.85511 5.90609 0
M  V30 2655 H 247.258 -1.8652 7.3263 0
M  V30 2656 H 248.526 -3.04481 7.17574 0
M  V30 2657 N 252.755 -1.56801 0.158532 0
M  V30 2658 C 253.703 -2.18638 -0.793729 0
M  V30 2659 C 254.697 -1.14669 -1.24689 0
M  V30 2660 O 255.903 -1.32895 -1.21403 0
M  V30 2661 H 252.278 -0.700226 -0.274204 0
M  V30 2662 H 254.249 -2.97367 -0.248095 0
M  V30 2663 C 252.998 -2.83139 -2.0181 0
M  V30 2664 H 252.321 -3.62863 -1.67841 0
M  V30 2665 H 253.761 -3.29894 -2.66357 0
M  V30 2666 C 252.22 -1.82244 -2.83353 0
M  V30 2667 O 252.75 -1.3 -3.80083 0
M  V30 2668 N 250.956 -1.51288 -2.48114 0
M  V30 2669 H 250.503 -1.93964 -1.69516 0
M  V30 2670 H 250.461 -0.840296 -3.02963 0
M  V30 2671 N 254.233 0.115231 -1.57178 0
M  V30 2672 C 255.479 0.818565 -1.86202 0
M  V30 2673 C 255.834 1.77316 -0.746785 0
M  V30 2674 O 255.127 1.89923 0.25291 0
M  V30 2675 C 255.321 1.60324 -3.19423 0
M  V30 2676 C 255.15 0.726138 -4.43799 0
M  V30 2677 C 253.92 0.379535 -5.03873 0
M  V30 2678 C 256.118 0.0420774 -5.14283 0
M  V30 2679 N 254.1 -0.507841 -6.11796 0
M  V30 2680 C 255.471 -0.704152 -6.15988 0
M  V30 2681 C 257.526 -0.0339486 -4.97888 0
M  V30 2682 C 256.229 -1.51927 -7.03072 0
M  V30 2683 C 258.255 -0.835906 -5.85463 0
M  V30 2684 C 257.617 -1.57031 -6.86673 0
M  V30 2685 H 253.716 0.276343 -0.731545 0
M  V30 2686 H 256.3 0.0821032 -1.94527 0
M  V30 2687 H 254.471 2.31072 -3.12186 0
M  V30 2688 H 256.203 2.2522 -3.36241 0
M  V30 2689 H 252.958 0.722634 -4.68054 0
M  V30 2690 H 253.382 -0.94349 -6.70393 0
M  V30 2691 H 258.024 0.519496 -4.19596 0
M  V30 2692 H 255.742 -2.08386 -7.80769 0
M  V30 2693 H 259.328 -0.89714 -5.74841 0
M  V30 2694 H 258.208 -2.18088 -7.53264 0
M  V30 2695 N 255.711 1.52812 0.385517 0
M  V30 2696 C 256.957 1.68275 1.13188 0
M  V30 2697 C 257.29 0.423179 1.89533 0
M  V30 2698 O 256.565 -0.579113 1.85679 0
M  V30 2699 C 256.848 2.92001 2.1073 0
M  V30 2700 C 256.701 4.28067 1.38125 0
M  V30 2701 C 258.02 3.11283 3.11113 0
M  V30 2702 H 255.139 0.612352 0.410115 0
M  V30 2703 H 257.781 1.85415 0.414869 0
M  V30 2704 H 255.931 2.77519 2.71874 0
M  V30 2705 H 257.603 4.54324 0.799187 0
M  V30 2706 H 255.846 4.28388 0.683092 0
M  V30 2707 H 256.517 5.10733 2.09417 0
M  V30 2708 H 258.993 3.2482 2.6006 0
M  V30 2709 H 257.869 3.99325 3.76605 0
M  V30 2710 H 258.13 2.25656 3.80173 0
M  V30 2711 N 257.189 -0.644168 1.43834 0
M  V30 2712 C 258.419 -1.42939 1.49171 0
M  V30 2713 C 258.827 -1.88874 0.111048 0
M  V30 2714 O 258.17 -1.60656 -0.8908 0
M  V30 2715 C 258.232 -2.69151 2.38324 0
M  V30 2716 C 257.896 -2.45097 3.85715 0
M  V30 2717 C 258.893 -2.07747 4.76589 0
M  V30 2718 C 256.578 -2.59141 4.30292 0
M  V30 2719 C 258.572 -1.8475 6.10038 0
M  V30 2720 C 256.259 -2.35759 5.63792 0
M  V30 2721 C 257.257 -1.9862 6.53482 0
M  V30 2722 O 256.945 -1.75489 7.84512 0
M  V30 2723 H 256.677 -0.445271 0.508635 0
M  V30 2724 H 259.231 -0.79621 1.8934 0
M  V30 2725 H 257.461 -3.3506 1.93058 0
M  V30 2726 H 259.15 -3.31123 2.3476 0
M  V30 2727 H 259.916 -1.96465 4.43426 0
M  V30 2728 H 255.795 -2.87022 3.60749 0
M  V30 2729 H 259.339 -1.55686 6.80006 0
M  V30 2730 H 255.236 -2.46646 5.9652 0
M  V30 2731 H 256.004 -1.89841 7.9618 0
M  V30 2732 N 258.668 -1.30515 -0.883378 0
M  V30 2733 C 259.893 -1.22487 -1.67367 0
M  V30 2734 C 260.318 0.208767 -1.86938 0
M  V30 2735 O 259.676 1.15015 -1.40148 0
M  V30 2736 C 259.724 -1.96041 -3.02655 0
M  V30 2737 O 258.828 -1.28859 -3.91751 0
M  V30 2738 H 258.169 -0.423573 -0.511353 0
M  V30 2739 H 260.699 -1.72362 -1.10239 0
M  V30 2740 H 260.709 -2.05124 -3.52687 0
M  V30 2741 H 259.384 -3.00307 -2.8773 0
M  V30 2742 H 257.961 -1.28141 -3.50192 0
M  V30 2743 N 260.146 1.09593 -1.13257 0
M  V30 2744 C 261.096 2.14345 -0.777179 0
M  V30 2745 C 262.08 1.59277 0.227966 0
M  V30 2746 O 263.272 1.76971 0.0321413 0
M  V30 2747 C 260.401 3.42439 -0.242991 0
M  V30 2748 C 259.487 4.04419 -1.27694 0
M  V30 2749 N 259.878 4.40979 -2.47732 0
M  V30 2750 C 258.176 4.31596 -1.12432 0
M  V30 2751 C 258.877 4.89784 -3.13826 0
M  V30 2752 N 257.853 4.87133 -2.41252 0
M  V30 2753 H 261.655 2.40415 -1.69049 0
M  V30 2754 H 259.169 1.26803 -1.01463 0
M  V30 2755 H 261.166 4.16889 0.0298496 0
M  V30 2756 H 259.826 3.17824 0.66467 0
M  V30 2757 H 260.837 4.32396 -2.85051 0
M  V30 2758 H 257.514 4.16595 -0.274684 0
M  V30 2759 H 258.904 5.2755 -4.16102 0
M  V30 2760 N 261.624 0.925811 1.2754 0
M  V30 2761 C 262.901 0.483726 1.89524 0
M  V30 2762 C 263.281 -1.03809 1.83812 0
M  V30 2763 O 262.629 -1.89143 1.28207 0
M  V30 2764 C 262.839 1.02769 3.33526 0
M  V30 2765 C 264.187 1.08703 4.10449 0
M  V30 2766 O 265.211 0.977175 3.42534 0
M  V30 2767 O 264.07 1.25599 5.31871 0
M  V30 2768 H 261.164 0.15529 0.812289 0
M  V30 2769 H 263.71 1.01738 1.35822 0
M  V30 2770 H 262.482 2.07155 3.31967 0
M  V30 2771 H 262.105 0.475567 3.94746 0
M  V30 2772 N 263.102 -1.41638 0.69111 0
M  V30 2773 C 264.35 -2.00902 0.219758 0
M  V30 2774 C 264.671 -1.54994 -1.18329 0
M  V30 2775 O 263.941 -0.778628 -1.79762 0
M  V30 2776 H 262.521 -0.74289 0.0782558 0
M  V30 2777 H 265.183 -1.73327 0.891271 0
M  V30 2778 H 264.279 -3.11224 0.233708 0
M  V30 2779 N 264.58 -0.43555 -1.51462 0
M  V30 2780 C 265.826 0.131709 -2.02372 0
M  V30 2781 C 266.159 1.42516 -1.3192 0
M  V30 2782 O 265.434 1.89606 -0.433573 0
M  V30 2783 C 265.717 0.352301 -3.58373 0
M  V30 2784 C 265.57 -0.959676 -4.39443 0
M  V30 2785 C 266.889 1.12286 -4.25535 0
M  V30 2786 H 264.008 0.0463936 -0.735538 0
M  V30 2787 H 266.65 -0.574197 -1.81116 0
M  V30 2788 H 264.8 0.9536 -3.76615 0
M  V30 2789 H 266.472 -1.59482 -4.32855 0
M  V30 2790 H 264.715 -1.56468 -4.04599 0
M  V30 2791 H 265.386 -0.759394 -5.46752 0
M  V30 2792 H 267.862 0.613545 -4.11552 0
M  V30 2793 H 266.738 1.24598 -5.34571 0
M  V30 2794 H 266.999 2.15048 -3.86273 0
M  V30 2795 N 266.058 1.56714 -0.166846 0
M  V30 2796 C 267.283 2.01557 0.488833 0
M  V30 2797 C 267.708 1.0463 1.56314 0
M  V30 2798 O 267.066 0.0251304 1.81283 0
M  V30 2799 C 267.114 3.4503 1.04818 0
M  V30 2800 O 266.218 3.51163 2.16236 0
M  V30 2801 H 265.559 0.653516 0.117526 0
M  V30 2802 H 268.089 2.02818 -0.269421 0
M  V30 2803 H 268.099 3.84243 1.37191 0
M  V30 2804 H 266.774 4.15077 0.261572 0
M  V30 2805 H 265.351 3.23807 1.84942 0
M  V30 2806 N 267.536 -0.106894 1.57237 0
M  V30 2807 C 268.466 -1.13148 2.04254 0
M  V30 2808 C 269.447 -1.42476 0.929224 0
M  V30 2809 O 270.632 -1.52709 1.19973 0
M  V30 2810 C 267.762 -2.4545 2.45706 0
M  V30 2811 C 266.716 -2.30558 3.60592 0
M  V30 2812 C 266.042 -3.67931 3.87983 0
M  V30 2813 C 267.342 -1.75597 4.91897 0
M  V30 2814 H 269.036 -0.740374 2.90101 0
M  V30 2815 H 266.582 -0.354696 1.39563 0
M  V30 2816 H 268.535 -3.17389 2.77205 0
M  V30 2817 H 267.259 -2.86475 1.56843 0
M  V30 2818 H 265.918 -1.61067 3.29322 0
M  V30 2819 H 265.566 -4.06462 2.96306 0
M  V30 2820 H 265.266 -3.58817 4.65322 0
M  V30 2821 H 266.79 -4.41356 4.21945 0
M  V30 2822 H 268.204 -2.37364 5.21854 0
M  V30 2823 H 266.601 -1.77272 5.73319 0
M  V30 2824 H 267.671 -0.714451 4.79608 0
M  V30 2825 N 269.014 -1.53014 -0.377408 0
M  V30 2826 C 269.964 -1.74996 -1.46152 0
M  V30 2827 C 270.948 -0.604236 -1.49123 0
M  V30 2828 O 272.14 -0.862489 -1.54564 0
M  V30 2829 C 269.269 -1.93267 -2.8373 0
M  V30 2830 C 268.355 -3.13807 -2.85283 0
M  V30 2831 N 268.746 -4.35941 -2.56493 0
M  V30 2832 C 267.044 -3.14288 -3.16448 0
M  V30 2833 C 267.745 -5.17615 -2.65424 0
M  V30 2834 N 266.721 -4.53559 -2.99641 0
M  V30 2835 H 270.523 -2.67044 -1.22738 0
M  V30 2836 H 268.037 -1.51479 -0.585479 0
M  V30 2837 H 270.034 -2.0714 -3.61799 0
M  V30 2838 H 268.694 -1.0244 -3.08117 0
M  V30 2839 H 269.705 -4.63876 -2.30302 0
M  V30 2840 H 266.382 -2.33312 -3.46225 0
M  V30 2841 H 267.772 -6.25006 -2.46612 0
M  V30 2842 N 270.492 0.636531 -1.44174 0
M  V30 2843 C 271.402 1.77754 -1.53103 0
M  V30 2844 C 272.418 1.68928 -0.417034 0
M  V30 2845 O 273.594 1.89801 -0.6736 0
M  V30 2846 C 270.659 3.14115 -1.46741 0
M  V30 2847 C 269.72 3.34612 -2.68948 0
M  V30 2848 C 268.953 4.64467 -2.6288 0
M  V30 2849 O 269.176 5.44919 -1.68581 0
M  V30 2850 O 268.11 4.87049 -3.53648 0
M  V30 2851 H 271.936 1.73174 -2.49489 0
M  V30 2852 H 269.521 0.79709 -1.2636 0
M  V30 2853 H 271.403 3.95412 -1.45696 0
M  V30 2854 H 270.078 3.19249 -0.534975 0
M  V30 2855 H 268.985 2.53014 -2.75562 0
M  V30 2856 H 270.318 3.34336 -3.61221 0
M  V30 2857 N 271.97 1.30982 0.876444 0
M  V30 2858 C 272.9 1.20668 1.99903 0
M  V30 2859 C 273.881 0.095354 1.69833 0
M  V30 2860 O 275.066 0.27885 1.92188 0
M  V30 2861 C 272.196 0.90655 3.3526 0
M  V30 2862 C 271.15 1.97675 3.79617 0
M  V30 2863 C 270.476 1.52943 5.1236 0
M  V30 2864 C 271.776 3.389 3.97422 0
M  V30 2865 H 273.47 2.14586 2.0879 0
M  V30 2866 H 271.016 1.03308 1.00317 0
M  V30 2867 H 272.969 0.821025 4.13324 0
M  V30 2868 H 271.693 -0.0682969 3.26529 0
M  V30 2869 H 270.352 2.05205 3.03787 0
M  V30 2870 H 270 0.54262 5.00065 0
M  V30 2871 H 269.7 2.24532 5.43009 0
M  V30 2872 H 271.224 1.45786 5.92941 0
M  V30 2873 H 272.638 3.34081 4.659 0
M  V30 2874 H 271.035 4.0865 4.3946 0
M  V30 2875 H 272.105 3.80163 3.01006 0
M  V30 2876 N 273.449 -1.08991 1.13837 0
M  V30 2877 C 274.379 -2.17771 0.842507 0
M  V30 2878 C 275.36 -1.6892 -0.20001 0
M  V30 2879 O 276.545 -1.94113 -0.0579731 0
M  V30 2880 C 273.675 -3.4589 0.312644 0
M  V30 2881 C 272.629 -4.08099 1.28992 0
M  V30 2882 C 271.955 -5.31098 0.619623 0
M  V30 2883 C 273.255 -4.50077 2.65005 0
M  V30 2884 H 274.949 -2.42777 1.75213 0
M  V30 2885 H 272.495 -1.16682 0.843875 0
M  V30 2886 H 274.448 -4.21297 0.0933043 0
M  V30 2887 H 273.172 -3.20419 -0.632382 0
M  V30 2888 H 271.831 -3.34717 1.49533 0
M  V30 2889 H 271.479 -5.0191 -0.33102 0
M  V30 2890 H 271.179 -5.73674 1.27167 0
M  V30 2891 H 272.703 -6.09224 0.409669 0
M  V30 2892 H 274.117 -5.16688 2.48407 0
M  V30 2893 H 272.514 -5.03553 3.26427 0
M  V30 2894 H 273.584 -3.62257 3.22332 0
M  V30 2895 N 274.927 -0.932562 -1.27047 0
M  V30 2896 C 275.89 -0.440064 -2.24936 0
M  V30 2897 C 276.89 0.444071 -1.54547 0
M  V30 2898 O 278.08 0.244465 -1.72476 0
M  V30 2899 C 275.212 0.36678 -3.38921 0
M  V30 2900 H 276.405 -1.305 -2.70018 0
M  V30 2901 H 273.958 -0.713707 -1.39054 0
M  V30 2902 H 274.693 1.25033 -2.99228 0
M  V30 2903 H 274.478 -0.267204 -3.91188 0
M  V30 2904 H 275.968 0.701567 -4.11665 0
M  V30 2905 N 276.405 1.4127 -0.698611 0
M  V30 2906 C 277.368 2.29158 -0.044132 0
M  V30 2907 C 278.368 1.44529 0.704841 0
M  V30 2908 O 279.558 1.65643 0.539276 0
M  V30 2909 C 276.69 3.27459 0.947809 0
M  V30 2910 H 277.883 2.88529 -0.817994 0
M  V30 2911 H 275.436 1.49307 -0.46228 0
M  V30 2912 H 276.171 2.73073 1.74933 0
M  V30 2913 H 275.956 3.8991 0.41385 0
M  V30 2914 H 277.446 3.93311 1.40344 0
M  V30 2915 N 277.883 0.443576 1.51229 0
M  V30 2916 C 278.793 -0.370721 2.31652 0
M  V30 2917 C 279.809 -1.02186 1.40833 0
M  V30 2918 O 280.985 -1.01586 1.73903 0
M  V30 2919 C 278.05 -1.45376 3.14749 0
M  V30 2920 C 277.111 -0.822099 4.21355 0
M  V30 2921 C 276.344 -1.85353 5.0048 0
M  V30 2922 O 276.567 -3.07656 4.80316 0
M  V30 2923 O 275.501 -1.4406 5.84406 0
M  V30 2924 H 279.327 0.286002 3.0235 0
M  V30 2925 H 276.912 0.20598 1.47973 0
M  V30 2926 H 278.794 -2.08173 3.66391 0
M  V30 2927 H 277.469 -2.09445 2.46809 0
M  V30 2928 H 276.376 -0.155909 3.73775 0
M  V30 2929 H 277.709 -0.224797 4.91686 0
M  V30 2930 N 279.361 -1.56624 0.175154 0
M  V30 2931 C 280.291 -2.21155 -0.749195 0
M  V30 2932 C 281.272 -1.16836 -1.23626 0
M  V30 2933 O 282.457 -1.45277 -1.28873 0
M  V30 2934 C 279.587 -2.8553 -1.97711 0
M  V30 2935 C 278.541 -3.95921 -1.62575 0
M  V30 2936 C 277.867 -4.47365 -2.92864 0
M  V30 2937 C 279.167 -5.15323 -0.850838 0
M  V30 2938 H 280.861 -2.98653 -0.211295 0
M  V30 2939 H 278.407 -1.43651 -0.100188 0
M  V30 2940 H 280.36 -3.2935 -2.62881 0
M  V30 2941 H 279.084 -2.05406 -2.53921 0
M  V30 2942 H 277.743 -3.52762 -0.997719 0
M  V30 2943 H 277.391 -3.64027 -3.47122 0
M  V30 2944 H 277.091 -5.21839 -2.70106 0
M  V30 2945 H 278.615 -4.93873 -3.59056 0
M  V30 2946 H 280.029 -5.55812 -1.40521 0
M  V30 2947 H 278.426 -5.95739 -0.722154 0
M  V30 2948 H 279.496 -4.84661 0.152082 0
M  V30 2949 N 280.839 0.0985539 -1.57292 0
M  V30 2950 C 282.067 0.816318 -1.90115 0
M  V30 2951 C 282.482 1.72451 -0.768509 0
M  V30 2952 O 281.839 1.80643 0.259687 0
M  V30 2953 C 281.89 1.63259 -3.22535 0
M  V30 2954 O 281.611 0.760934 -4.31441 0
M  V30 2955 C 283.112 2.45372 -3.69199 0
M  V30 2956 H 280.332 0.233595 -0.629027 0
M  V30 2957 H 282.876 0.0768229 -2.04356 0
M  V30 2958 H 281.031 2.32463 -3.09903 0
M  V30 2959 H 281.445 1.32595 -5.07463 0
M  V30 2960 H 282.919 2.98144 -4.64558 0
M  V30 2961 H 283.396 3.23677 -2.96867 0
M  V30 2962 H 284.002 1.81373 -3.84687 0
M  V30 2963 N 282.317 1.53212 0.369288 0
M  V30 2964 C 283.264 1.79388 1.45219 0
M  V30 2965 C 284.234 0.638059 1.53356 0
M  V30 2966 O 285.419 0.879852 1.69302 0
M  V30 2967 C 282.559 1.98623 2.82211 0
M  V30 2968 C 281.672 3.26337 2.8307 0
M  V30 2969 C 280.807 3.35779 4.11614 0
M  V30 2970 C 279.846 4.5754 4.06601 0
M  V30 2971 N 278.983 4.64155 5.26787 0
M  V30 2972 H 283.823 2.71794 1.22198 0
M  V30 2973 H 281.36 1.34642 0.592444 0
M  V30 2974 H 283.318 2.07761 3.61789 0
M  V30 2975 H 281.948 1.09558 3.03639 0
M  V30 2976 H 281 3.26171 1.95747 0
M  V30 2977 H 282.312 4.15988 2.75237 0
M  V30 2978 H 281.466 3.44208 4.99606 0
M  V30 2979 H 280.205 2.44137 4.22195 0
M  V30 2980 H 279.21 4.49215 3.16996 0
M  V30 2981 H 280.435 5.50519 3.97625 0
M  V30 2982 H 278.381 3.75413 5.3796 0
M  V30 2983 H 278.298 5.47706 5.21109 0
M  V30 2984 H 279.566 4.76863 6.16621 0
M  V30 2985 N 283.795 -0.628877 1.44509 0
M  V30 2986 C 284.758 -1.72263 1.51188 0
M  V30 2987 C 285.758 -1.55907 0.39367 0
M  V30 2988 O 286.948 -1.61361 0.656377 0
M  V30 2989 C 284.08 -3.11365 1.38798 0
M  V30 2990 H 285.273 -1.67714 2.4862 0
M  V30 2991 H 282.826 -0.842737 1.31634 0
M  V30 2992 H 283.561 -3.21507 0.424693 0
M  V30 2993 H 283.346 -3.24644 2.19884 0
M  V30 2994 H 284.836 -3.91075 1.46458 0
M  V30 2995 N 285.273 -1.31445 -0.869486 0
M  V30 2996 C 286.203 -1.21727 -1.99261 0
M  V30 2997 C 287.184 -0.104359 -1.6978 0
M  V30 2998 O 288.369 -0.289038 -1.92037 0
M  V30 2999 C 285.499 -0.924317 -3.34774 0
M  V30 3000 C 284.453 -1.99685 -3.78563 0
M  V30 3001 C 283.779 -1.55658 -5.11541 0
M  V30 3002 C 285.079 -3.41003 -3.95619 0
M  V30 3003 H 286.773 -2.1569 -2.07649 0
M  V30 3004 H 284.319 -1.03839 -0.997675 0
M  V30 3005 H 286.272 -0.842934 -4.12883 0
M  V30 3006 H 284.996 0.0509793 -3.2656 0
M  V30 3007 H 283.655 -2.06813 -3.02694 0
M  V30 3008 H 283.303 -0.569132 -4.9977 0
M  V30 3009 H 283.003 -2.27409 -5.41811 0
M  V30 3010 H 284.527 -1.48928 -5.92159 0
M  V30 3011 H 285.941 -3.36547 -4.64122 0
M  V30 3012 H 284.338 -4.10975 -4.37286 0
M  V30 3013 H 285.408 -3.81754 -2.98985 0
M  V30 3014 N 286.751 1.08385 -1.14413 0
M  V30 3015 C 287.698 2.15311 -0.831265 0
M  V30 3016 C 288.668 1.64751 0.211292 0
M  V30 3017 O 289.853 1.90627 0.0811674 0
M  V30 3018 C 286.993 3.43658 -0.315143 0
M  V30 3019 C 286.106 4.08064 -1.41802 0
M  V30 3020 C 285.241 5.24207 -0.859126 0
M  V30 3021 C 284.28 5.80554 -1.93967 0
M  V30 3022 N 283.417 6.88042 -1.39793 0
M  V30 3023 H 288.257 2.41415 -1.74708 0
M  V30 3024 H 285.794 1.18474 -0.871909 0
M  V30 3025 H 287.752 4.172 0.00230884 0
M  V30 3026 H 286.382 3.17839 0.56378 0
M  V30 3027 H 285.434 3.3228 -1.85187 0
M  V30 3028 H 286.746 4.45962 -2.23427 0
M  V30 3029 H 285.9 6.04689 -0.49359 0
M  V30 3030 H 284.639 4.87699 -0.011932 0
M  V30 3031 H 283.644 4.98725 -2.31415 0
M  V30 3032 H 284.869 6.19121 -2.79046 0
M  V30 3033 H 282.815 6.53493 -0.572919 0
M  V30 3034 H 282.732 7.24767 -2.15054 0
M  V30 3035 H 284 7.72255 -1.0603 0
M  V30 3036 N 288.23 0.939286 1.26551 0
M  V30 3037 C 289.458 0.602536 1.97932 0
M  V30 3038 C 289.873 -0.82206 1.69964 0
M  V30 3039 O 289.23 -1.54789 0.966784 0
M  V30 3040 C 289.281 0.832946 3.51773 0
M  V30 3041 O 289.002 2.20151 3.78768 0
M  V30 3042 C 290.503 0.506483 4.40397 0
M  V30 3043 H 287.723 0.227248 0.631347 0
M  V30 3044 H 290.267 1.25948 1.61113 0
M  V30 3045 H 288.422 0.222644 3.8676 0
M  V30 3046 H 288.836 2.26013 4.73306 0
M  V30 3047 H 290.31 0.718333 5.47306 0
M  V30 3048 H 290.787 -0.558451 4.35635 0
M  V30 3049 H 291.393 1.09543 4.10951 0
M  V30 3050 N 289.708 -1.40897 0.706093 0
M  V30 3051 C 290.655 -2.30751 0.0474474 0
M  V30 3052 C 291.625 -1.47678 -0.76029 0
M  V30 3053 O 292.81 -1.76441 -0.726177 0
M  V30 3054 C 289.95 -3.33815 -0.875309 0
M  V30 3055 C 289.063 -4.31961 -0.0580623 0
M  V30 3056 C 288.198 -5.22093 -0.979425 0
M  V30 3057 C 287.237 -6.11902 -0.155706 0
M  V30 3058 N 286.374 -6.94482 -1.03144 0
M  V30 3059 H 291.214 -2.86513 0.819413 0
M  V30 3060 H 288.751 -1.41102 0.415783 0
M  V30 3061 H 290.709 -3.92129 -1.42446 0
M  V30 3062 H 289.339 -2.79579 -1.61356 0
M  V30 3063 H 288.391 -3.75507 0.608147 0
M  V30 3064 H 289.703 -4.95415 0.580082 0
M  V30 3065 H 288.857 -5.85292 -1.59744 0
M  V30 3066 H 287.596 -4.5889 -1.65141 0
M  V30 3067 H 286.601 -5.47742 0.475309 0
M  V30 3068 H 287.826 -6.77162 0.512635 0
M  V30 3069 H 285.772 -6.33877 -1.68924 0
M  V30 3070 H 285.689 -7.54665 -0.449108 0
M  V30 3071 H 286.957 -7.6214 -1.63593 0
M  V30 3072 N 291.186 -0.45159 -1.50991 0
M  V30 3073 C 292.116 0.342898 -2.30969 0
M  V30 3074 C 293.097 1.00815 -1.37005 0
M  V30 3075 O 294.282 1.00907 -1.65926 0
M  V30 3076 C 291.412 1.43637 -3.16205 0
M  V30 3077 C 290.366 0.893818 -4.18563 0
M  V30 3078 C 289.692 2.08411 -4.92411 0
M  V30 3079 C 290.992 -0.0815568 -5.22236 0
M  V30 3080 H 292.686 -0.324556 -2.97636 0
M  V30 3081 H 290.232 -0.157531 -1.43136 0
M  V30 3082 H 292.185 1.9995 -3.70942 0
M  V30 3083 H 290.909 2.13232 -2.47386 0
M  V30 3084 H 289.568 0.352798 -3.64898 0
M  V30 3085 H 289.216 2.76658 -4.20082 0
M  V30 3086 H 288.916 1.72741 -5.61636 0
M  V30 3087 H 290.44 2.65251 -5.49976 0
M  V30 3088 H 291.854 0.391742 -5.7196 0
M  V30 3089 H 290.251 -0.351551 -5.99069 0
M  V30 3090 H 291.321 -1.01374 -4.74185 0
M  V30 3091 N 292.664 1.56529 -0.183458 0
M  V30 3092 C 293.941 1.88959 0.50536 0
M  V30 3093 C 294.321 1.09523 1.80466 0
M  V30 3094 O 293.669 0.19278 2.27685 0
M  V30 3095 C 293.879 3.41162 0.73547 0
M  V30 3096 C 295.227 4.11155 1.06005 0
M  V30 3097 O 296.251 3.46548 0.823594 0
M  V30 3098 O 295.11 5.25318 1.50675 0
M  V30 3099 H 292.204 0.78441 0.261973 0
M  V30 3100 H 294.75 1.68231 -0.222802 0
M  V30 3101 H 293.522 3.90874 -0.182561 0
M  V30 3102 H 293.145 3.67543 1.51651 0
M  V30 3103 N 294.142 -0.090211 1.57342 0
M  V30 3104 C 295.072 -1.10976 2.05443 0
M  V30 3105 C 296.053 -1.41482 0.944284 0
M  V30 3106 O 297.238 -1.51428 1.21586 0
M  V30 3107 C 294.368 -2.42831 2.48295 0
M  V30 3108 C 293.322 -2.26721 3.63018 0
M  V30 3109 C 292.648 -3.63796 3.91863 0
M  V30 3110 C 293.948 -1.7037 4.93732 0
M  V30 3111 H 295.642 -0.709564 2.9087 0
M  V30 3112 H 293.188 -0.339874 1.39932 0
M  V30 3113 H 295.141 -3.14431 2.80555 0
M  V30 3114 H 293.865 -2.84795 1.59873 0
M  V30 3115 H 292.524 -1.57565 3.31012 0
M  V30 3116 H 292.172 -4.03297 3.00601 0
M  V30 3117 H 291.872 -3.53861 4.69101 0
M  V30 3118 H 293.396 -4.36855 4.26603 0
M  V30 3119 H 294.81 -2.31816 5.24342 0
M  V30 3120 H 293.207 -1.71181 5.75167 0
M  V30 3121 H 294.277 -0.663542 4.80339 0
M  V30 3122 N 295.62 -1.53406 -0.361157 0
M  V30 3123 C 296.845 -1.74024 -1.12829 0
M  V30 3124 C 297.27 -0.470069 -1.82132 0
M  V30 3125 O 296.628 0.57619 -1.719 0
M  V30 3126 C 296.676 -2.90903 -2.13091 0
M  V30 3127 O 295.78 -2.59821 -3.20261 0
M  V30 3128 H 295.121 -0.577804 -0.327168 0
M  V30 3129 H 297.651 -2.00307 -0.41693 0
M  V30 3130 H 297.661 -3.17194 -2.56616 0
M  V30 3131 H 296.336 -3.83034 -1.62042 0
M  V30 3132 H 294.913 -2.44362 -2.81677 0
M  V30 3133 N 297.098 0.621204 -1.44841 0
M  V30 3134 C 298.323 1.41244 -1.51871 0
M  V30 3135 C 298.748 1.87519 -0.147764 0
M  V30 3136 O 298.106 1.59334 0.865 0
M  V30 3137 C 298.154 2.60221 -2.49634 0
M  V30 3138 O 297.258 3.60395 -2.00473 0
M  V30 3139 H 296.599 0.42223 -0.512463 0
M  V30 3140 H 299.129 0.757305 -1.90069 0
M  V30 3141 H 299.139 3.0764 -2.67996 0
M  V30 3142 H 297.814 2.25887 -3.4921 0
M  V30 3143 H 296.391 3.19717 -1.91925 0
M  V30 3144 N 298.576 1.31904 0.862503 0
M  V30 3145 C 299.506 1.22782 1.98612 0
M  V30 3146 C 300.487 0.113362 1.69722 0
M  V30 3147 O 301.672 0.299218 1.91881 0
M  V30 3148 C 298.802 0.942058 3.34279 0
M  V30 3149 C 297.756 2.0169 3.77499 0
M  V30 3150 C 297.082 1.58369 5.10709 0
M  V30 3151 C 298.382 3.43096 3.93805 0
M  V30 3152 H 300.076 2.16788 2.06502 0
M  V30 3153 H 297.622 1.04366 0.992154 0
M  V30 3154 H 299.575 0.864818 4.1243 0
M  V30 3155 H 298.299 -0.0336603 3.26583 0
M  V30 3156 H 296.958 2.08416 3.01593 0
M  V30 3157 H 296.606 0.595628 4.99461 0
M  V30 3158 H 296.306 2.30279 5.40597 0
M  V30 3159 H 297.83 1.52067 5.91361 0
M  V30 3160 H 299.244 3.39003 4.62331 0
M  V30 3161 H 297.641 4.13288 4.35101 0
M  V30 3162 H 298.711 3.83334 2.96957 0
M  V30 3163 N 300.054 -1.07777 1.14986 0
M  V30 3164 C 301.017 -2.13041 0.845358 0
M  V30 3165 C 302.017 -1.60071 -0.152931 0
M  V30 3166 O 303.207 -1.74033 0.0761879 0
M  V30 3167 C 300.339 -3.39896 0.261383 0
M  V30 3168 H 301.532 -2.41485 1.77834 0
M  V30 3169 H 299.085 -1.23595 0.956757 0
M  V30 3170 H 299.82 -3.17091 -0.68 0
M  V30 3171 H 299.605 -3.79642 0.980514 0
M  V30 3172 H 301.095 -4.17548 0.0657687 0
M  V30 3173 N 301.532 -0.945985 -1.26051 0
M  V30 3174 C 302.762 -0.612136 -1.97323 0
M  V30 3175 C 303.17 0.818171 -1.70595 0
M  V30 3176 O 302.513 1.55777 -0.973613 0
M  V30 3177 C 302.575 -0.780347 -3.50929 0
M  V30 3178 C 302.239 -2.18619 -4.01317 0
M  V30 3179 C 303.236 -3.16209 -4.12683 0
M  V30 3180 C 300.921 -2.50805 -4.35203 0
M  V30 3181 C 302.915 -4.44085 -4.57238 0
M  V30 3182 C 300.602 -3.78912 -4.79446 0
M  V30 3183 C 301.6 -4.75365 -4.90425 0
M  V30 3184 O 301.288 -6.01191 -5.3369 0
M  V30 3185 H 301.02 -0.229134 -0.635982 0
M  V30 3186 H 303.574 -1.27036 -1.61404 0
M  V30 3187 H 301.804 -0.0649864 -3.86645 0
M  V30 3188 H 303.493 -0.448842 -4.03411 0
M  V30 3189 H 304.259 -2.92668 -3.86744 0
M  V30 3190 H 300.138 -1.76463 -4.2589 0
M  V30 3191 H 303.682 -5.19373 -4.65723 0
M  V30 3192 H 299.579 -4.02265 -5.0483 0
M  V30 3193 H 300.347 -6.04442 -5.51899 0
M  V30 3194 N 303.011 1.40521 -0.713556 0
M  V30 3195 C 304.236 2.05759 -0.26035 0
M  V30 3196 C 304.661 1.53403 1.08854 0
M  V30 3197 O 304.019 0.668535 1.68524 0
M  V30 3198 C 304.067 3.59745 -0.248122 0
M  V30 3199 O 303.171 4.05123 0.77131 0
M  V30 3200 H 302.512 0.652564 -0.122703 0
M  V30 3201 H 305.042 1.79958 -0.973467 0
M  V30 3202 H 305.052 4.07911 -0.0851129 0
M  V30 3203 H 303.727 3.97218 -1.2325 0
M  V30 3204 H 302.304 3.68422 0.57619 0
M  V30 3205 N 304.489 0.459591 1.5075 0
M  V30 3206 C 305.737 -0.0991532 2.01857 0
M  V30 3207 C 306.058 -1.41247 1.34441 0
M  V30 3208 O 305.328 -1.89775 0.486022 0
M  V30 3209 H 303.908 -0.039633 0.745948 0
M  V30 3210 H 306.57 0.607387 1.85194 0
M  V30 3211 H 305.666 -0.258998 3.11023 0
M  V30 3212 N 305.967 -1.56429 0.191757 0
M  V30 3213 C 306.914 -2.18936 -0.730454 0
M  V30 3214 C 307.884 -1.13557 -1.21219 0
M  V30 3215 O 309.069 -1.41794 -1.27668 0
M  V30 3216 C 306.209 -2.85013 -1.9458 0
M  V30 3217 C 305.322 -4.04909 -1.50574 0
M  V30 3218 C 304.457 -4.58853 -2.67634 0
M  V30 3219 C 303.496 -5.71114 -2.20217 0
M  V30 3220 N 302.633 -6.19478 -3.30442 0
M  V30 3221 H 307.473 -2.97389 -0.190664 0
M  V30 3222 H 305.01 -1.46869 -0.0823694 0
M  V30 3223 H 306.968 -3.21492 -2.65893 0
M  V30 3224 H 305.598 -2.09129 -2.45896 0
M  V30 3225 H 304.65 -3.74115 -0.688605 0
M  V30 3226 H 305.962 -4.86113 -1.11784 0
M  V30 3227 H 305.116 -4.97619 -3.47074 0
M  V30 3228 H 303.855 -3.76749 -3.09696 0
M  V30 3229 H 302.86 -5.31879 -1.3923 0
M  V30 3230 H 304.085 -6.55033 -1.79189 0
M  V30 3231 H 302.031 -5.40297 -3.72041 0
M  V30 3232 H 301.948 -6.95725 -2.9581 0
M  V30 3233 H 303.216 -6.62898 -4.10106 0
M  V30 3234 N 307.445 0.0818655 -1.57387 0
M  V30 3235 C 308.722 0.815343 -1.77796 0
M  V30 3236 C 309.102 1.96289 -0.77679 0
M  V30 3237 O 308.45 2.27691 0.192106 0
M  V30 3238 C 308.66 1.29765 -3.23978 0
M  V30 3239 C 310.008 1.7351 -3.8753 0
M  V30 3240 O 311.032 1.39356 -3.27808 0
M  V30 3241 O 309.891 2.36708 -4.92576 0
M  V30 3242 H 306.985 0.389914 -0.729312 0
M  V30 3243 H 309.531 0.0627213 -1.69584 0
M  V30 3244 H 308.303 0.47608 -3.88393 0
M  V30 3245 H 307.926 2.11189 -3.36875 0
M  V30 3246 N 308.923 1.53595 0.353017 0
M  V30 3247 C 309.886 1.80232 1.41594 0
M  V30 3248 C 310.886 0.673081 1.46035 0
M  V30 3249 O 312.076 0.941335 1.46576 0
M  V30 3250 C 309.208 1.93578 2.80607 0
M  V30 3251 H 310.401 2.75174 1.19244 0
M  V30 3252 H 307.954 1.44864 0.586872 0
M  V30 3253 H 308.689 1.00746 3.08254 0
M  V30 3254 H 308.474 2.75724 2.78781 0
M  V30 3255 H 309.964 2.15735 3.57558 0
M  V30 3256 O 310.44 -0.498996 1.53598 0
M  V30 3257 H 311.131 -1.15384 1.55584 0
M  V30 END ATOM
M  V30 BEGIN BOND
M  V30 END BOND
M  V30 END CTAB
M  END
$$$$
