drugbank_target|Q16513 Serine/threonine-protein kinase N2 (DB12010)
 OpenBabel12092121183D

  0  0  0     0  0            999 V3000
M  V30 BEGIN CTAB
M  V30 COUNTS 15747 15901 0 0 0
M  V30 BEGIN ATOM
M  V30 1 H -0.908 1.98254 -0.117106 0
M  V30 2 N 0 1.576 0 0
M  V30 3 C 0.933 2.03868 1.02534 0
M  V30 4 C 1.911 0.928543 1.3348 0
M  V30 5 O 3.095 1.19667 1.45644 0
M  V30 6 C 0.222 2.43627 2.35294 0
M  V30 7 C -0.732 3.65373 2.2001 0
M  V30 8 S 0.101 5.13292 1.52614 0
M  V30 9 C 1.257 5.56322 2.86805 0
M  V30 10 H 1.49 2.90518 0.631377 0
M  V30 11 H -0.977 1.52953 0.210867 0
M  V30 12 H 0.981 2.67203 3.11629 0
M  V30 13 H -0.358 1.57376 2.7183 0
M  V30 14 H -1.165 3.90944 3.18086 0
M  V30 15 H -1.563 3.418 1.51819 0
M  V30 16 H 0.729 5.58782 3.83104 0
M  V30 17 H 1.672 6.56266 2.65933 0
M  V30 18 H 2.08 4.83886 2.90714 0
M  V30 19 N 1.4781 -0.272755 1.55222 0
M  V30 20 C 2.4411 -1.32041 1.87344 0
M  V30 21 C 3.4411 -1.42342 0.74803 0
M  V30 22 O 4.6311 -1.41488 1.0162 0
M  V30 23 C 1.7631 -2.70173 2.07893 0
M  V30 24 H 2.9561 -1.04789 2.80997 0
M  V30 25 H 0.5091 -0.51083 1.47717 0
M  V30 26 H 1.2441 -3.02605 1.16622 0
M  V30 27 H 1.0291 -2.64082 2.89833 0
M  V30 28 H 2.5191 -3.45869 2.34017 0
M  V30 29 N 2.9562 -1.48159 -0.537278 0
M  V30 30 C 4.1812 -1.59707 -1.32319 0
M  V30 31 C 4.6062 -0.254859 -1.86365 0
M  V30 32 O 3.9642 0.772378 -1.64024 0
M  V30 33 C 4.0122 -2.6412 -2.45505 0
M  V30 34 O 3.1162 -2.20774 -3.48328 0
M  V30 35 H 2.4572 -0.535791 -0.392204 0
M  V30 36 H 4.9872 -1.94092 -0.647268 0
M  V30 37 H 4.9972 -2.85166 -2.91795 0
M  V30 38 H 3.6722 -3.61567 -2.05528 0
M  V30 39 H 2.2492 -2.09911 -3.08207 0
M  V30 40 N 4.4343 0.785586 -1.36625 0
M  V30 41 C 5.3823 1.91978 -1.31329 0
M  V30 42 C 6.3763 1.68162 -0.204416 0
M  V30 43 O 7.5823 1.76122 -0.371645 0
M  V30 44 H 3.9573 0.631087 -0.408942 0
M  V30 45 H 5.9283 1.93562 -2.27104 0
M  V30 46 C 4.6773 3.29055 -1.12329 0
M  V30 47 H 4.0003 3.4795 -1.96903 0
M  V30 48 H 5.4403 4.08756 -1.12671 0
M  V30 49 C 3.8993 3.36461 0.171861 0
M  V30 50 O 4.4293 3.84576 1.16035 0
M  V30 51 N 2.6353 2.89782 0.217846 0
M  V30 52 H 2.1823 2.50819 -0.587183 0
M  V30 53 H 2.1403 2.95119 1.08408 0
M  V30 54 N 5.9124 1.20967 1.01018 0
M  V30 55 C 7.3234 1.02319 1.56165 0
M  V30 56 C 7.6744 -0.418546 1.91684 0
M  V30 57 O 6.7994 -1.30096 1.72928 0
M  V30 58 C 7.3944 1.85109 2.8376 0
M  V30 59 C 5.9534 1.70809 3.35412 0
M  V30 60 C 5.1004 1.82643 2.08655 0
M  V30 61 H 8.0514 1.35065 0.833255 0
M  V30 62 H 8.0724 1.35827 3.55431 0
M  V30 63 H 7.5844 2.90035 2.57878 0
M  V30 64 H 5.6854 0.685464 3.66241 0
M  V30 65 H 5.7984 2.52467 4.07182 0
M  V30 66 H 4.1624 1.25896 2.21409 0
M  V30 67 H 4.9454 2.89066 1.85191 0
M  V30 68 N 7.3905 -1.2043 1.01659 0
M  V30 69 C 8.3005 -2.2689 0.596484 0
M  V30 70 C 9.3165 -1.70107 -0.36599 0
M  V30 71 O 10.4925 -2.00117 -0.226942 0
M  V30 72 C 7.5575 -3.4665 -0.0586659 0
M  V30 73 C 6.6185 -4.18662 0.949751 0
M  V30 74 C 5.8515 -5.32705 0.32577 0
M  V30 75 O 6.0745 -5.63656 -0.874509 0
M  V30 76 O 5.0085 -5.92803 1.04249 0
M  V30 77 H 8.8345 -2.65041 1.4828 0
M  V30 78 H 6.4195 -1.27048 0.786082 0
M  V30 79 H 8.3015 -4.19256 -0.424564 0
M  V30 80 H 6.9765 -3.10375 -0.91918 0
M  V30 81 H 5.8835 -3.48229 1.36702 0
M  V30 82 H 7.2165 -4.58878 1.78023 0
M  V30 83 N 8.8686 -0.792821 -1.36206 0
M  V30 84 C 10.2846 -0.474903 -1.52371 0
M  V30 85 C 10.4846 1.00622 -1.74578 0
M  V30 86 O 9.5406 1.79162 -1.77924 0
M  V30 87 C 10.8536 -1.3083 -2.70747 0
M  V30 88 C 12.4016 -1.30234 -2.84619 0
M  V30 89 C 12.8766 -2.11956 -4.06004 0
M  V30 90 N 14.3676 -2.09419 -4.13156 0
M  V30 91 C 15.1026 -2.69419 -5.06163 0
M  V30 92 N 14.5986 -3.3829 -6.04592 0
M  V30 93 N 16.3916 -2.59134 -4.98804 0
M  V30 94 H 8.5426 -1.75222 -1.20046 0
M  V30 95 H 10.8056 -0.745024 -0.586211 0
M  V30 96 H 10.5116 -2.35881 -2.6087 0
M  V30 97 H 10.3856 -0.95196 -3.6499 0
M  V30 98 H 12.7726 -0.259748 -2.93955 0
M  V30 99 H 12.8536 -1.69847 -1.91274 0
M  V30 100 H 12.4976 -3.16248 -3.97429 0
M  V30 101 H 12.4276 -1.69711 -4.98503 0
M  V30 102 H 14.9186 -1.59297 -3.42685 0
M  V30 103 H 15.2316 -3.81394 -6.7213 0
M  V30 104 H 13.5766 -3.42393 -6.04807 0
M  V30 105 H 16.7676 -2.04927 -4.20859 0
M  V30 106 H 16.9406 -3.06185 -5.711 0
M  V30 107 N 10.3467 1.47872 -0.545128 0
M  V30 108 C 11.5947 2.02093 -0.016553 0
M  V30 109 C 11.9157 1.42305 1.3332 0
M  V30 110 O 11.1857 0.593853 1.86682 0
M  V30 111 H 9.7657 0.746993 -0.00313038 0
M  V30 112 H 12.4277 1.81414 -0.712397 0
M  V30 113 H 11.5237 3.11996 0.0805422 0
M  V30 114 N 11.8248 0.280983 1.55075 0
M  V30 115 C 12.7348 -0.61388 2.26426 0
M  V30 116 C 13.7508 -1.16521 1.29224 0
M  V30 117 O 14.9268 -1.19426 1.62171 0
M  V30 118 C 11.9918 -1.7788 2.9759 0
M  V30 119 C 11.0528 -1.26355 4.10284 0
M  V30 120 C 10.2858 -2.37295 4.78045 0
M  V30 121 O 10.5088 -3.56777 4.45047 0
M  V30 122 O 9.4428 -2.05119 5.65871 0
M  V30 123 H 13.2688 -0.0356932 3.03679 0
M  V30 124 H 10.8538 0.0481686 1.49322 0
M  V30 125 H 12.7358 -2.45791 3.42293 0
M  V30 126 H 11.4108 -2.34397 2.23249 0
M  V30 127 H 10.3178 -0.550735 3.70024 0
M  V30 128 H 11.6508 -0.744065 4.86543 0
M  V30 129 N 13.3029 -1.57598 0.00835791 0
M  V30 130 C 14.5519 -1.90107 -0.673968 0
M  V30 131 C 14.8649 -0.884275 -1.7447 0
M  V30 132 O 16.0709 -1.09987 -2.48224 0
M  V30 133 C 14.5269 -3.37497 -1.24995 0
M  V30 134 C 14.1349 -4.47491 -0.2136 0
M  V30 135 C 15.8789 -3.79104 -1.90999 0
M  V30 136 C 13.7859 -5.85963 -0.80005 0
M  V30 137 H 12.7159 -0.709393 -0.255495 0
M  V30 138 H 15.3669 -1.83365 0.0702693 0
M  V30 139 H 13.7489 -3.39102 -2.04513 0
M  V30 140 H 14.9229 -4.57414 0.557596 0
M  V30 141 H 13.2379 -4.14956 0.346474 0
M  V30 142 H 15.8349 -4.79901 -2.35795 0
M  V30 143 H 16.1779 -3.1306 -2.74407 0
M  V30 144 H 16.7109 -3.79833 -1.18203 0
M  V30 145 H 13.4499 -6.555 -0.00456708 0
M  V30 146 H 12.9699 -5.79687 -1.54021 0
M  V30 147 H 14.6489 -6.33884 -1.29615 0
M  V30 148 N 14.781 0.264519 -1.55364 0
M  V30 149 C 15.711 1.33121 -1.91836 0
M  V30 150 C 16.692 1.51101 -0.781192 0
M  V30 151 O 17.877 1.64003 -1.04003 0
M  V30 152 C 15.007 2.68921 -2.19769 0
M  V30 153 C 13.961 2.65661 -3.35571 0
M  V30 154 C 13.287 4.05093 -3.49004 0
M  V30 155 C 14.587 2.24187 -4.71739 0
M  V30 156 H 16.281 1.02844 -2.81182 0
M  V30 157 H 13.827 0.493286 -1.35287 0
M  V30 158 H 15.78 3.43663 -2.43872 0
M  V30 159 H 14.504 3.00799 -1.27231 0
M  V30 160 H 13.163 1.93377 -3.1145 0
M  V30 161 H 12.811 4.34206 -2.53917 0
M  V30 162 H 12.511 4.03804 -4.26868 0
M  V30 163 H 14.035 4.81561 -3.75408 0
M  V30 164 H 15.449 2.88654 -4.9533 0
M  V30 165 H 13.846 2.34044 -5.52579 0
M  V30 166 H 14.916 1.19327 -4.69988 0
M  V30 167 N 16.2591 1.48442 0.529413 0
M  V30 168 C 17.1891 1.65902 1.64313 0
M  V30 169 C 18.1701 0.507897 1.6234 0
M  V30 170 O 19.3551 0.740503 1.79528 0
M  V30 171 C 16.4851 1.69911 3.02898 0
M  V30 172 C 15.4391 2.8453 3.19729 0
M  V30 173 C 14.7651 2.73629 4.59381 0
M  V30 174 C 16.0651 4.25821 3.02447 0
M  V30 175 H 17.7591 2.5914 1.49955 0
M  V30 176 H 15.3051 1.24709 0.719982 0
M  V30 177 H 17.2581 1.80715 3.80684 0
M  V30 178 H 15.9821 0.732524 3.18279 0
M  V30 179 H 14.6411 2.73283 2.44361 0
M  V30 180 H 14.2891 1.74938 4.71599 0
M  V30 181 H 13.9891 3.50541 4.71588 0
M  V30 182 H 15.5131 2.86401 5.39265 0
M  V30 183 H 16.9271 4.37898 3.70024 0
M  V30 184 H 15.3241 5.03735 3.26146 0
M  V30 185 H 16.3941 4.42244 1.98867 0
M  V30 186 N 17.7372 -0.778329 1.37039 0
M  V30 187 C 18.9652 -1.56734 1.35063 0
M  V30 188 C 19.3802 -1.88686 -0.0655597 0
M  V30 189 O 18.7372 -1.5096 -1.02554 0
M  V30 190 C 18.7882 -2.88163 2.18276 0
M  V30 191 O 18.5092 -2.57583 3.54376 0
M  V30 192 C 20.0102 -3.82422 2.24206 0
M  V30 193 H 17.2302 -0.485778 0.462883 0
M  V30 194 H 19.7742 -0.965185 1.8029 0
M  V30 195 H 17.9292 -3.44818 1.76576 0
M  V30 196 H 18.3432 -3.41699 3.97922 0
M  V30 197 H 19.8172 -4.71667 2.86765 0
M  V30 198 H 20.2942 -4.21078 1.24861 0
M  V30 199 H 20.9002 -3.31697 2.6619 0
M  V30 200 N 19.2153 -1.21501 -1.00376 0
M  V30 201 C 20.1253 -0.991447 -2.12621 0
M  V30 202 C 21.1413 0.0568446 -1.73907 0
M  V30 203 O 22.3173 -0.13348 -2.00957 0
M  V30 204 C 19.3823 -0.560312 -3.42142 0
M  V30 205 C 18.4433 -1.68096 -3.95022 0
M  V30 206 C 17.6763 -1.2703 -5.18362 0
M  V30 207 O 17.8993 -0.144438 -5.70217 0
M  V30 208 O 16.8333 -2.08269 -5.64719 0
M  V30 209 H 20.6593 -1.93158 -2.34358 0
M  V30 210 H 18.2443 -0.999999 -1.10997 0
M  V30 211 H 20.1263 -0.329724 -4.20108 0
M  V30 212 H 18.8013 0.351089 -3.2179 0
M  V30 213 H 17.7083 -1.96597 -3.18278 0
M  V30 214 H 19.0413 -2.56983 -4.19786 0
M  V30 215 N 20.6934 1.19889 -1.02296 0
M  V30 216 C 21.6234 2.25141 -0.619174 0
M  V30 217 C 22.6044 1.66051 0.368915 0
M  V30 218 O 23.7894 1.92546 0.252941 0
M  V30 219 C 20.9194 3.4728 0.0368783 0
M  V30 220 C 19.8734 4.19005 -0.872865 0
M  V30 221 C 19.1994 5.34637 -0.0822402 0
M  V30 222 C 20.4994 4.74452 -2.18387 0
M  V30 223 H 22.1934 2.59171 -1.49903 0
M  V30 224 H 19.7394 1.24579 -0.722222 0
M  V30 225 H 21.6924 4.20098 0.330958 0
M  V30 226 H 20.4164 3.12433 0.95149 0
M  V30 227 H 19.0754 3.48061 -1.15105 0
M  V30 228 H 18.7234 4.96034 0.83422 0
M  V30 229 H 18.4234 5.83557 -0.688149 0
M  V30 230 H 19.9474 6.10255 0.205238 0
M  V30 231 H 21.3614 5.39055 -1.95172 0
M  V30 232 H 19.7584 5.33834 -2.74119 0
M  V30 233 H 20.8284 3.92844 -2.84257 0
M  V30 234 N 22.1715 0.800033 1.35784 0
M  V30 235 C 23.1035 0.163596 2.28615 0
M  V30 236 C 24.1165 -0.633317 1.49976 0
M  V30 237 O 25.3055 -0.466754 1.72289 0
M  V30 238 C 22.4055 -0.790958 3.29541 0
M  V30 239 C 21.5785 -0.0418255 4.3738 0
M  V30 240 C 20.6375 -0.91389 5.18203 0
M  V30 241 O 19.6635 -0.367234 5.68014 0
M  V30 242 N 20.8655 -2.23682 5.35674 0
M  V30 243 H 23.6305 0.96105 2.83873 0
M  V30 244 H 21.1915 0.654894 1.48063 0
M  V30 245 H 23.1835 -1.37844 3.80501 0
M  V30 246 H 21.7535 -1.48925 2.74846 0
M  V30 247 H 20.9735 0.726813 3.87442 0
M  V30 248 H 22.2615 0.474719 5.06581 0
M  V30 249 H 21.6595 -2.70497 4.96838 0
M  V30 250 H 20.2165 -2.77369 5.89839 0
M  V30 251 N 23.6496 -1.47581 0.552962 0
M  V30 252 C 24.8976 -2.02082 0.0272703 0
M  V30 253 C 25.2186 -1.4301 -1.32563 0
M  V30 254 O 24.4886 -0.603745 -1.86365 0
M  V30 255 H 23.0686 -0.746966 0.00709182 0
M  V30 256 H 25.7306 -1.81033 0.722008 0
M  V30 257 H 24.8266 -3.12034 -0.0639951 0
M  V30 258 N 25.1277 -0.289203 -1.54924 0
M  V30 259 C 26.4047 0.376032 -1.91951 0
M  V30 260 C 26.7847 1.72622 -1.21511 0
M  V30 261 O 26.1327 2.25853 -0.346767 0
M  V30 262 C 26.3427 0.502378 -3.45365 0
M  V30 263 C 27.6907 0.778741 -4.17398 0
M  V30 264 O 28.7147 0.586647 -3.51336 0
M  V30 265 O 27.5737 1.14698 -5.34328 0
M  V30 266 H 24.6677 0.208167 -0.800372 0
M  V30 267 H 27.2137 -0.336394 -1.66332 0
M  V30 268 H 25.9857 -0.447255 -3.88736 0
M  V30 269 H 25.6087 1.26373 -3.76982 0
M  V30 270 N 26.6058 1.57591 -0.0167156 0
M  V30 271 C 27.8308 1.9598 0.67872 0
M  V30 272 C 28.2558 0.892546 1.65575 0
M  V30 273 O 27.6138 -0.147772 1.80697 0
M  V30 274 C 27.6618 3.33468 1.37227 0
M  V30 275 O 26.7658 3.28954 2.48722 0
M  V30 276 H 26.1068 0.639339 0.17928 0
M  V30 277 H 28.6368 2.04463 -0.0748802 0
M  V30 278 H 28.6468 3.69417 1.7319 0
M  V30 279 H 27.3218 4.10694 0.656007 0
M  V30 280 H 25.8988 3.04705 2.14963 0
M  V30 281 N 28.0839 -0.256276 1.55502 0
M  V30 282 C 29.4999 -0.604325 1.47716 0
M  V30 283 C 29.6999 -1.88763 0.705039 0
M  V30 284 O 28.7559 -2.51445 0.230613 0
M  V30 285 C 30.0689 -0.715756 2.92057 0
M  V30 286 C 31.6169 -0.808706 3.02372 0
M  V30 287 C 32.0919 -0.951777 4.48001 0
M  V30 288 N 33.5829 -1.01688 4.519 0
M  V30 289 C 34.3179 -1.14668 5.61817 0
M  V30 290 N 33.8139 -1.24261 6.81565 0
M  V30 291 N 35.6069 -1.1791 5.49594 0
M  V30 292 H 27.7579 0.586291 2.04148 0
M  V30 293 H 30.0209 0.201015 0.926443 0
M  V30 294 H 29.7269 0.157027 3.51349 0
M  V30 295 H 29.6009 -1.59071 3.42018 0
M  V30 296 H 31.9879 -1.67195 2.43166 0
M  V30 297 H 32.0689 0.0912063 2.55637 0
M  V30 298 H 31.7129 -0.0931291 5.07815 0
M  V30 299 H 31.6429 -1.86659 4.92408 0
M  V30 300 H 34.1339 -0.954468 3.65648 0
M  V30 301 H 34.4469 -1.34046 7.61086 0
M  V30 302 H 32.7919 -1.21236 6.84344 0
M  V30 303 H 35.9829 -1.10057 4.54978 0
M  V30 304 H 36.1559 -1.27681 6.35296 0
M  V30 305 N 29.562 -1.4872 -0.521534 0
M  V30 306 C 30.787 -1.61101 -1.30618 0
M  V30 307 C 31.212 -0.274611 -1.86085 0
M  V30 308 O 30.57 0.754937 -1.64834 0
M  V30 309 C 30.618 -2.66709 -2.4269 0
M  V30 310 O 29.722 -2.24456 -3.45967 0
M  V30 311 H 29.063 -0.539921 -0.386499 0
M  V30 312 H 31.593 -1.94767 -0.626645 0
M  V30 313 H 31.603 -2.88245 -2.88754 0
M  V30 314 H 30.278 -3.63727 -2.01682 0
M  V30 315 H 28.855 -2.13168 -3.05964 0
M  V30 316 N 31.0401 0.771051 -1.3745 0
M  V30 317 C 31.9701 1.89827 -1.3597 0
M  V30 318 C 32.9511 1.68562 -0.228216 0
M  V30 319 O 34.1361 1.8941 -0.428675 0
M  V30 320 C 31.2661 3.2712 -1.16662 0
M  V30 321 C 30.2201 3.6295 -2.2683 0
M  V30 322 C 29.5461 4.98791 -1.92644 0
M  V30 323 C 30.8461 3.69627 -3.69017 0
M  V30 324 H 32.5401 1.91323 -2.30295 0
M  V30 325 H 30.0861 0.919082 -1.10855 0
M  V30 326 H 32.0391 4.05615 -1.14256 0
M  V30 327 H 30.7631 3.26059 -0.187926 0
M  V30 328 H 29.4221 2.86763 -2.28392 0
M  V30 329 H 29.0701 4.94271 -0.933021 0
M  V30 330 H 28.7701 5.23733 -2.66416 0
M  V30 331 H 30.2941 5.79685 -1.91826 0
M  V30 332 H 31.7081 4.38273 -3.69581 0
M  V30 333 H 30.1051 4.06067 -4.41848 0
M  V30 334 H 31.1751 2.70273 -4.02592 0
M  V30 335 N 32.5182 1.22032 0.997298 0
M  V30 336 C 33.9292 1.0397 1.55071 0
M  V30 337 C 34.2802 -0.398192 1.92117 0
M  V30 338 O 33.4052 -1.28254 1.74298 0
M  V30 339 C 34.0002 1.88109 2.81781 0
M  V30 340 C 32.5592 1.74357 3.33581 0
M  V30 341 C 31.7062 1.84846 2.06706 0
M  V30 342 H 34.6572 1.35941 0.818883 0
M  V30 343 H 34.6782 1.39589 3.53971 0
M  V30 344 H 34.1902 2.92754 2.54787 0
M  V30 345 H 32.2912 0.72427 3.65493 0
M  V30 346 H 32.4042 2.56772 4.04481 0
M  V30 347 H 30.7682 1.28238 2.20062 0
M  V30 348 H 31.5512 2.91014 1.82114 0
M  V30 349 N 33.9963 -1.19345 1.0293 0
M  V30 350 C 35.2433 -1.89038 0.726008 0
M  V30 351 C 35.5713 -1.79649 -0.745427 0
M  V30 352 O 34.8263 -1.18354 -1.55855 0
M  V30 353 C 35.1253 -3.39292 1.12319 0
M  V30 354 C 34.7913 -3.68885 2.59297 0
M  V30 355 C 33.4533 -3.76671 2.99453 0
M  V30 356 C 35.8053 -3.82178 3.54386 0
M  V30 357 C 33.1333 -3.9522 4.33611 0
M  V30 358 C 35.4853 -4.0224 4.88248 0
M  V30 359 C 34.1493 -4.08259 5.28092 0
M  V30 360 H 33.4193 -0.691739 0.265665 0
M  V30 361 H 36.0663 -1.41328 1.29223 0
M  V30 362 H 34.3713 -3.88903 0.475584 0
M  V30 363 H 36.0683 -3.91536 0.866037 0
M  V30 364 H 32.6583 -3.63433 2.27189 0
M  V30 365 H 36.8423 -3.75505 3.24514 0
M  V30 366 H 32.0983 -3.98119 4.64016 0
M  V30 367 H 36.2723 -4.11468 5.61843 0
M  V30 368 H 33.8993 -4.22384 6.32057 0
M  V30 369 N 35.4744 -0.807222 -1.35358 0
M  V30 370 C 36.6994 -0.399309 -2.0352 0
M  V30 371 C 37.1244 0.981986 -1.60433 0
M  V30 372 O 36.4824 1.63601 -0.781299 0
M  V30 373 C 36.5304 -0.491552 -3.57234 0
M  V30 374 O 35.6344 0.494754 -4.09421 0
M  V30 375 H 34.9754 -0.166682 -0.642739 0
M  V30 376 H 37.5054 -1.09328 -1.72941 0
M  V30 377 H 37.5154 -0.361588 -4.06395 0
M  V30 378 H 36.1904 -1.49907 -3.87944 0
M  V30 379 H 34.7674 0.324977 -3.71481 0
M  V30 380 N 36.9525 1.47285 -0.560781 0
M  V30 381 C 37.8625 2.33846 0.187954 0
M  V30 382 C 38.8785 1.48412 0.908293 0
M  V30 383 O 40.0545 1.81332 0.876388 0
M  V30 384 C 37.1195 3.25178 1.2025 0
M  V30 385 C 36.1805 4.26504 0.489208 0
M  V30 386 C 35.4135 5.13472 1.45542 0
M  V30 387 O 35.6365 5.02959 2.6905 0
M  V30 388 O 34.5705 5.93902 0.977963 0
M  V30 389 H 38.3965 2.99177 -0.522177 0
M  V30 390 H 35.9815 1.45903 -0.321364 0
M  V30 391 H 37.8635 3.81584 1.78805 0
M  V30 392 H 36.5385 2.6247 1.89449 0
M  V30 393 H 35.4455 3.73847 -0.137627 0
M  V30 394 H 36.7785 4.91935 -0.161399 0
M  V30 395 N 38.4306 0.297415 1.54768 0
M  V30 396 C 39.3786 -0.596051 2.24833 0
M  V30 397 C 40.3726 -1.13992 1.25308 0
M  V30 398 O 41.5786 -1.09098 1.4317 0
M  V30 399 H 37.9536 -0.210814 0.721846 0
M  V30 400 H 39.9246 0.0174667 2.98395 0
M  V30 401 C 38.6736 -1.75818 2.99972 0
M  V30 402 H 37.9966 -1.3489 3.76357 0
M  V30 403 H 39.4366 -2.35949 3.52284 0
M  V30 404 C 37.8956 -2.66014 2.06732 0
M  V30 405 O 38.4256 -3.67009 1.63302 0
M  V30 406 N 36.6316 -2.33669 1.72763 0
M  V30 407 H 36.1786 -1.51586 2.08277 0
M  V30 408 H 36.1366 -2.94285 1.10652 0
M  V30 409 N 39.9087 -1.5758 0.0250728 0
M  V30 410 C 41.1547 -1.91917 -0.655413 0
M  V30 411 C 41.4877 -0.901433 -1.72011 0
M  V30 412 O 40.7627 0.0764069 -1.9435 0
M  V30 413 C 41.0457 -3.36751 -1.27558 0
M  V30 414 C 40.8987 -4.49258 -0.220719 0
M  V30 415 C 42.2177 -3.81469 -2.19475 0
M  V30 416 H 39.3367 -0.697925 -0.23679 0
M  V30 417 H 41.9787 -1.89825 0.0815036 0
M  V30 418 H 40.1287 -3.38664 -1.90365 0
M  V30 419 H 41.8007 -4.59478 0.409601 0
M  V30 420 H 40.0437 -4.31415 0.454264 0
M  V30 421 H 40.7147 -5.47618 -0.694175 0
M  V30 422 H 43.1907 -3.81266 -1.66659 0
M  V30 423 H 42.0667 -4.83512 -2.59822 0
M  V30 424 H 42.3277 -3.16744 -3.08424 0
M  V30 425 N 41.3868 0.248026 -1.55636 0
M  V30 426 C 42.6118 0.998028 -1.81808 0
M  V30 427 C 43.0368 1.78207 -0.601979 0
M  V30 428 O 42.3948 1.75653 0.448961 0
M  V30 429 C 42.4428 1.9125 -3.05705 0
M  V30 430 O 41.5468 3.00406 -2.82542 0
M  V30 431 H 40.8878 0.284045 -0.600179 0
M  V30 432 H 43.4178 0.269357 -2.02819 0
M  V30 433 H 43.4278 2.32737 -3.35108 0
M  V30 434 H 42.1028 1.33602 -3.93857 0
M  V30 435 H 40.6798 2.63056 -2.64303 0
M  V30 436 N 42.8649 1.48995 0.513639 0
M  V30 437 C 43.8279 1.64229 1.59879 0
M  V30 438 C 44.8279 0.514696 1.5234 0
M  V30 439 O 46.0179 0.78087 1.55718 0
M  V30 440 C 43.1499 1.62783 2.99524 0
M  V30 441 H 44.3429 2.61004 1.47705 0
M  V30 442 H 41.8959 1.37837 0.736936 0
M  V30 443 H 42.6309 0.675461 3.17188 0
M  V30 444 H 42.4159 2.4466 3.06404 0
M  V30 445 H 43.9059 1.76669 3.78388 0
M  V30 446 N 44.343 -0.763751 1.37857 0
M  V30 447 C 45.589 -1.52483 1.33704 0
M  V30 448 C 45.922 -1.94051 -0.0759612 0
M  V30 449 O 45.197 -1.64675 -1.03501 0
M  V30 450 C 45.48 -2.78441 2.28348 0
M  V30 451 C 45.333 -2.43075 3.78463 0
M  V30 452 C 46.652 -3.80415 2.21298 0
M  V30 453 H 43.771 -0.553169 0.487005 0
M  V30 454 H 46.413 -0.875562 1.68624 0
M  V30 455 H 44.563 -3.33842 1.987 0
M  V30 456 H 46.235 -1.93527 4.18742 0
M  V30 457 H 44.478 -1.75666 3.96641 0
M  V30 458 H 45.149 -3.33149 4.40132 0
M  V30 459 H 47.625 -3.34527 2.47449 0
M  V30 460 H 46.501 -4.66257 2.89647 0
M  V30 461 H 46.762 -4.25262 1.20849 0
M  V30 462 N 45.8211 -1.22559 -0.990812 0
M  V30 463 C 46.7531 -0.955325 -2.08342 0
M  V30 464 C 47.7661 0.0668408 -1.62663 0
M  V30 465 O 48.9551 -0.167421 -1.77713 0
M  V30 466 C 46.0551 -0.415566 -3.36342 0
M  V30 467 C 45.2281 -1.49544 -4.11042 0
M  V30 468 C 44.2871 -0.962399 -5.17324 0
M  V30 469 O 43.3131 -1.64907 -5.44788 0
M  V30 470 N 44.5151 0.215134 -5.80101 0
M  V30 471 H 47.2801 -1.89596 -2.32106 0
M  V30 472 H 44.8411 -1.13276 -1.15673 0
M  V30 473 H 46.8331 -0.0442386 -4.04676 0
M  V30 474 H 45.4031 0.430232 -3.09625 0
M  V30 475 H 44.6231 -2.04 -3.37309 0
M  V30 476 H 45.9111 -2.22195 -4.57719 0
M  V30 477 H 45.3091 0.789779 -5.6016 0
M  V30 478 H 43.8661 0.527826 -6.49659 0
M  V30 479 N 47.2992 1.18797 -1.03562 0
M  V30 480 C 48.2462 2.22253 -0.622259 0
M  V30 481 C 49.2162 1.61987 0.36736 0
M  V30 482 O 50.4012 1.88986 0.262492 0
M  V30 483 C 47.5412 3.45097 0.0138462 0
M  V30 484 C 46.6542 4.19722 -1.02263 0
M  V30 485 C 45.7892 5.30009 -0.355573 0
M  V30 486 C 44.8282 5.96399 -1.37749 0
M  V30 487 N 43.9652 6.98234 -0.735766 0
M  V30 488 H 48.8052 2.56968 -1.50903 0
M  V30 489 H 46.3422 1.26245 -0.755017 0
M  V30 490 H 48.3002 4.15279 0.399948 0
M  V30 491 H 46.9302 3.11018 0.864158 0
M  V30 492 H 45.9822 3.48418 -1.52673 0
M  V30 493 H 47.2942 4.65227 -1.79903 0
M  V30 494 H 46.4482 6.0664 0.0850095 0
M  V30 495 H 45.1872 4.85592 0.452967 0
M  V30 496 H 44.1922 5.18512 -1.82826 0
M  V30 497 H 45.4172 6.42899 -2.18764 0
M  V30 498 H 43.3632 6.55979 0.0525597 0
M  V30 499 H 43.2802 7.41965 -1.44995 0
M  V30 500 H 44.5482 7.78845 -0.31941 0
M  V30 501 N 48.7773 0.814389 1.34928 0
M  V30 502 C 49.7073 0.244827 2.32213 0
M  V30 503 C 50.6883 -0.634024 1.57842 0
M  V30 504 O 51.8733 -0.562676 1.8587 0
M  V30 505 C 49.0033 -0.601106 3.42058 0
M  V30 506 C 47.9573 0.179896 4.27622 0
M  V30 507 C 47.2833 -0.788237 5.28858 0
M  V30 508 C 48.5833 1.38329 5.03649 0
M  V30 509 H 50.2773 1.05763 2.80097 0
M  V30 510 H 47.8233 0.510029 1.34665 0
M  V30 511 H 49.7763 -1.00968 4.09125 0
M  V30 512 H 48.5003 -1.44688 2.92802 0
M  V30 513 H 47.1593 0.569739 3.62146 0
M  V30 514 H 46.8073 -1.62973 4.75866 0
M  V30 515 H 46.5073 -0.269942 5.8698 0
M  V30 516 H 48.0313 -1.19485 5.98795 0
M  V30 517 H 49.4453 1.04918 5.63618 0
M  V30 518 H 47.8423 1.83662 5.71304 0
M  V30 519 H 48.9123 2.16592 4.33839 0
M  V30 520 N 50.2554 -1.46986 0.568584 0
M  V30 521 C 51.5324 -1.95592 -0.0174074 0
M  V30 522 C 51.9124 -1.51124 -1.47393 0
M  V30 523 O 51.2604 -0.755329 -2.15655 0
M  V30 524 C 51.4704 -3.48719 0.139913 0
M  V30 525 C 52.8184 -4.246 0.000426376 0
M  V30 526 O 53.8424 -3.56135 0.0680316 0
M  V30 527 O 52.7014 -5.46302 -0.146988 0
M  V30 528 H 49.7954 -0.82498 -0.0577599 0
M  V30 529 H 52.3414 -1.57335 0.635909 0
M  V30 530 H 51.1134 -3.73927 1.15301 0
M  V30 531 H 50.7364 -3.93771 -0.550491 0
M  V30 532 N 51.7335 -0.305618 -1.54608 0
M  V30 533 C 52.9805 0.302298 -2.00231 0
M  V30 534 C 53.3085 1.5354 -1.19398 0
M  V30 535 O 52.5635 1.93973 -0.259423 0
M  V30 536 C 52.8625 0.698983 -3.50498 0
M  V30 537 C 52.5285 -0.432903 -4.48817 0
M  V30 538 C 51.1905 -0.743622 -4.75419 0
M  V30 539 C 53.5425 -1.19409 -5.07337 0
M  V30 540 C 50.8705 -1.81857 -5.57804 0
M  V30 541 C 53.2225 -2.25899 -5.90891 0
M  V30 542 C 51.8865 -2.57572 -6.15803 0
M  V30 543 H 51.1565 0.110619 -0.732697 0
M  V30 544 H 53.8035 -0.425674 -1.86709 0
M  V30 545 H 52.1085 1.50711 -3.61654 0
M  V30 546 H 53.8055 1.1806 -3.83227 0
M  V30 547 H 50.3955 -0.18063 -4.28219 0
M  V30 548 H 54.5795 -0.967295 -4.86782 0
M  V30 549 H 49.8355 -2.06864 -5.75341 0
M  V30 550 H 54.0095 -2.85335 -6.35261 0
M  V30 551 H 51.6365 -3.40998 -6.7943 0
M  V30 552 N 53.2116 1.57565 -0.0334293 0
M  V30 553 C 54.4366 1.96689 0.657895 0
M  V30 554 C 54.8616 0.910057 1.64619 0
M  V30 555 O 54.2196 -0.128598 1.80843 0
M  V30 556 C 54.2676 3.34905 1.33683 0
M  V30 557 O 53.3716 3.31574 2.45219 0
M  V30 558 H 52.7126 0.641205 0.172489 0
M  V30 559 H 55.2426 2.04372 -0.0965621 0
M  V30 560 H 55.2526 3.71234 1.69262 0
M  V30 561 H 53.9276 4.11366 0.612411 0
M  V30 562 H 52.5046 3.06968 2.11719 0
M  V30 563 N 54.6897 -0.239769 1.55765 0
M  V30 564 C 55.9667 -0.990056 1.68693 0
M  V30 565 C 56.3467 -2.03107 0.5754 0
M  V30 566 O 55.6947 -2.24604 -0.42017 0
M  V30 567 C 55.9047 -1.61696 3.09282 0
M  V30 568 C 57.2527 -2.11613 3.6811 0
M  V30 569 O 58.2767 -1.71624 3.12127 0
M  V30 570 O 57.1357 -2.85057 4.66267 0
M  V30 571 H 54.2297 -0.461299 0.686391 0
M  V30 572 H 56.7757 -0.232991 1.68093 0
M  V30 573 H 55.5477 -0.864357 3.81634 0
M  V30 574 H 55.1707 -2.44005 3.13923 0
M  V30 575 N 56.1678 -1.49265 -0.50573 0
M  V30 576 C 57.3958 -1.62215 -1.28429 0
M  V30 577 C 57.8108 -0.291697 -1.86533 0
M  V30 578 O 57.1678 0.722233 -1.67601 0
M  V30 579 C 57.2188 -2.68735 -2.41793 0
M  V30 580 O 56.9398 -3.96619 -1.86078 0
M  V30 581 C 58.4408 -2.92346 -3.3324 0
M  V30 582 H 55.6608 -0.546239 -0.389697 0
M  V30 583 H 58.2048 -1.95265 -0.607609 0
M  V30 584 H 56.3598 -2.38476 -3.053 0
M  V30 585 H 56.7738 -4.55256 -2.60465 0
M  V30 586 H 58.2478 -3.70623 -4.09075 0
M  V30 587 H 58.7248 -2.02081 -3.89948 0
M  V30 588 H 59.3308 -3.24003 -2.75503 0
M  V30 589 N 57.6459 0.756429 -1.3826 0
M  V30 590 C 58.5789 1.87802 -1.29637 0
M  V30 591 C 59.5569 1.61667 -0.173939 0
M  V30 592 O 60.7409 1.85208 -0.350775 0
M  V30 593 C 57.8679 3.23354 -1.00797 0
M  V30 594 C 56.9139 3.68379 -2.14939 0
M  V30 595 S 57.7469 3.8025 -3.77054 0
M  V30 596 C 58.9029 5.18626 -3.50396 0
M  V30 597 H 59.1359 1.94829 -2.24564 0
M  V30 598 H 56.6689 0.919117 -1.24063 0
M  V30 599 H 58.6269 4.01637 -0.848413 0
M  V30 600 H 57.2879 3.14008 -0.0759369 0
M  V30 601 H 56.4809 4.66693 -1.90299 0
M  V30 602 H 56.0829 2.97242 -2.26988 0
M  V30 603 H 58.3749 6.04289 -3.06334 0
M  V30 604 H 59.3179 5.48286 -4.48094 0
M  V30 605 H 59.7259 4.87289 -2.84973 0
M  V30 606 N 59.124 1.23083 0.984299 0
M  V30 607 C 60.37 1.06214 1.72761 0
M  V30 608 C 60.703 -0.400584 1.90024 0
M  V30 609 O 59.978 -1.29672 1.44967 0
M  V30 610 C 60.261 1.78375 3.12817 0
M  V30 611 C 60.114 3.32296 3.03149 0
M  V30 612 C 61.433 1.54309 4.12161 0
M  V30 613 H 58.552 0.387251 0.627061 0
M  V30 614 H 61.194 1.51536 1.14616 0
M  V30 615 H 59.344 1.39848 3.62457 0
M  V30 616 H 61.016 3.8032 2.61064 0
M  V30 617 H 59.259 3.6153 2.39747 0
M  V30 618 H 59.93 3.77972 4.02295 0
M  V30 619 H 62.406 1.87791 3.71314 0
M  V30 620 H 61.282 2.07281 5.08258 0
M  V30 621 H 61.543 0.477572 4.39513 0
M  V30 622 N 60.6021 -1.18246 1.0419 0
M  V30 623 C 61.5341 -2.2142 0.592088 0
M  V30 624 C 62.5471 -1.59233 -0.338909 0
M  V30 625 O 63.7361 -1.78002 -0.133231 0
M  V30 626 C 60.8361 -3.38546 -0.154854 0
M  V30 627 C 60.0091 -4.3031 0.784328 0
M  V30 628 C 59.0681 -5.26138 0.0804583 0
M  V30 629 O 58.0941 -5.64738 0.711292 0
M  V30 630 N 59.2961 -5.68261 -1.18574 0
M  V30 631 H 62.0611 -2.60636 1.47949 0
M  V30 632 H 59.6221 -1.33044 0.922544 0
M  V30 633 H 61.6141 -3.99678 -0.635606 0
M  V30 634 H 60.1841 -2.98012 -0.943811 0
M  V30 635 H 59.4041 -3.66764 1.44491 0
M  V30 636 H 60.6921 -4.8852 1.42218 0
M  V30 637 H 60.0901 -5.38957 -1.71876 0
M  V30 638 H 58.6471 -6.31584 -1.61074 0
M  V30 639 N 62.0802 -0.821533 -1.34494 0
M  V30 640 C 63.0122 -0.199946 -2.28326 0
M  V30 641 C 64.0252 0.609377 -1.50965 0
M  V30 642 O 65.2142 0.439285 -1.7301 0
M  V30 643 C 62.3142 0.738431 -3.30757 0
M  V30 644 C 61.4872 -0.0277632 -4.37391 0
M  V30 645 C 60.5462 0.831332 -5.19591 0
M  V30 646 O 59.5722 0.276822 -5.68526 0
M  V30 647 N 60.7742 2.15132 -5.39165 0
M  V30 648 H 63.5392 -1.00609 -2.82308 0
M  V30 649 H 61.1002 -0.678366 -1.47003 0
M  V30 650 H 63.0922 1.31773 -3.82646 0
M  V30 651 H 61.6622 1.44533 -2.7718 0
M  V30 652 H 60.8822 -0.788359 -3.86236 0
M  V30 653 H 62.1702 -0.555251 -5.05761 0
M  V30 654 H 61.5682 2.62559 -5.01078 0
M  V30 655 H 60.1252 2.6795 -5.94177 0
M  V30 656 N 63.5583 1.46682 -0.576371 0
M  V30 657 C 64.5053 2.30241 0.160499 0
M  V30 658 C 65.4753 1.40233 0.890162 0
M  V30 659 O 66.6603 1.69186 0.882084 0
M  V30 660 C 63.8003 3.24578 1.1723 0
M  V30 661 C 62.9133 4.29684 0.446736 0
M  V30 662 C 62.0483 5.11154 1.44551 0
M  V30 663 C 61.0873 6.08015 0.70599 0
M  V30 664 N 60.2243 6.82376 1.65251 0
M  V30 665 H 65.0643 2.92727 -0.558127 0
M  V30 666 H 62.6013 1.44272 -0.287056 0
M  V30 667 H 64.5593 3.77711 1.77172 0
M  V30 668 H 63.1893 2.63916 1.85872 0
M  V30 669 H 62.2413 3.79458 -0.267594 0
M  V30 670 H 63.5533 4.98626 -0.131686 0
M  V30 671 H 62.7073 5.68533 2.11791 0
M  V30 672 H 61.4463 4.42158 2.05786 0
M  V30 673 H 60.4513 5.49796 0.0197725 0
M  V30 674 H 61.6763 6.79028 0.09912 0
M  V30 675 H 59.6223 6.16094 2.25308 0
M  V30 676 H 59.5393 7.47556 1.12673 0
M  V30 677 H 60.8073 7.44316 2.31546 0
M  V30 678 N 65.0364 0.313813 1.54444 0
M  V30 679 C 65.9664 -0.549454 2.26943 0
M  V30 680 C 66.9474 -1.12741 1.27372 0
M  V30 681 O 68.1324 -1.15436 1.56167 0
M  V30 682 C 65.2624 -1.71523 3.01989 0
M  V30 683 C 64.2164 -1.26703 4.08816 0
M  V30 684 C 63.5424 -2.51898 4.71647 0
M  V30 685 C 64.8424 -0.388962 5.2085 0
M  V30 686 H 66.5364 0.0552661 2.99349 0
M  V30 687 H 64.0824 0.0280207 1.43973 0
M  V30 688 H 66.0354 -2.32535 3.51433 0
M  V30 689 H 64.7594 -2.34639 2.27183 0
M  V30 690 H 63.4184 -0.679896 3.6024 0
M  V30 691 H 63.0664 -3.13356 3.93468 0
M  V30 692 H 62.7664 -2.22605 5.43802 0
M  V30 693 H 64.2904 -3.1369 5.23861 0
M  V30 694 H 65.7044 -0.905107 5.6611 0
M  V30 695 H 64.1014 -0.18924 5.99802 0
M  V30 696 H 65.1714 0.582699 4.81386 0
M  V30 697 N 66.5145 -1.57545 0.0417849 0
M  V30 698 C 67.7915 -1.83642 -0.673433 0
M  V30 699 C 68.1715 -0.928298 -1.89594 0
M  V30 700 O 67.5195 0.0129955 -2.28496 0
M  V30 701 C 67.7295 -3.33155 -1.03964 0
M  V30 702 C 69.0775 -3.99941 -1.42592 0
M  V30 703 O 70.1015 -3.37725 -1.13226 0
M  V30 704 O 68.9605 -5.09619 -1.9736 0
M  V30 705 H 66.0545 -0.757638 -0.331533 0
M  V30 706 H 68.6005 -1.69554 0.070433 0
M  V30 707 H 67.3725 -3.9093 -0.170098 0
M  V30 708 H 66.9955 -3.52396 -1.84126 0
M  V30 709 N 67.9926 0.231505 -1.5589 0
M  V30 710 C 69.2696 0.981096 -1.69215 0
M  V30 711 C 69.6496 2.02799 -0.586164 0
M  V30 712 O 68.9976 2.24823 0.408253 0
M  V30 713 C 69.2076 1.60054 -3.10135 0
M  V30 714 C 70.5556 2.09658 -3.69227 0
M  V30 715 O 71.5796 1.69967 -3.13033 0
M  V30 716 O 70.4386 2.8258 -4.67772 0
M  V30 717 H 67.5326 0.457653 -0.688827 0
M  V30 718 H 70.0786 0.224073 -1.68214 0
M  V30 719 H 68.8506 0.844105 -3.82087 0
M  V30 720 H 68.4736 2.42336 -3.15212 0
M  V30 721 N 69.4707 1.49531 0.497807 0
M  V30 722 C 70.7197 1.58426 1.24837 0
M  V30 723 C 71.0327 0.277643 1.93619 0
M  V30 724 O 72.2387 0.24517 2.70391 0
M  V30 725 C 70.6947 2.79538 2.26686 0
M  V30 726 C 70.3027 4.16971 1.63828 0
M  V30 727 C 72.0467 2.97764 3.0255 0
M  V30 728 C 69.9537 5.29301 2.63807 0
M  V30 729 H 68.8837 0.58989 0.469623 0
M  V30 730 H 71.5347 1.75923 0.521857 0
M  V30 731 H 69.9167 2.55542 3.02514 0
M  V30 732 H 71.0907 4.51116 0.939711 0
M  V30 733 H 69.4057 4.04129 1.00342 0
M  V30 734 H 72.0027 3.78856 3.77323 0
M  V30 735 H 72.3457 2.08448 3.60354 0
M  V30 736 H 72.8787 3.21815 2.33838 0
M  V30 737 H 69.6177 6.20687 2.10779 0
M  V30 738 H 69.1377 4.99606 3.31894 0
M  V30 739 H 70.8167 5.58768 3.2617 0
M  V30 740 N 70.9488 -0.749086 1.3866 0
M  V30 741 C 71.8958 -1.86291 1.36251 0
M  V30 742 C 72.8658 -1.64578 0.224347 0
M  V30 743 O 74.0508 -1.86181 0.417279 0
M  V30 744 C 71.1908 -3.23644 1.19786 0
M  V30 745 C 70.3038 -3.57158 2.43027 0
M  V30 746 C 69.4388 -4.83838 2.19258 0
M  V30 747 C 68.4778 -5.10152 3.38247 0
M  V30 748 N 67.6148 -6.28029 3.13884 0
M  V30 749 H 72.4548 -1.87685 2.3147 0
M  V30 750 H 69.9918 -0.917287 1.14997 0
M  V30 751 H 71.9498 -4.0291 1.08254 0
M  V30 752 H 70.5798 -3.21566 0.282031 0
M  V30 753 H 69.6318 -2.72701 2.65214 0
M  V30 754 H 70.9438 -3.7253 3.31697 0
M  V30 755 H 70.0978 -5.71057 2.04888 0
M  V30 756 H 68.8368 -4.70614 1.2796 0
M  V30 757 H 67.8418 -4.21401 3.53131 0
M  V30 758 H 69.0668 -5.25271 4.30427 0
M  V30 759 H 67.0128 -6.1612 2.25238 0
M  V30 760 H 66.9298 -6.43922 3.96106 0
M  V30 761 H 68.1978 -7.18124 3.03179 0
M  V30 762 N 72.4269 -1.23603 -0.977757 0
M  V30 763 C 73.7039 -0.977897 -1.69401 0
M  V30 764 C 74.0839 0.502738 -2.05026 0
M  V30 765 O 73.4319 1.47459 -1.74551 0
M  V30 766 C 73.6419 -1.89077 -2.93345 0
M  V30 767 C 74.9899 -2.15579 -3.65802 0
M  V30 768 O 76.0139 -1.86648 -3.03383 0
M  V30 769 O 74.8729 -2.64658 -4.78141 0
M  V30 770 H 71.9669 -0.369025 -0.740101 0
M  V30 771 H 74.5129 -1.34657 -1.03274 0
M  V30 772 H 73.2849 -2.89158 -2.63634 0
M  V30 773 H 72.9079 -1.52463 -3.67207 0
M  V30 774 N 73.905 1.17692 -1.04816 0
M  V30 775 C 75.321 1.39863 -0.768794 0
M  V30 776 C 75.521 1.91118 0.638451 0
M  V30 777 O 74.577 2.10036 1.40146 0
M  V30 778 C 75.89 2.39274 -1.82122 0
M  V30 779 C 77.438 2.52987 -1.843 0
M  V30 780 C 77.913 3.55669 -2.88555 0
M  V30 781 N 79.404 3.63183 -2.87493 0
M  V30 782 C 80.139 4.42381 -3.64811 0
M  V30 783 N 79.635 5.25125 -4.51903 0
M  V30 784 N 81.428 4.37217 -3.53267 0
M  V30 785 H 73.579 0.82752 -1.95617 0
M  V30 786 H 75.842 0.426123 -0.846831 0
M  V30 787 H 75.548 2.08678 -2.83102 0
M  V30 788 H 75.422 3.38725 -1.65967 0
M  V30 789 H 77.809 2.82896 -0.839869 0
M  V30 790 H 77.89 1.53623 -2.04532 0
M  V30 791 H 77.534 3.26499 -3.89051 0
M  V30 792 H 77.464 4.54728 -2.65575 0
M  V30 793 H 79.955 3.04103 -2.24343 0
M  V30 794 H 80.268 5.82728 -5.07591 0
M  V30 795 H 78.613 5.24519 -4.55966 0
M  V30 796 H 81.804 3.71626 -2.84625 0
M  V30 797 H 81.977 4.98696 -4.13771 0
M  V30 798 N 75.3831 0.828654 1.34056 0
M  V30 799 C 76.6321 0.415828 1.97367 0
M  V30 800 C 76.9451 -1.02796 1.6641 0
M  V30 801 O 78.1511 -1.54497 2.23255 0
M  V30 802 C 76.6071 0.692601 3.53173 0
M  V30 803 C 76.2151 2.15038 3.93017 0
M  V30 804 C 77.9591 0.346222 4.23086 0
M  V30 805 C 75.8661 2.37174 5.41758 0
M  V30 806 H 74.7961 0.151755 0.738571 0
M  V30 807 H 77.4471 1.01581 1.52819 0
M  V30 808 H 75.8291 0.0223764 3.95994 0
M  V30 809 H 77.0031 2.86024 3.61285 0
M  V30 810 H 75.3181 2.45875 3.36057 0
M  V30 811 H 77.9151 0.48937 5.32456 0
M  V30 812 H 78.2581 -0.709842 4.10204 0
M  V30 813 H 78.7911 0.971258 3.85761 0
M  V30 814 H 75.5301 3.41308 5.59633 0
M  V30 815 H 75.0501 1.70738 5.74986 0
M  V30 816 H 76.7291 2.19818 6.08514 0
M  V30 817 N 76.8612 -1.46375 0.584142 0
M  V30 818 C 77.8082 -2.30323 -0.148286 0
M  V30 819 C 78.7782 -1.40703 -0.882713 0
M  V30 820 O 79.9632 -1.69651 -0.873099 0
M  V30 821 C 77.1032 -3.25196 -1.15507 0
M  V30 822 C 76.2162 -4.29915 -0.423943 0
M  V30 823 C 75.3512 -5.11914 -1.41838 0
M  V30 824 C 74.3902 -6.08381 -0.673736 0
M  V30 825 N 73.5272 -6.83242 -1.6163 0
M  V30 826 H 78.3672 -2.92427 0.573644 0
M  V30 827 H 75.9042 -1.44118 0.294703 0
M  V30 828 H 77.8622 -3.78646 -1.75166 0
M  V30 829 H 76.4922 -2.64898 -1.8447 0
M  V30 830 H 75.5442 -3.7931 0.287714 0
M  V30 831 H 76.8562 -4.98549 0.158128 0
M  V30 832 H 76.0102 -5.69648 -2.08773 0
M  V30 833 H 74.7492 -4.43243 -2.03438 0
M  V30 834 H 73.7542 -5.49799 0.00938483 0
M  V30 835 H 74.9792 -6.79071 -0.0631082 0
M  V30 836 H 72.9252 -6.1728 -2.22038 0
M  V30 837 H 72.8422 -7.48144 -1.08707 0
M  V30 838 H 74.1102 -7.45534 -2.27596 0
M  V30 839 N 78.3393 -0.321999 -1.54275 0
M  V30 840 C 79.7553 0.0306999 -1.5957 0
M  V30 841 C 79.9553 1.50614 -1.33857 0
M  V30 842 O 79.0113 2.2619 -1.12223 0
M  V30 843 C 80.3243 -0.386122 -2.98211 0
M  V30 844 C 81.8723 -0.336647 -3.11184 0
M  V30 845 C 82.3473 -0.728607 -4.52167 0
M  V30 846 N 83.8383 -0.681952 -4.58152 0
M  V30 847 C 84.5733 -0.957449 -5.6535 0
M  V30 848 N 84.0693 -1.3 -6.80494 0
M  V30 849 N 85.8623 -0.883113 -5.55119 0
M  V30 850 H 78.0133 -1.28332 -1.69247 0
M  V30 851 H 80.2763 -0.521716 -0.791528 0
M  V30 852 H 79.9823 -1.41404 -3.22022 0
M  V30 853 H 79.8563 0.249662 -3.76373 0
M  V30 854 H 82.2433 0.682058 -2.8711 0
M  V30 855 H 82.3243 -1.00734 -2.3513 0
M  V30 856 H 81.9683 -1.74522 -4.76974 0
M  V30 857 H 81.8983 -0.0356152 -5.26588 0
M  V30 858 H 84.3893 -0.428985 -3.75457 0
M  V30 859 H 84.7023 -1.49563 -7.58189 0
M  V30 860 H 83.0473 -1.33824 -6.81994 0
M  V30 861 H 86.2383 -0.615001 -4.64042 0
M  V30 862 H 86.4113 -1.10118 -6.38575 0
M  V30 863 N 79.8174 1.5752 -0.0501392 0
M  V30 864 C 80.7274 2.14952 0.939827 0
M  V30 865 C 81.7434 1.10706 1.34239 0
M  V30 866 O 82.9194 1.42869 1.41952 0
M  V30 867 C 79.9844 2.68232 2.19665 0
M  V30 868 C 79.0454 3.87272 1.85253 0
M  V30 869 C 78.2784 4.38002 3.04943 0
M  V30 870 O 78.5014 3.87811 4.18281 0
M  V30 871 O 77.4354 5.29602 2.86017 0
M  V30 872 H 81.2614 2.9986 0.481392 0
M  V30 873 H 78.8464 1.4841 0.171699 0
M  V30 874 H 80.7284 3.02475 2.93406 0
M  V30 875 H 79.4034 1.86395 2.64648 0
M  V30 876 H 78.3104 3.5792 1.0883 0
M  V30 877 H 79.6434 4.70336 1.4507 0
M  V30 878 N 81.2955 -0.223234 1.56011 0
M  V30 879 C 82.5445 -0.945912 1.78144 0
M  V30 880 C 82.8575 -1.85567 0.618396 0
M  V30 881 O 84.0635 -2.61688 0.723318 0
M  V30 882 C 82.5195 -1.73216 3.15475 0
M  V30 883 C 82.1275 -0.868619 4.39499 0
M  V30 884 C 83.8715 -2.44615 3.46935 0
M  V30 885 C 81.7785 -1.65212 5.67855 0
M  V30 886 H 80.7085 -0.356929 0.664167 0
M  V30 887 H 83.3595 -0.199845 1.82409 0
M  V30 888 H 81.7415 -2.52107 3.05382 0
M  V30 889 H 82.9155 -0.120366 4.60643 0
M  V30 890 H 81.2305 -0.26683 4.15544 0
M  V30 891 H 83.8275 -3.03732 4.40058 0
M  V30 892 H 84.1705 -3.17417 2.69355 0
M  V30 893 H 84.7035 -1.72715 3.58349 0
M  V30 894 H 81.4425 -0.967407 6.48322 0
M  V30 895 H 80.9625 -2.37503 5.50774 0
M  V30 896 H 82.6415 -2.21322 6.07968 0
M  V30 897 N 82.7736 -1.49793 -0.48987 0
M  V30 898 C 84.1896 -1.36803 -0.822022 0
M  V30 899 C 84.3896 -0.409652 -1.97292 0
M  V30 900 O 83.4456 0.154614 -2.52026 0
M  V30 901 C 84.7586 -2.77768 -1.15175 0
M  V30 902 C 86.3066 -2.86549 -1.25931 0
M  V30 903 C 86.7816 -4.28306 -1.62228 0
M  V30 904 N 88.2726 -4.31169 -1.69256 0
M  V30 905 C 89.0076 -5.37832 -1.98807 0
M  V30 906 N 88.5036 -6.54726 -2.26507 0
M  V30 907 N 90.2966 -5.25258 -2.00152 0
M  V30 908 H 82.4476 -2.10691 0.268881 0
M  V30 909 H 84.7106 -0.946241 0.057728 0
M  V30 910 H 84.4166 -3.49648 -0.379335 0
M  V30 911 H 84.2906 -3.13836 -2.09253 0
M  V30 912 H 86.6776 -2.14899 -2.02243 0
M  V30 913 H 86.7586 -2.54049 -0.298776 0
M  V30 914 H 86.4026 -5.00486 -0.864622 0
M  V30 915 H 86.3326 -4.58279 -2.594 0
M  V30 916 H 88.8236 -3.4687 -1.49965 0
M  V30 917 H 89.1366 -7.31833 -2.48276 0
M  V30 918 H 87.4816 -6.57933 -2.23939 0
M  V30 919 H 90.6726 -4.32938 -1.77996 0
M  V30 920 H 90.8456 -6.08476 -2.22848 0
M  V30 921 N 84.2517 0.741722 -1.39055 0
M  V30 922 C 85.1987 1.85566 -1.37237 0
M  V30 923 C 86.1687 1.64457 -0.233072 0
M  V30 924 O 87.3537 1.85957 -0.427147 0
M  V30 925 C 84.4937 3.23004 -1.215 0
M  V30 926 C 83.6067 3.55864 -2.44918 0
M  V30 927 C 82.7417 4.82669 -2.21821 0
M  V30 928 C 81.7807 5.08351 -3.40948 0
M  V30 929 N 80.9177 6.26356 -3.17211 0
M  V30 930 H 85.7577 1.86455 -2.32462 0
M  V30 931 H 83.2947 0.911176 -1.15482 0
M  V30 932 H 85.2527 4.02331 -1.10389 0
M  V30 933 H 83.8827 3.21411 -0.29908 0
M  V30 934 H 82.9347 2.7129 -2.66657 0
M  V30 935 H 84.2467 3.70765 -3.33668 0
M  V30 936 H 83.4007 5.69962 -2.07914 0
M  V30 937 H 82.1397 4.69929 -1.30454 0
M  V30 938 H 81.1447 4.19522 -3.55361 0
M  V30 939 H 82.3697 5.22981 -4.33207 0
M  V30 940 H 80.3157 6.14917 -2.28502 0
M  V30 941 H 80.2327 6.41813 -3.99515 0
M  V30 942 H 81.5007 7.16506 -3.06984 0
M  V30 943 N 85.7298 1.2412 0.971189 0
M  V30 944 C 86.6398 1.04747 2.09917 0
M  V30 945 C 87.6558 -0.0107162 1.73997 0
M  V30 946 O 88.8318 0.186714 2.00533 0
M  V30 947 C 85.8968 0.650828 3.40537 0
M  V30 948 C 84.9578 1.7851 3.90426 0
M  V30 949 C 84.1908 1.40729 5.14812 0
M  V30 950 O 84.4138 0.29557 5.69634 0
M  V30 951 O 83.3478 2.23168 5.58999 0
M  V30 952 H 87.1738 1.99304 2.29154 0
M  V30 953 H 84.7588 1.02908 1.08307 0
M  V30 954 H 86.6408 0.440992 4.19086 0
M  V30 955 H 85.3158 -0.265649 3.22608 0
M  V30 956 H 84.2228 2.04966 3.12953 0
M  V30 957 H 85.5558 2.68023 4.12825 0
M  V30 958 N 87.2079 -1.17134 1.05439 0
M  V30 959 C 88.1379 -2.2342 0.678649 0
M  V30 960 C 89.1189 -1.66971 -0.32476 0
M  V30 961 O 90.3039 -1.93149 -0.201802 0
M  V30 962 C 87.4339 -3.47256 0.0552099 0
M  V30 963 C 86.3879 -4.16543 0.98365 0
M  V30 964 C 85.7139 -5.34231 0.223961 0
M  V30 965 C 87.0139 -4.68495 2.3089 0
M  V30 966 H 88.7079 -2.55105 1.56722 0
M  V30 967 H 86.2539 -1.2262 0.754998 0
M  V30 968 H 88.2069 -4.20828 -0.21946 0
M  V30 969 H 86.9309 -3.14846 -0.868319 0
M  V30 970 H 85.5899 -3.44887 1.24293 0
M  V30 971 H 85.2379 -4.98071 -0.702412 0
M  V30 972 H 84.9379 -5.81527 0.842627 0
M  V30 973 H 86.4619 -6.10585 -0.0433671 0
M  V30 974 H 87.8759 -5.33691 2.09396 0
M  V30 975 H 86.2729 -5.26379 2.88176 0
M  V30 976 H 87.3429 -3.85169 2.94572 0
M  V30 977 N 88.686 -0.835752 -1.33615 0
M  V30 978 C 89.633 -0.26473 -2.29277 0
M  V30 979 C 90.603 0.617712 -1.54187 0
M  V30 980 O 91.788 0.556641 -1.825 0
M  V30 981 C 88.928 0.556777 -3.40579 0
M  V30 982 C 88.041 -0.349339 -4.30585 0
M  V30 983 C 87.176 0.482969 -5.29 0
M  V30 984 C 86.215 -0.421732 -6.10645 0
M  V30 985 N 85.352 0.372262 -7.01112 0
M  V30 986 H 90.192 -1.08582 -2.77514 0
M  V30 987 H 87.729 -0.546927 -1.36554 0
M  V30 988 H 89.687 1.04852 -4.03809 0
M  V30 989 H 88.317 1.34286 -2.93542 0
M  V30 990 H 87.369 -0.959372 -3.68104 0
M  V30 991 H 88.681 -1.04445 -4.87742 0
M  V30 992 H 87.835 1.03866 -5.97743 0
M  V30 993 H 86.574 1.21153 -4.72412 0
M  V30 994 H 85.579 -0.989464 -5.40823 0
M  V30 995 H 86.804 -1.14861 -6.69316 0
M  V30 996 H 84.75 1.08426 -6.46977 0
M  V30 997 H 84.667 -0.264198 -7.55538 0
M  V30 998 H 85.935 0.910293 -7.74167 0
M  V30 999 N 90.1641 1.46063 -0.591896 0
M  V30 1000 C 91.4131 2.01547 -0.0786637 0
M  V30 1001 C 91.7261 1.46796 1.29268 0
M  V30 1002 O 92.9321 1.94157 1.89777 0
M  V30 1003 C 91.3881 3.59787 -0.0900024 0
M  V30 1004 C 90.9961 4.23534 -1.46023 0
M  V30 1005 C 92.7401 4.22895 0.368806 0
M  V30 1006 C 90.6471 5.73881 -1.4288 0
M  V30 1007 H 89.5771 0.753564 -0.0256388 0
M  V30 1008 H 92.2281 1.677 -0.744905 0
M  V30 1009 H 90.6101 3.90752 0.642586 0
M  V30 1010 H 91.7841 4.04167 -2.21328 0
M  V30 1011 H 90.0991 3.72558 -1.85982 0
M  V30 1012 H 92.6961 5.33116 0.411258 0
M  V30 1013 H 93.0391 3.9247 1.38827 0
M  V30 1014 H 93.5721 3.9659 -0.31001 0
M  V30 1015 H 90.3111 6.0898 -2.42536 0
M  V30 1016 H 89.8311 5.95486 -0.718095 0
M  V30 1017 H 91.5101 6.36776 -1.14565 0
M  V30 1018 N 91.6422 0.330177 1.54103 0
M  V30 1019 C 92.5892 -0.532762 2.24567 0
M  V30 1020 C 93.5592 -1.10635 1.23892 0
M  V30 1021 O 94.7442 -1.14546 1.5259 0
M  V30 1022 C 91.8842 -1.6845 3.01195 0
M  V30 1023 C 90.9972 -1.13951 4.167 0
M  V30 1024 C 90.1322 -2.25746 4.80845 0
M  V30 1025 C 89.1712 -1.6853 5.88442 0
M  V30 1026 N 88.3082 -2.74014 6.46421 0
M  V30 1027 H 93.1482 0.0746905 2.97906 0
M  V30 1028 H 90.6852 0.048632 1.4702 0
M  V30 1029 H 92.6432 -2.36234 3.43874 0
M  V30 1030 H 91.2732 -2.26314 2.30178 0
M  V30 1031 H 90.3252 -0.35301 3.78758 0
M  V30 1032 H 91.6372 -0.680892 4.94131 0
M  V30 1033 H 90.7912 -3.01422 5.26526 0
M  V30 1034 H 89.5302 -2.74947 4.0281 0
M  V30 1035 H 88.5352 -0.913543 5.42157 0
M  V30 1036 H 89.7602 -1.20198 6.68378 0
M  V30 1037 H 87.7062 -3.22494 5.71256 0
M  V30 1038 H 87.6232 -2.32735 7.19285 0
M  V30 1039 H 88.8912 -3.49499 6.96757 0
M  V30 1040 N 93.1203 -1.57491 0.0584922 0
M  V30 1041 C 94.0303 -2.15448 -0.928414 0
M  V30 1042 C 95.0463 -1.11416 -1.3365 0
M  V30 1043 O 96.2223 -1.4362 -1.41193 0
M  V30 1044 C 93.2873 -2.69393 -2.18239 0
M  V30 1045 C 92.3483 -3.88249 -1.83196 0
M  V30 1046 C 91.5813 -4.39613 -3.02616 0
M  V30 1047 O 91.8043 -3.90023 -4.16219 0
M  V30 1048 O 90.7383 -5.31111 -2.83204 0
M  V30 1049 H 94.5643 -3.00112 -0.465483 0
M  V30 1050 H 92.1493 -1.48499 -0.163826 0
M  V30 1051 H 94.0313 -3.04026 -2.91798 0
M  V30 1052 H 92.7063 -1.87796 -2.63656 0
M  V30 1053 H 91.6133 -3.58492 -1.06931 0
M  V30 1054 H 92.9463 -4.71098 -1.42573 0
M  V30 1055 N 94.5984 0.214957 -1.56127 0
M  V30 1056 C 95.8464 0.936518 -1.79091 0
M  V30 1057 C 96.1674 1.84606 -0.628148 0
M  V30 1058 O 95.4374 1.92664 0.35462 0
M  V30 1059 H 94.0174 0.3488 -0.660566 0
M  V30 1060 H 96.6794 0.22523 -1.93594 0
M  V30 1061 H 95.7754 1.53943 -2.71492 0
M  V30 1062 N 96.0765 1.50051 0.48192 0
M  V30 1063 C 97.0395 1.67584 1.5636 0
M  V30 1064 C 98.0395 0.546894 1.51214 0
M  V30 1065 O 99.2295 0.813725 1.54026 0
M  V30 1066 C 96.3615 1.691 2.96003 0
M  V30 1067 H 97.5545 2.64078 1.42136 0
M  V30 1068 H 95.1075 1.39369 0.707533 0
M  V30 1069 H 95.8425 0.742589 3.15684 0
M  V30 1070 H 95.6275 2.51105 3.01146 0
M  V30 1071 H 97.1175 1.84656 3.74556 0
M  V30 1072 N 97.5546 -0.734337 1.39446 0
M  V30 1073 C 98.4646 -1.87879 1.40495 0
M  V30 1074 C 99.4806 -1.714 0.299672 0
M  V30 1075 O 100.657 -1.93991 0.541249 0
M  V30 1076 C 97.7216 -3.23477 1.24754 0
M  V30 1077 C 96.7826 -3.52344 2.45259 0
M  V30 1078 C 96.0156 -4.81473 2.30259 0
M  V30 1079 O 96.2386 -5.55237 1.30643 0
M  V30 1080 O 95.1726 -5.10254 3.19256 0
M  V30 1081 H 98.9986 -1.89949 2.36966 0
M  V30 1082 H 96.5836 -0.882243 1.20569 0
M  V30 1083 H 98.4656 -4.04509 1.18111 0
M  V30 1084 H 97.1406 -3.22176 0.313781 0
M  V30 1085 H 96.0476 -2.71396 2.57478 0
M  V30 1086 H 97.3806 -3.58426 3.37331 0
M  V30 1087 N 99.0327 -1.24633 -0.964593 0
M  V30 1088 C 99.9807 -1.03917 -2.08096 0
M  V30 1089 C 100.975 0.0268581 -1.69379 0
M  V30 1090 O 102.181 -0.127952 -1.79545 0
M  V30 1091 H 98.5557 -0.319044 -0.680966 0
M  V30 1092 H 100.527 -1.98581 -2.22729 0
M  V30 1093 C 99.2757 -0.663983 -3.41301 0
M  V30 1094 H 98.5987 -1.47605 -3.71555 0
M  V30 1095 H 100.039 -0.558663 -4.20303 0
M  V30 1096 C 98.4977 0.629169 -3.30973 0
M  V30 1097 O 99.0277 1.67404 -3.65156 0
M  V30 1098 N 97.2337 0.611057 -2.84103 0
M  V30 1099 H 96.7807 -0.239593 -2.56483 0
M  V30 1100 H 96.7387 1.47647 -2.77575 0
M  V30 1101 N 100.511 1.16574 -1.06058 0
M  V30 1102 C 101.441 2.23057 -0.690488 0
M  V30 1103 C 102.422 1.67141 0.315901 0
M  V30 1104 O 103.607 1.93253 0.191556 0
M  V30 1105 C 100.737 3.47222 -0.073625 0
M  V30 1106 C 99.6908 4.16016 -1.00573 0
M  V30 1107 C 99.0168 5.34104 -0.252289 0
M  V30 1108 C 100.317 4.67264 -2.33371 0
M  V30 1109 H 102.011 2.54271 -1.58072 0
M  V30 1110 H 99.5568 1.22218 -0.76149 0
M  V30 1111 H 101.51 4.20939 0.19714 0
M  V30 1112 H 100.234 3.15302 0.85161 0
M  V30 1113 H 98.8928 3.44223 -1.2612 0
M  V30 1114 H 98.5408 4.98437 0.675988 0
M  V30 1115 H 98.2408 5.81072 -0.873455 0
M  V30 1116 H 99.7648 6.10599 0.0109857 0
M  V30 1117 H 101.179 5.32573 -2.12223 0
M  V30 1118 H 99.5758 5.24843 -2.90963 0
M  V30 1119 H 100.646 3.83602 -2.96611 0
M  V30 1120 N 101.989 0.842826 1.3317 0
M  V30 1121 C 103.405 0.531128 1.50503 0
M  V30 1122 C 103.605 -0.940734 1.78192 0
M  V30 1123 O 102.661 -1.72436 1.84451 0
M  V30 1124 C 103.974 1.40789 2.65705 0
M  V30 1125 C 105.522 1.40708 2.79589 0
M  V30 1126 C 105.997 2.26878 3.97857 0
M  V30 1127 N 107.488 2.24609 4.05099 0
M  V30 1128 C 108.223 2.88019 4.95815 0
M  V30 1129 N 107.719 3.60496 5.9162 0
M  V30 1130 N 109.512 2.77469 4.88843 0
M  V30 1131 H 101.663 1.79557 1.1346 0
M  V30 1132 H 103.926 0.766267 0.558156 0
M  V30 1133 H 103.632 2.454 2.51936 0
M  V30 1134 H 103.506 1.08677 3.61205 0
M  V30 1135 H 105.893 0.368668 2.92788 0
M  V30 1136 H 105.974 1.76829 1.84838 0
M  V30 1137 H 105.618 3.3078 3.85418 0
M  V30 1138 H 105.548 1.88096 4.91861 0
M  V30 1139 H 108.039 1.71906 3.36536 0
M  V30 1140 H 108.352 4.06076 6.57512 0
M  V30 1141 H 106.697 3.64604 5.91683 0
M  V30 1142 H 109.888 2.20406 4.12963 0
M  V30 1143 H 110.061 3.2717 5.59342 0
M  V30 1144 N 103.467 -1.45747 0.599634 0
M  V30 1145 C 104.414 -2.30467 -0.123849 0
M  V30 1146 C 105.384 -1.41632 -0.86774 0
M  V30 1147 O 106.569 -1.70568 -0.855056 0
M  V30 1148 C 103.709 -3.26402 -1.12051 0
M  V30 1149 C 102.822 -4.3034 -0.37832 0
M  V30 1150 C 101.957 -5.13389 -1.364 0
M  V30 1151 C 100.996 -6.09061 -0.609171 0
M  V30 1152 N 100.133 -6.84918 -1.54374 0
M  V30 1153 H 104.973 -2.91802 0.604627 0
M  V30 1154 H 102.51 -1.43797 0.309972 0
M  V30 1155 H 104.468 -3.80482 -1.7114 0
M  V30 1156 H 103.098 -2.66839 -1.8165 0
M  V30 1157 H 102.15 -3.78984 0.327929 0
M  V30 1158 H 103.462 -4.98354 0.210997 0
M  V30 1159 H 102.616 -5.7183 -2.02719 0
M  V30 1160 H 101.355 -4.45376 -1.98725 0
M  V30 1161 H 100.36 -5.49758 0.0676979 0
M  V30 1162 H 101.585 -6.79099 0.00891991 0
M  V30 1163 H 99.531 -6.19601 -2.15478 0
M  V30 1164 H 99.448 -7.49254 -1.00766 0
M  V30 1165 H 100.716 -7.47906 -2.19676 0
M  V30 1166 N 104.945 -0.338344 -1.53925 0
M  V30 1167 C 106.191 0.260143 -2.01125 0
M  V30 1168 C 106.524 1.50617 -1.22589 0
M  V30 1169 O 105.799 1.91979 -0.312113 0
M  V30 1170 C 106.082 0.579499 -3.55407 0
M  V30 1171 C 105.935 -0.678264 -4.44657 0
M  V30 1172 C 107.254 1.39122 -4.17532 0
M  V30 1173 H 104.373 0.0930772 -0.731099 0
M  V30 1174 H 107.015 -0.457852 -1.84401 0
M  V30 1175 H 105.165 1.19118 -3.69788 0
M  V30 1176 H 106.837 -1.31631 -4.42121 0
M  V30 1177 H 105.08 -1.3042 -4.13731 0
M  V30 1178 H 105.751 -0.410143 -5.50474 0
M  V30 1179 H 108.227 0.874035 -4.06817 0
M  V30 1180 H 107.103 1.58342 -5.25565 0
M  V30 1181 H 107.364 2.39178 -3.71815 0
M  V30 1182 N 106.423 1.57458 -0.0668435 0
M  V30 1183 C 107.651 1.97624 0.612565 0
M  V30 1184 C 108.066 0.94502 1.63447 0
M  V30 1185 O 107.423 -0.0689276 1.8237 0
M  V30 1186 C 107.474 3.37869 1.28555 0
M  V30 1187 O 107.195 4.3704 0.304557 0
M  V30 1188 C 108.696 3.92882 2.05325 0
M  V30 1189 H 105.916 0.650045 0.166381 0
M  V30 1190 H 108.46 2.04035 -0.137782 0
M  V30 1191 H 106.615 3.3256 1.98702 0
M  V30 1192 H 107.029 5.18565 0.786779 0
M  V30 1193 H 108.503 4.93247 2.47812 0
M  V30 1194 H 108.98 3.29156 2.9078 0
M  V30 1195 H 109.586 4.01577 1.40056 0
M  V30 1196 N 107.901 -0.206675 1.56239 0
M  V30 1197 C 109.129 -0.945345 1.8404 0
M  V30 1198 C 109.544 -1.77336 0.647885 0
M  V30 1199 O 108.901 -1.78425 -0.383511 0
M  V30 1200 C 108.952 -1.8509 3.10522 0
M  V30 1201 O 108.673 -1.05634 4.25174 0
M  V30 1202 C 110.174 -2.70222 3.51418 0
M  V30 1203 H 107.394 -0.276372 0.61144 0
M  V30 1204 H 109.938 -0.217417 2.03341 0
M  V30 1205 H 108.093 -2.53259 2.93153 0
M  V30 1206 H 108.507 -1.67238 4.97124 0
M  V30 1207 H 109.981 -3.29438 4.42916 0
M  V30 1208 H 110.458 -3.43358 2.73864 0
M  V30 1209 H 111.064 -2.07443 3.71278 0
M  V30 1210 N 109.379 -1.50304 -0.473955 0
M  V30 1211 C 110.656 -1.51667 -1.23518 0
M  V30 1212 C 111.036 -0.259701 -2.09496 0
M  V30 1213 O 110.384 0.756986 -2.15597 0
M  V30 1214 C 110.594 -2.81082 -2.06868 0
M  V30 1215 C 111.942 -3.31631 -2.65153 0
M  V30 1216 O 112.966 -2.82384 -2.17113 0
M  V30 1217 O 111.825 -4.17471 -3.52675 0
M  V30 1218 H 108.919 -0.60822 -0.560355 0
M  V30 1219 H 111.465 -1.62592 -0.486011 0
M  V30 1220 H 110.237 -3.64041 -1.4349 0
M  V30 1221 H 109.86 -2.73146 -2.88924 0
M  V30 1222 N 110.857 0.726932 -1.39834 0
M  V30 1223 C 111.804 1.841 -1.39197 0
M  V30 1224 C 112.774 1.642 -0.250502 0
M  V30 1225 O 113.959 1.85494 -0.446846 0
M  V30 1226 C 111.099 3.21697 -1.24919 0
M  V30 1227 C 110.212 3.53247 -2.48678 0
M  V30 1228 C 109.347 4.80289 -2.26928 0
M  V30 1229 C 108.386 5.04707 -3.4632 0
M  V30 1230 N 107.523 6.22956 -3.23836 0
M  V30 1231 H 112.363 1.83979 -2.34427 0
M  V30 1232 H 109.9 0.898876 -1.16442 0
M  V30 1233 H 111.858 4.01137 -1.1465 0
M  V30 1234 H 110.488 3.21076 -0.333153 0
M  V30 1235 H 109.54 2.68447 -2.69519 0
M  V30 1236 H 110.852 3.67205 -3.37582 0
M  V30 1237 H 110.006 5.67725 -2.13947 0
M  V30 1238 H 108.745 4.68519 -1.35431 0
M  V30 1239 H 107.75 4.1573 -3.5979 0
M  V30 1240 H 108.975 5.18357 -4.38729 0
M  V30 1241 H 106.921 6.12459 -2.35011 0
M  V30 1242 H 106.838 6.37539 -4.063 0
M  V30 1243 H 108.106 7.1321 -3.14566 0
M  V30 1244 N 112.336 1.25143 0.95797 0
M  V30 1245 C 113.283 1.05235 2.05412 0
M  V30 1246 C 114.253 -0.0374561 1.66058 0
M  V30 1247 O 115.438 0.119073 1.90428 0
M  V30 1248 C 112.578 0.673589 3.38462 0
M  V30 1249 C 111.691 1.8379 3.90954 0
M  V30 1250 C 110.826 1.40381 5.12315 0
M  V30 1251 C 109.865 2.53746 5.57027 0
M  V30 1252 N 109.002 2.11136 6.69601 0
M  V30 1253 H 113.842 1.99048 2.21774 0
M  V30 1254 H 111.379 0.991277 1.08683 0
M  V30 1255 H 113.337 0.434964 4.14926 0
M  V30 1256 H 111.967 -0.227554 3.21997 0
M  V30 1257 H 111.019 2.18992 3.11041 0
M  V30 1258 H 112.331 2.68937 4.20089 0
M  V30 1259 H 111.485 1.12464 5.96185 0
M  V30 1260 H 110.224 0.523015 4.84887 0
M  V30 1261 H 109.229 2.82412 4.71724 0
M  V30 1262 H 110.454 3.42398 5.86464 0
M  V30 1263 H 108.4 1.25468 6.4389 0
M  V30 1264 H 108.317 2.89832 6.98236 0
M  V30 1265 H 109.585 1.86385 7.56889 0
M  V30 1266 N 113.814 -1.1601 1.06675 0
M  V30 1267 C 115.039 -1.91068 0.806706 0
M  V30 1268 C 115.464 -1.77112 -0.633485 0
M  V30 1269 O 114.822 -1.09908 -1.44187 0
M  V30 1270 C 114.87 -3.39655 1.21106 0
M  V30 1271 O 113.974 -4.10893 0.352189 0
M  V30 1272 H 113.315 -0.595125 0.294486 0
M  V30 1273 H 115.845 -1.46955 1.42356 0
M  V30 1274 H 115.855 -3.90434 1.18428 0
M  V30 1275 H 114.53 -3.49132 2.26008 0
M  V30 1276 H 113.107 -3.70285 0.440868 0
M  V30 1277 N 115.292 -0.849877 -1.32721 0
M  V30 1278 C 116.222 -0.306308 -2.31482 0
M  V30 1279 C 117.203 0.591952 -1.59468 0
M  V30 1280 O 118.388 0.513199 -1.87296 0
M  V30 1281 C 115.518 0.510204 -3.43532 0
M  V30 1282 C 114.472 -0.293209 -4.26994 0
M  V30 1283 C 113.798 0.647743 -5.30762 0
M  V30 1284 C 115.098 -1.51634 -4.99804 0
M  V30 1285 H 116.792 -1.13153 -2.77195 0
M  V30 1286 H 114.338 -0.545553 -1.33266 0
M  V30 1287 H 116.291 0.900856 -4.11658 0
M  V30 1288 H 115.015 1.36874 -2.96535 0
M  V30 1289 H 113.674 -0.665555 -3.60508 0
M  V30 1290 H 113.322 1.50299 -4.8002 0
M  V30 1291 H 113.022 0.11422 -5.87489 0
M  V30 1292 H 114.546 1.03567 -6.01753 0
M  V30 1293 H 115.96 -1.19824 -5.60638 0
M  V30 1294 H 114.357 -1.98745 -5.66234 0
M  V30 1295 H 115.427 -2.28018 -4.27943 0
M  V30 1296 N 116.77 1.45427 -0.607355 0
M  V30 1297 C 117.733 2.28974 0.101693 0
M  V30 1298 C 118.733 1.39754 0.795329 0
M  V30 1299 O 119.923 1.61878 0.643527 0
M  V30 1300 C 117.055 3.20768 1.15414 0
M  V30 1301 H 118.248 2.93147 -0.632844 0
M  V30 1302 H 115.801 1.51945 -0.366391 0
M  V30 1303 H 116.536 2.61395 1.91945 0
M  V30 1304 H 116.321 3.86489 0.66098 0
M  V30 1305 H 117.811 3.83589 1.65073 0
M  V30 1306 N 118.248 0.346503 1.53744 0
M  V30 1307 C 119.478 -0.250047 2.05081 0
M  V30 1308 C 119.886 -1.44529 1.22098 0
M  V30 1309 O 119.229 -1.81992 0.249917 0
M  V30 1310 C 119.291 -0.725934 3.52094 0
M  V30 1311 C 118.955 0.350053 4.55657 0
M  V30 1312 C 119.952 1.19372 5.0601 0
M  V30 1313 C 117.637 0.504827 4.99757 0
M  V30 1314 C 119.631 2.17768 5.99046 0
M  V30 1315 C 117.318 1.49218 5.92602 0
M  V30 1316 C 118.316 2.32706 6.42135 0
M  V30 1317 O 118.004 3.2976 7.33153 0
M  V30 1318 H 117.736 -0.0515469 0.674032 0
M  V30 1319 H 120.29 0.497559 1.99282 0
M  V30 1320 H 118.52 -1.52483 3.55367 0
M  V30 1321 H 120.209 -1.24336 3.86388 0
M  V30 1322 H 120.975 1.08525 4.72702 0
M  V30 1323 H 116.854 -0.135178 4.60802 0
M  V30 1324 H 120.398 2.82971 6.37631 0
M  V30 1325 H 116.295 1.6012 6.25325 0
M  V30 1326 H 117.063 3.25265 7.51096 0
M  V30 1327 N 119.726 -1.57421 0.075193 0
M  V30 1328 C 120.972 -1.93905 -0.594025 0
M  V30 1329 C 121.305 -0.955701 -1.69056 0
M  V30 1330 O 120.58 0.0145373 -1.94495 0
M  V30 1331 C 120.863 -3.40638 -1.1678 0
M  V30 1332 C 120.716 -4.49733 -0.0776792 0
M  V30 1333 C 122.035 -3.88259 -2.07228 0
M  V30 1334 H 119.154 -0.705105 -0.214466 0
M  V30 1335 H 121.796 -1.8947 0.141854 0
M  V30 1336 H 119.946 -3.44549 -1.79494 0
M  V30 1337 H 121.618 -4.57942 0.555573 0
M  V30 1338 H 119.861 -4.29751 0.591286 0
M  V30 1339 H 120.532 -5.49549 -0.519603 0
M  V30 1340 H 123.008 -3.86376 -1.54445 0
M  V30 1341 H 121.884 -4.91533 -2.44308 0
M  V30 1342 H 122.145 -3.26396 -2.98191 0
M  V30 1343 N 121.204 0.198386 -1.56346 0
M  V30 1344 C 122.481 0.944982 -1.71258 0
M  V30 1345 C 122.861 2.0151 -0.629048 0
M  V30 1346 O 122.209 2.25639 0.360473 0
M  V30 1347 C 122.419 1.5344 -3.1346 0
M  V30 1348 C 123.767 2.01778 -3.73591 0
M  V30 1349 O 124.791 1.63288 -3.16568 0
M  V30 1350 O 123.65 2.72594 -4.73661 0
M  V30 1351 H 120.744 0.442939 -0.69838 0
M  V30 1352 H 123.29 0.188342 -1.68652 0
M  V30 1353 H 122.062 0.762869 -3.83792 0
M  V30 1354 H 121.685 2.35596 -3.20282 0
M  V30 1355 N 122.682 1.50554 0.465978 0
M  V30 1356 C 123.63 1.70324 1.58406 0
M  V30 1357 C 124.624 0.569139 1.59553 0
M  V30 1358 O 125.83 0.749776 1.63641 0
M  V30 1359 H 122.205 0.537688 0.525734 0
M  V30 1360 H 124.176 2.64104 1.38894 0
M  V30 1361 C 122.925 1.81928 2.96307 0
M  V30 1362 H 122.248 2.68586 2.96144 0
M  V30 1363 H 123.688 1.99784 3.73982 0
M  V30 1364 C 122.147 0.572095 3.32007 0
M  V30 1365 O 122.677 -0.286416 4.00678 0
M  V30 1366 N 120.883 0.424606 2.87481 0
M  V30 1367 H 120.43 1.12427 2.31771 0
M  V30 1368 H 120.388 -0.408697 3.11732 0
M  V30 1369 N 124.16 -0.719506 1.40217 0
M  V30 1370 C 125.409 -1.47486 1.37589 0
M  V30 1371 C 125.722 -1.9559 -0.0201568 0
M  V30 1372 O 126.928 -2.70973 -0.169049 0
M  V30 1373 C 125.384 -2.66575 2.41796 0
M  V30 1374 C 124.992 -2.25358 3.87192 0
M  V30 1375 C 126.736 -3.4433 2.48269 0
M  V30 1376 C 124.643 -3.41262 4.83005 0
M  V30 1377 H 123.573 -0.553901 0.511576 0
M  V30 1378 H 126.224 -0.783427 1.65936 0
M  V30 1379 H 124.606 -3.3787 2.06543 0
M  V30 1380 H 125.78 -1.61509 4.31569 0
M  V30 1381 H 124.095 -1.60657 3.84159 0
M  V30 1382 H 126.692 -4.30569 3.17041 0
M  V30 1383 H 127.035 -3.87872 1.51198 0
M  V30 1384 H 127.568 -2.80076 2.82493 0
M  V30 1385 H 124.307 -3.02755 5.81394 0
M  V30 1386 H 123.827 -4.0404 4.43297 0
M  V30 1387 H 125.506 -4.07383 5.02641 0
M  V30 1388 N 125.638 -1.25649 -0.95132 0
M  V30 1389 C 126.568 -1.08808 -2.06599 0
M  V30 1390 C 127.549 0.00382547 -1.701 0
M  V30 1391 O 128.734 -0.166325 -1.93486 0
M  V30 1392 C 125.864 -0.709542 -3.39975 0
M  V30 1393 C 124.818 -1.75206 -3.90496 0
M  V30 1394 C 124.144 -1.22811 -5.20405 0
M  V30 1395 C 125.444 -3.15153 -4.16504 0
M  V30 1396 H 127.138 -2.02048 -2.20946 0
M  V30 1397 H 124.684 -0.972835 -1.06169 0
M  V30 1398 H 126.637 -0.578649 -4.17408 0
M  V30 1399 H 125.361 0.258556 -3.25575 0
M  V30 1400 H 124.02 -1.87145 -3.15234 0
M  V30 1401 H 123.668 -0.250145 -5.02378 0
M  V30 1402 H 123.368 -1.92492 -5.55176 0
M  V30 1403 H 124.892 -1.10968 -6.00432 0
M  V30 1404 H 126.306 -3.06349 -4.84586 0
M  V30 1405 H 124.703 -3.82333 -4.62538 0
M  V30 1406 H 125.773 -3.61966 -3.22658 0
M  V30 1407 N 127.117 1.15442 -1.07289 0
M  V30 1408 C 128.064 2.20161 -0.692653 0
M  V30 1409 C 129.034 1.63073 0.31564 0
M  V30 1410 O 130.219 1.89725 0.202235 0
M  V30 1411 C 127.359 3.44967 -0.0959509 0
M  V30 1412 C 126.472 4.16256 -1.15564 0
M  V30 1413 C 125.607 5.28609 -0.524011 0
M  V30 1414 C 124.646 5.91715 -1.56653 0
M  V30 1415 N 123.783 6.9554 -0.957531 0
M  V30 1416 H 128.623 2.52037 -1.59002 0
M  V30 1417 H 126.16 1.2378 -0.794798 0
M  V30 1418 H 128.118 4.16341 0.267628 0
M  V30 1419 H 126.748 3.1361 0.764772 0
M  V30 1420 H 125.8 3.43385 -1.6368 0
M  V30 1421 H 127.112 4.59268 -1.94613 0
M  V30 1422 H 126.266 6.06604 -0.108032 0
M  V30 1423 H 125.005 4.86787 0.29825 0
M  V30 1424 H 124.01 5.12433 -1.9923 0
M  V30 1425 H 125.235 6.35614 -2.39107 0
M  V30 1426 H 123.181 6.55814 -0.156162 0
M  V30 1427 H 123.098 7.36977 -1.68526 0
M  V30 1428 H 124.366 7.77435 -0.567032 0
M  V30 1429 N 128.595 0.856903 1.32268 0
M  V30 1430 C 129.542 0.301172 2.28827 0
M  V30 1431 C 130.512 -0.593104 1.5515 0
M  V30 1432 O 131.697 -0.527537 1.83362 0
M  V30 1433 C 128.837 -0.502523 3.41422 0
M  V30 1434 C 127.95 0.417797 4.29975 0
M  V30 1435 C 127.085 -0.398749 5.29701 0
M  V30 1436 C 126.124 0.518827 6.09897 0
M  V30 1437 N 125.261 -0.260674 7.01616 0
M  V30 1438 H 130.101 1.12983 2.75751 0
M  V30 1439 H 127.638 0.568582 1.35667 0
M  V30 1440 H 129.596 -0.984141 4.05426 0
M  V30 1441 H 128.226 -1.29599 2.95642 0
M  V30 1442 H 127.278 1.01781 3.66531 0
M  V30 1443 H 128.59 1.12191 4.86019 0
M  V30 1444 H 127.744 -0.943435 5.9932 0
M  V30 1445 H 126.483 -1.13622 4.7428 0
M  V30 1446 H 125.488 1.07538 5.39181 0
M  V30 1447 H 126.713 1.25495 6.67404 0
M  V30 1448 H 124.659 -0.981198 6.4862 0
M  V30 1449 H 124.576 0.384364 7.55022 0
M  V30 1450 H 125.844 -0.787014 7.75517 0
M  V30 1451 N 130.073 -1.45103 0.615059 0
M  V30 1452 C 131.298 -2.07064 0.117988 0
M  V30 1453 C 131.723 -1.4554 -1.19163 0
M  V30 1454 O 131.081 -0.550855 -1.72729 0
M  V30 1455 C 131.129 -3.606 -0.000288387 0
M  V30 1456 O 130.233 -3.98847 -1.04856 0
M  V30 1457 H 129.574 -0.659467 0.0774581 0
M  V30 1458 H 132.104 -1.86236 0.847186 0
M  V30 1459 H 132.114 -4.07529 -0.196091 0
M  V30 1460 H 130.789 -4.04765 0.955932 0
M  V30 1461 H 129.366 -3.63577 -0.828619 0
M  V30 1462 N 131.551 -0.354651 -1.53558 0
M  V30 1463 C 132.499 0.512195 -2.26891 0
M  V30 1464 C 133.493 1.09263 -1.29452 0
M  V30 1465 O 134.699 1.03709 -1.47121 0
M  V30 1466 H 131.074 0.183878 -0.729173 0
M  V30 1467 H 133.045 -0.128202 -2.98124 0
M  V30 1468 C 131.794 1.64563 -3.06291 0
M  V30 1469 H 131.117 1.20829 -3.81104 0
M  V30 1470 H 132.557 2.22711 -3.60799 0
M  V30 1471 C 131.016 2.58158 -2.16462 0
M  V30 1472 O 131.546 3.60695 -1.76811 0
M  V30 1473 N 129.752 2.27096 -1.81317 0
M  V30 1474 H 129.299 1.43751 -2.1376 0
M  V30 1475 H 129.257 2.89975 -1.21498 0
M  V30 1476 N 133.029 1.57378 -0.0835403 0
M  V30 1477 C 133.976 2.13384 0.879539 0
M  V30 1478 C 134.946 1.04936 1.28754 0
M  V30 1479 O 136.131 1.32662 1.37133 0
M  V30 1480 C 133.271 2.70932 2.13752 0
M  V30 1481 C 132.384 3.93575 1.7811 0
M  V30 1482 C 131.519 4.39326 2.98607 0
M  V30 1483 C 130.558 5.54587 2.59037 0
M  V30 1484 N 129.695 5.95243 3.72331 0
M  V30 1485 H 134.535 2.9537 0.395076 0
M  V30 1486 H 132.072 1.45953 0.183349 0
M  V30 1487 H 134.03 3.02411 2.87408 0
M  V30 1488 H 132.66 1.91693 2.59718 0
M  V30 1489 H 131.712 3.68483 0.94469 0
M  V30 1490 H 133.024 4.77258 1.45005 0
M  V30 1491 H 132.178 4.72528 3.80529 0
M  V30 1492 H 130.917 3.5452 3.34913 0
M  V30 1493 H 129.922 5.21024 1.75539 0
M  V30 1494 H 131.147 6.41133 2.23887 0
M  V30 1495 H 129.093 5.13385 4.08378 0
M  V30 1496 H 129.01 6.73694 3.43034 0
M  V30 1497 H 130.278 6.33072 4.54797 0
M  V30 1498 N 134.507 -0.190092 1.56449 0
M  V30 1499 C 135.454 -1.23557 1.94942 0
M  V30 1500 C 136.424 -1.44972 0.810696 0
M  V30 1501 O 137.609 -1.58023 1.06927 0
M  V30 1502 C 134.749 -2.57416 2.2985 0
M  V30 1503 C 133.862 -2.43537 3.5681 0
M  V30 1504 C 132.997 -3.70134 3.81017 0
M  V30 1505 C 132.036 -3.51109 5.01387 0
M  V30 1506 N 131.173 -4.6973 5.21822 0
M  V30 1507 H 136.013 -0.900304 2.84075 0
M  V30 1508 H 133.55 -0.43318 1.40577 0
M  V30 1509 H 135.508 -3.35409 2.48106 0
M  V30 1510 H 134.138 -2.88975 1.43852 0
M  V30 1511 H 133.19 -1.56816 3.46573 0
M  V30 1512 H 134.502 -2.25415 4.4496 0
M  V30 1513 H 133.656 -4.56566 3.9954 0
M  V30 1514 H 132.395 -3.91215 2.91207 0
M  V30 1515 H 131.4 -2.63063 4.82782 0
M  V30 1516 H 132.625 -3.31468 5.9271 0
M  V30 1517 H 130.571 -4.91065 4.34961 0
M  V30 1518 H 130.488 -4.54452 6.0416 0
M  V30 1519 H 131.756 -5.57499 5.44808 0
M  V30 1520 N 135.985 -1.50799 -0.457987 0
M  V30 1521 C 136.915 -1.73553 -1.5621 0
M  V30 1522 C 137.896 -0.584774 -1.59732 0
M  V30 1523 O 139.081 -0.825314 -1.7579 0
M  V30 1524 C 136.211 -1.84169 -2.94447 0
M  V30 1525 C 135.165 -2.99461 -3.0579 0
M  V30 1526 C 134.491 -2.95235 -4.45803 0
M  V30 1527 C 135.791 -4.39766 -2.81786 0
M  V30 1528 H 137.485 -2.66 -1.37421 0
M  V30 1529 H 135.031 -1.28002 -0.659662 0
M  V30 1530 H 136.984 -1.98672 -3.71628 0
M  V30 1531 H 135.708 -0.883545 -3.14422 0
M  V30 1532 H 134.367 -2.8463 -2.31044 0
M  V30 1533 H 134.015 -1.97239 -4.62715 0
M  V30 1534 H 133.715 -3.72642 -4.54326 0
M  V30 1535 H 135.239 -3.11803 -5.24987 0
M  V30 1536 H 136.653 -4.55054 -3.4871 0
M  V30 1537 H 135.05 -5.18722 -3.0174 0
M  V30 1538 H 136.12 -4.51229 -1.7754 0
M  V30 1539 N 137.463 0.71206 -1.40597 0
M  V30 1540 C 138.373 1.8562 -1.43466 0
M  V30 1541 C 139.389 1.70902 -0.326902 0
M  V30 1542 O 140.565 1.93105 -0.572043 0
M  V30 1543 C 137.63 3.21451 -1.29884 0
M  V30 1544 C 136.691 3.48398 -2.50833 0
M  V30 1545 C 135.924 4.77749 -2.3789 0
M  V30 1546 O 136.147 5.53089 -1.39459 0
M  V30 1547 O 135.081 5.05111 -3.27333 0
M  V30 1548 H 138.907 1.86155 -2.39958 0
M  V30 1549 H 136.492 0.86295 -1.21957 0
M  V30 1550 H 138.374 4.02579 -1.24531 0
M  V30 1551 H 137.049 3.21636 -0.364997 0
M  V30 1552 H 135.956 2.67265 -2.61763 0
M  V30 1553 H 137.289 3.53014 -3.4299 0
M  V30 1554 N 138.941 1.26152 0.944643 0
M  V30 1555 C 139.851 1.09176 2.07648 0
M  V30 1556 C 140.867 0.0261935 1.7398 0
M  V30 1557 O 142.043 0.229208 2.00091 0
M  V30 1558 C 139.108 0.722915 3.39079 0
M  V30 1559 C 138.169 1.86752 3.86552 0
M  V30 1560 C 137.402 1.51617 5.11711 0
M  V30 1561 O 137.625 0.416331 5.68879 0
M  V30 1562 O 136.559 2.34975 5.54139 0
M  V30 1563 H 140.385 2.0412 2.24875 0
M  V30 1564 H 137.97 1.05182 1.061 0
M  V30 1565 H 139.852 0.529787 4.18056 0
M  V30 1566 H 138.527 -0.197159 3.23099 0
M  V30 1567 H 137.434 2.11558 3.08535 0
M  V30 1568 H 138.767 2.76719 4.07047 0
M  V30 1569 N 140.419 -1.14872 1.07899 0
M  V30 1570 C 141.349 -2.2193 0.725887 0
M  V30 1571 C 142.33 -1.67622 -0.28927 0
M  V30 1572 O 143.515 -1.93533 -0.160787 0
M  V30 1573 C 140.645 -3.47061 0.128856 0
M  V30 1574 C 139.599 -4.14363 1.07178 0
M  V30 1575 C 138.925 -5.33636 0.337229 0
M  V30 1576 C 140.225 -4.63492 2.40775 0
M  V30 1577 H 141.919 -2.51724 1.62097 0
M  V30 1578 H 139.465 -1.20991 0.780838 0
M  V30 1579 H 141.418 -4.21199 -0.130147 0
M  V30 1580 H 140.142 -3.16617 -0.80134 0
M  V30 1581 H 138.801 -3.42173 1.3158 0
M  V30 1582 H 138.449 -4.99449 -0.596606 0
M  V30 1583 H 138.149 -5.79609 0.965788 0
M  V30 1584 H 139.673 -6.10539 0.0861567 0
M  V30 1585 H 141.087 -5.2913 2.20669 0
M  V30 1586 H 139.484 -5.20148 2.99276 0
M  V30 1587 H 140.554 -3.78834 3.02676 0
M  V30 1588 N 141.898 -0.863906 -1.31812 0
M  V30 1589 C 142.848 -0.286898 -2.26188 0
M  V30 1590 C 143.832 0.572577 -1.50367 0
M  V30 1591 O 145.024 0.420447 -1.71934 0
M  V30 1592 C 142.153 0.515849 -3.39402 0
M  V30 1593 C 141.239 -0.356531 -4.22599 0
M  V30 1594 N 141.63 -1.44716 -4.84656 0
M  V30 1595 C 139.928 -0.147898 -4.45755 0
M  V30 1596 C 140.629 -1.98462 -5.46798 0
M  V30 1597 N 139.605 -1.28247 -5.28255 0
M  V30 1598 H 143.407 -1.12055 -2.717 0
M  V30 1599 H 140.921 -0.711012 -1.46008 0
M  V30 1600 H 142.918 0.945701 -4.06032 0
M  V30 1601 H 141.578 1.34718 -2.95434 0
M  V30 1602 H 142.589 -1.83008 -4.84488 0
M  V30 1603 H 139.266 0.647973 -4.12441 0
M  V30 1604 H 140.656 -2.89932 -6.06126 0
M  V30 1605 N 143.376 1.44774 -0.622745 0
M  V30 1606 C 144.326 2.2774 0.108889 0
M  V30 1607 C 145.31 1.38189 0.824175 0
M  V30 1608 O 146.502 1.62063 0.711664 0
M  V30 1609 C 143.631 3.25353 1.09546 0
M  V30 1610 C 142.717 4.22392 0.380232 0
M  V30 1611 N 143.108 5.02388 -0.586535 0
M  V30 1612 C 141.406 4.41588 0.625792 0
M  V30 1613 C 142.107 5.72894 -1.00834 0
M  V30 1614 N 141.083 5.42479 -0.348878 0
M  V30 1615 H 144.885 2.86993 -0.63341 0
M  V30 1616 H 142.399 1.5611 -0.447589 0
M  V30 1617 H 144.396 3.83538 1.63414 0
M  V30 1618 H 143.056 2.6766 1.83815 0
M  V30 1619 H 144.067 5.0885 -0.963975 0
M  V30 1620 H 140.744 3.95003 1.352 0
M  V30 1621 H 142.134 6.47158 -1.80656 0
M  V30 1622 N 144.854 0.36279 1.53368 0
M  V30 1623 C 145.801 -0.485008 2.25646 0
M  V30 1624 C 146.771 -1.07982 1.2621 0
M  V30 1625 O 147.956 -1.11284 1.54986 0
M  V30 1626 C 145.096 -1.62023 3.04701 0
M  V30 1627 C 144.209 -1.05086 4.19024 0
M  V30 1628 C 143.344 -2.15496 4.85525 0
M  V30 1629 C 142.383 -1.5601 5.91884 0
M  V30 1630 N 141.52 -2.60241 6.52088 0
M  V30 1631 H 146.36 0.137864 2.97681 0
M  V30 1632 H 143.897 0.0798061 1.46883 0
M  V30 1633 H 145.855 -2.28887 3.48807 0
M  V30 1634 H 144.485 -2.2138 2.34927 0
M  V30 1635 H 143.537 -0.27259 3.79422 0
M  V30 1636 H 144.849 -0.575926 4.95464 0
M  V30 1637 H 144.003 -2.90186 5.32801 0
M  V30 1638 H 142.742 -2.66341 4.08551 0
M  V30 1639 H 141.747 -0.798338 5.43973 0
M  V30 1640 H 142.972 -1.05994 6.70777 0
M  V30 1641 H 140.918 -3.10304 5.77968 0
M  V30 1642 H 140.835 -2.17426 7.24059 0
M  V30 1643 H 142.103 -3.34641 7.04014 0
M  V30 1644 N 146.332 -1.57332 0.0918853 0
M  V30 1645 C 147.262 -2.16872 -0.865371 0
M  V30 1646 C 148.243 -1.10118 -1.29646 0
M  V30 1647 O 149.428 -1.38242 -1.36392 0
M  V30 1648 C 146.558 -2.74649 -2.12569 0
M  V30 1649 C 145.512 -3.86747 -1.83333 0
M  V30 1650 C 144.838 -4.31212 -3.16166 0
M  V30 1651 C 146.138 -5.10089 -1.1228 0
M  V30 1652 H 147.832 -2.97114 -0.369307 0
M  V30 1653 H 145.378 -1.42918 -0.176194 0
M  V30 1654 H 147.331 -3.14952 -2.7997 0
M  V30 1655 H 146.055 -1.91657 -2.64452 0
M  V30 1656 H 144.714 -3.46978 -1.18331 0
M  V30 1657 H 144.362 -3.45115 -3.6593 0
M  V30 1658 H 144.062 -5.06788 -2.97388 0
M  V30 1659 H 145.586 -4.74146 -3.84731 0
M  V30 1660 H 147 -5.47582 -1.69785 0
M  V30 1661 H 145.397 -5.91073 -1.03693 0
M  V30 1662 H 146.467 -4.84786 -0.105041 0
M  V30 1663 N 147.81 0.181792 -1.56548 0
M  V30 1664 C 148.742 1.24956 -1.92142 0
M  V30 1665 C 149.755 1.41022 -0.813422 0
M  V30 1666 O 150.944 1.41212 -1.09186 0
M  V30 1667 C 148.044 2.61981 -2.14987 0
M  V30 1668 C 147.217 2.6735 -3.46183 0
M  V30 1669 C 146.276 3.85664 -3.5798 0
M  V30 1670 O 145.302 3.72148 -4.30691 0
M  V30 1671 N 146.504 5.01683 -2.92053 0
M  V30 1672 H 149.269 0.947329 -2.84334 0
M  V30 1673 H 146.83 0.371629 -1.57577 0
M  V30 1674 H 148.822 3.3958 -2.20154 0
M  V30 1675 H 147.392 2.84637 -1.2923 0
M  V30 1676 H 146.612 1.75925 -3.52766 0
M  V30 1677 H 147.9 2.67939 -4.32534 0
M  V30 1678 H 147.298 5.15564 -2.32832 0
M  V30 1679 H 145.855 5.77181 -3.0283 0
M  V30 1680 N 149.288 1.51039 0.449983 0
M  V30 1681 C 150.198 1.74261 1.57067 0
M  V30 1682 C 151.214 0.626363 1.62335 0
M  V30 1683 O 152.39 0.907162 1.79812 0
M  V30 1684 C 149.455 1.85114 2.93144 0
M  V30 1685 C 148.516 3.0893 2.98095 0
M  V30 1686 C 147.749 3.19256 4.27681 0
M  V30 1687 O 147.972 2.35835 5.19363 0
M  V30 1688 O 146.906 4.12144 4.38658 0
M  V30 1689 H 150.732 2.69303 1.40391 0
M  V30 1690 H 148.317 1.35389 0.631688 0
M  V30 1691 H 150.199 1.94311 3.73926 0
M  V30 1692 H 148.874 0.932588 3.09975 0
M  V30 1693 H 147.781 3.0522 2.16314 0
M  V30 1694 H 149.114 4.00433 2.86206 0
M  V30 1695 N 150.766 -0.704594 1.40972 0
M  V30 1696 C 151.696 -1.83124 1.44872 0
M  V30 1697 C 152.677 -1.67281 0.30838 0
M  V30 1698 O 153.862 -1.87149 0.518556 0
M  V30 1699 C 150.992 -3.21181 1.32136 0
M  V30 1700 C 149.946 -3.51714 2.43888 0
M  V30 1701 C 149.272 -4.89032 2.16222 0
M  V30 1702 C 150.572 -3.516 3.86232 0
M  V30 1703 H 152.266 -1.80117 2.39161 0
M  V30 1704 H 149.812 -0.865145 1.15114 0
M  V30 1705 H 151.765 -3.99702 1.33479 0
M  V30 1706 H 150.489 -3.24791 0.343279 0
M  V30 1707 H 149.148 -2.75539 2.41813 0
M  V30 1708 H 148.796 -4.89256 1.16778 0
M  V30 1709 H 148.496 -5.10426 2.911 0
M  V30 1710 H 150.02 -5.69873 2.19265 0
M  V30 1711 H 151.434 -4.2014 3.9007 0
M  V30 1712 H 149.831 -3.84523 4.60719 0
M  V30 1713 H 150.901 -2.50757 4.15029 0
M  V30 1714 N 152.244 -1.26651 -0.937939 0
M  V30 1715 C 153.192 -1.08308 -2.05845 0
M  V30 1716 C 154.186 -0.0090757 -1.69398 0
M  V30 1717 O 155.392 -0.166007 -1.79233 0
M  V30 1718 H 151.767 -0.333416 -0.674046 0
M  V30 1719 H 153.738 -2.03261 -2.18467 0
M  V30 1720 C 152.487 -0.736229 -3.39816 0
M  V30 1721 H 151.81 -1.55453 -3.6834 0
M  V30 1722 H 153.25 -0.64769 -4.19024 0
M  V30 1723 C 151.709 0.558824 -3.32233 0
M  V30 1724 O 152.239 1.59621 -3.68624 0
M  V30 1725 N 150.445 0.550657 -2.85335 0
M  V30 1726 H 149.992 -0.293943 -2.55917 0
M  V30 1727 H 149.95 1.41726 -2.80644 0
M  V30 1728 N 153.722 1.14298 -1.08507 0
M  V30 1729 C 154.685 2.17607 -0.719711 0
M  V30 1730 C 155.685 1.58907 0.245997 0
M  V30 1731 O 156.875 1.74181 0.0254081 0
M  V30 1732 C 154.007 3.40842 -0.0627695 0
M  V30 1733 H 155.2 2.51443 -1.63452 0
M  V30 1734 H 152.753 1.28963 -0.88307 0
M  V30 1735 H 153.488 3.12587 0.863716 0
M  V30 1736 H 153.273 3.84713 -0.757504 0
M  V30 1737 H 154.763 4.17221 0.177786 0
M  V30 1738 N 155.201 0.870884 1.31352 0
M  V30 1739 C 156.151 0.298889 2.26032 0
M  V30 1740 C 157.135 -0.564595 1.50669 0
M  V30 1741 O 158.327 -0.411323 1.72154 0
M  V30 1742 C 155.456 -0.497842 3.39671 0
M  V30 1743 C 154.542 0.378937 4.22404 0
M  V30 1744 N 154.933 1.47284 4.83881 0
M  V30 1745 C 153.231 0.171535 4.4567 0
M  V30 1746 C 153.932 2.01359 5.45738 0
M  V30 1747 N 152.908 1.31047 5.27568 0
M  V30 1748 H 156.71 1.13494 2.71102 0
M  V30 1749 H 154.224 0.718745 1.45629 0
M  V30 1750 H 156.221 -0.924155 4.06528 0
M  V30 1751 H 154.881 -1.33149 2.96144 0
M  V30 1752 H 155.892 1.85575 4.8351 0
M  V30 1753 H 152.569 -0.626091 4.12779 0
M  V30 1754 H 153.959 2.93143 6.0458 0
M  V30 1755 N 156.679 -1.44442 0.630414 0
M  V30 1756 C 157.928 -2.01267 0.132073 0
M  V30 1757 C 158.241 -1.50172 -1.25331 0
M  V30 1758 O 159.447 -1.9912 -1.84562 0
M  V30 1759 C 157.903 -3.59422 0.185362 0
M  V30 1760 C 157.511 -4.19514 1.57201 0
M  V30 1761 C 159.255 -4.23724 -0.256553 0
M  V30 1762 C 157.162 -5.69891 1.58045 0
M  V30 1763 H 156.092 -0.752619 0.0456092 0
M  V30 1764 H 158.743 -1.65666 0.789106 0
M  V30 1765 H 157.125 -3.92318 -0.538759 0
M  V30 1766 H 158.299 -3.98156 2.31966 0
M  V30 1767 H 156.614 -3.67496 1.95795 0
M  V30 1768 H 159.211 -5.34019 -0.269767 0
M  V30 1769 H 159.554 -3.96013 -1.28372 0
M  V30 1770 H 160.087 -3.95629 0.41505 0
M  V30 1771 H 156.826 -6.02336 2.58597 0
M  V30 1772 H 156.346 -5.93373 0.875725 0
M  V30 1773 H 158.025 -6.33515 1.31408 0
M  V30 1774 N 158.157 -0.370918 -1.53173 0
M  V30 1775 C 159.403 0.217423 -2.01631 0
M  V30 1776 C 159.736 1.47983 -1.25756 0
M  V30 1777 O 159.011 1.91274 -0.352764 0
M  V30 1778 C 159.294 0.503982 -3.56556 0
M  V30 1779 C 159.147 -0.77243 -4.43118 0
M  V30 1780 C 160.466 1.30234 -4.20389 0
M  V30 1781 H 157.585 0.0775486 -0.732909 0
M  V30 1782 H 160.227 -0.496863 -1.83388 0
M  V30 1783 H 158.377 1.11248 -3.72231 0
M  V30 1784 H 160.049 -1.4098 -4.39229 0
M  V30 1785 H 158.292 -1.39167 -4.10871 0
M  V30 1786 H 158.963 -0.526815 -5.4948 0
M  V30 1787 H 161.439 0.787546 -4.08579 0
M  V30 1788 H 160.315 1.47158 -5.28806 0
M  V30 1789 H 160.576 2.31237 -3.76805 0
M  V30 1790 N 159.635 1.57281 -0.100228 0
M  V30 1791 C 160.881 1.94826 0.563101 0
M  V30 1792 C 161.214 0.982475 1.67514 0
M  V30 1793 O 160.489 0.0164069 1.94493 0
M  V30 1794 C 160.772 3.42453 1.11346 0
M  V30 1795 C 160.625 4.498 0.00612081 0
M  V30 1796 C 161.944 3.91506 2.01024 0
M  V30 1797 H 159.063 0.708428 0.203221 0
M  V30 1798 H 161.705 1.8922 -0.171979 0
M  V30 1799 H 159.855 3.47361 1.7399 0
M  V30 1800 H 161.527 4.57 -0.628357 0
M  V30 1801 H 159.77 4.28756 -0.659581 0
M  V30 1802 H 160.441 5.50306 0.432109 0
M  V30 1803 H 162.917 3.88784 1.48278 0
M  V30 1804 H 161.793 4.95358 2.36457 0
M  V30 1805 H 162.054 3.31099 2.92961 0
M  V30 1806 N 161.113 -0.173488 1.56642 0
M  V30 1807 C 162.338 -0.910149 1.86363 0
M  V30 1808 C 162.763 -1.75132 0.686318 0
M  V30 1809 O 162.121 -1.77595 -0.364643 0
M  V30 1810 C 162.169 -1.76447 3.14482 0
M  V30 1811 O 161.273 -2.86584 2.96553 0
M  V30 1812 H 160.614 -0.255086 0.613047 0
M  V30 1813 H 163.144 -0.172283 2.03873 0
M  V30 1814 H 163.154 -2.16483 3.45831 0
M  V30 1815 H 161.829 -1.14658 3.99783 0
M  V30 1816 H 160.406 -2.50146 2.76553 0
M  V30 1817 N 162.591 -1.51276 -0.441967 0
M  V30 1818 C 163.868 -1.54252 -1.20273 0
M  V30 1819 C 164.248 -0.30408 -2.08898 0
M  V30 1820 O 163.596 0.711084 -2.17154 0
M  V30 1821 C 163.806 -2.85406 -2.00859 0
M  V30 1822 C 165.154 -3.37181 -2.58059 0
M  V30 1823 O 166.178 -2.86925 -2.11074 0
M  V30 1824 O 165.037 -4.24858 -3.43741 0
M  V30 1825 H 162.131 -0.619969 -0.547328 0
M  V30 1826 H 164.677 -1.63586 -0.451413 0
M  V30 1827 H 163.449 -3.67003 -1.35736 0
M  V30 1828 H 163.072 -2.79213 -2.83065 0
M  V30 1829 N 164.069 0.697108 -1.41344 0
M  V30 1830 C 165.48 1.27697 -1.36199 0
M  V30 1831 C 165.831 1.9615 -0.0443463 0
M  V30 1832 O 164.956 1.98689 0.857419 0
M  V30 1833 C 165.551 2.32223 -2.46694 0
M  V30 1834 C 164.11 2.8579 -2.44952 0
M  V30 1835 C 163.257 1.59807 -2.26621 0
M  V30 1836 H 166.208 0.491968 -1.50882 0
M  V30 1837 H 166.229 3.1348 -2.15664 0
M  V30 1838 H 165.741 1.82373 -3.42581 0
M  V30 1839 H 163.842 3.3982 -1.52817 0
M  V30 1840 H 163.955 3.36325 -3.41207 0
M  V30 1841 H 162.319 1.8556 -1.7447 0
M  V30 1842 H 163.102 1.11956 -3.24532 0
M  V30 1843 N 165.547 1.27147 0.931209 0
M  V30 1844 C 166.457 1.11372 2.06478 0
M  V30 1845 C 167.473 0.044645 1.73943 0
M  V30 1846 O 168.649 0.250417 1.99837 0
M  V30 1847 C 165.714 0.758838 3.38294 0
M  V30 1848 C 164.775 1.90841 3.84549 0
M  V30 1849 C 164.008 1.57036 5.10074 0
M  V30 1850 O 164.231 0.476645 5.68405 0
M  V30 1851 O 163.165 2.40839 5.51616 0
M  V30 1852 H 166.991 2.06493 2.22698 0
M  V30 1853 H 164.576 1.06301 1.04978 0
M  V30 1854 H 166.458 0.574098 4.17471 0
M  V30 1855 H 165.133 -0.162879 3.2329 0
M  V30 1856 H 164.04 2.14819 3.06274 0
M  V30 1857 H 165.373 2.81021 4.04089 0
M  V30 1858 N 167.025 -1.13721 1.09112 0
M  V30 1859 C 168.302 -1.81155 0.737706 0
M  V30 1860 C 168.682 -1.96253 -0.777683 0
M  V30 1861 O 168.03 -1.52807 -1.69889 0
M  V30 1862 C 168.24 -3.16392 1.47299 0
M  V30 1863 C 169.588 -3.91787 1.63671 0
M  V30 1864 O 170.612 -3.26005 1.43524 0
M  V30 1865 O 169.471 -5.0977 1.96969 0
M  V30 1866 H 166.565 -0.783518 0.26463 0
M  V30 1867 H 169.111 -1.20676 1.19312 0
M  V30 1868 H 167.883 -3.0061 2.50498 0
M  V30 1869 H 167.506 -3.8457 1.00953 0
M  V30 1870 N 168.503 -0.877838 -1.30888 0
M  V30 1871 C 169.752 -0.488793 -1.95688 0
M  V30 1872 C 170.065 0.965485 -1.70111 0
M  V30 1873 O 171.271 1.46104 -2.28836 0
M  V30 1874 C 169.727 -0.823201 -3.50359 0
M  V30 1875 C 169.335 -2.29477 -3.84765 0
M  V30 1876 C 171.079 -0.503009 -4.21509 0
M  V30 1877 C 168.986 -2.57118 -5.32583 0
M  V30 1878 H 167.916 -0.179062 -0.732429 0
M  V30 1879 H 170.567 -1.07183 -1.48943 0
M  V30 1880 H 168.949 -0.169331 -3.95638 0
M  V30 1881 H 170.123 -2.99236 -3.5042 0
M  V30 1882 H 168.438 -2.58178 -3.267 0
M  V30 1883 H 171.035 -0.68665 -5.30273 0
M  V30 1884 H 171.378 0.557109 -4.12555 0
M  V30 1885 H 171.911 -1.11376 -3.8189 0
M  V30 1886 H 168.65 -3.61843 -5.4658 0
M  V30 1887 H 168.17 -1.91961 -5.68253 0
M  V30 1888 H 169.849 -2.42251 -5.99936 0
M  V30 1889 N 169.982 1.44106 -0.638065 0
M  V30 1890 C 171.21 2.06336 -0.152615 0
M  V30 1891 C 171.625 1.47731 1.17563 0
M  V30 1892 O 170.982 0.602806 1.72257 0
M  V30 1893 C 171.033 3.61479 -0.0391491 0
M  V30 1894 O 170.754 4.17903 -1.31487 0
M  V30 1895 C 172.255 4.40757 0.474176 0
M  V30 1896 H 169.475 0.665862 -0.0828776 0
M  V30 1897 H 172.019 1.84862 -0.87443 0
M  V30 1898 H 170.174 3.82191 0.633142 0
M  V30 1899 H 170.588 5.11416 -1.16421 0
M  V30 1900 H 172.062 5.49707 0.502562 0
M  V30 1901 H 172.539 4.12697 1.50258 0
M  V30 1902 H 173.145 4.24979 -0.165102 0
M  V30 1903 N 171.46 0.379036 1.52974 0
M  V30 1904 C 172.737 -0.263479 1.93817 0
M  V30 1905 C 173.117 -1.65244 1.31368 0
M  V30 1906 O 172.465 -2.23448 0.477856 0
M  V30 1907 C 172.675 -0.300166 3.47707 0
M  V30 1908 C 174.023 -0.534061 4.21228 0
M  V30 1909 O 175.047 -0.38081 3.54159 0
M  V30 1910 O 173.906 -0.833501 5.40106 0
M  V30 1911 H 171 -0.161149 0.811147 0
M  V30 1912 H 173.546 0.432798 1.64088 0
M  V30 1913 H 172.318 0.673138 3.85467 0
M  V30 1914 H 171.941 -1.04179 3.83709 0
M  V30 1915 N 172.938 -1.57226 0.108567 0
M  V30 1916 C 174.178 -1.96717 -0.555155 0
M  V30 1917 C 174.542 -0.990003 -1.64508 0
M  V30 1918 O 175.743 -1.2739 -2.36696 0
M  V30 1919 C 174.014 -3.40575 -1.08367 0
M  V30 1920 S 175.573 -4.02072 -1.75737 0
M  V30 1921 H 172.391 -0.687638 -0.180762 0
M  V30 1922 H 174.993 -1.94563 0.191172 0
M  V30 1923 H 173.697 -4.0945 -0.279092 0
M  V30 1924 H 173.228 -3.46356 -1.86551 0
M  V30 1925 H 175.243 -3.91977 -3.04251 0
M  V30 1926 N 174.416 0.165178 -1.56732 0
M  V30 1927 C 175.827 0.727046 -1.71962 0
M  V30 1928 C 176.178 1.82508 -0.720078 0
M  V30 1929 O 175.303 2.16082 0.117242 0
M  V30 1930 C 175.898 1.32559 -3.11791 0
M  V30 1931 C 174.457 1.83422 -3.28684 0
M  V30 1932 C 173.604 0.715567 -2.67908 0
M  V30 1933 H 176.555 -0.0602896 -1.58585 0
M  V30 1934 H 176.576 2.19533 -3.10782 0
M  V30 1935 H 176.088 0.526195 -3.84516 0
M  V30 1936 H 174.189 2.65986 -2.60926 0
M  V30 1937 H 174.302 1.97543 -4.36478 0
M  V30 1938 H 172.666 1.13758 -2.27884 0
M  V30 1939 H 173.449 -0.0720836 -3.43224 0
M  V30 1940 N 175.894 1.51508 0.433938 0
M  V30 1941 C 177.31 1.39759 0.770682 0
M  V30 1942 C 177.51 0.482594 1.95636 0
M  V30 1943 O 176.566 -0.0609691 2.52426 0
M  V30 1944 C 177.879 2.81851 1.04787 0
M  V30 1945 C 179.427 2.91025 1.1521 0
M  V30 1946 C 179.902 4.34032 1.46219 0
M  V30 1947 N 181.393 4.37154 1.53136 0
M  V30 1948 C 182.128 5.4484 1.78709 0
M  V30 1949 N 181.624 6.62682 2.02051 0
M  V30 1950 N 183.417 5.32324 1.80519 0
M  V30 1951 H 175.568 2.09548 -0.346892 0
M  V30 1952 H 177.831 0.943446 -0.0928074 0
M  V30 1953 H 177.537 3.50815 0.249304 0
M  V30 1954 H 177.411 3.21386 1.97461 0
M  V30 1955 H 179.798 2.22257 1.94128 0
M  V30 1956 H 179.879 2.54983 0.204281 0
M  V30 1957 H 179.523 5.03351 0.678274 0
M  V30 1958 H 179.453 4.6759 2.42212 0
M  V30 1959 H 181.944 3.52197 1.36987 0
M  V30 1960 H 182.257 7.40543 2.20943 0
M  V30 1961 H 180.602 6.65791 1.99366 0
M  V30 1962 H 183.793 4.39246 1.61805 0
M  V30 1963 H 183.966 6.16328 2.00111 0
M  V30 1964 N 177.372 -0.689602 1.41712 0
M  V30 1965 C 178.6 -1.47827 1.44758 0
M  V30 1966 C 179.015 -1.88721 0.0545703 0
M  V30 1967 O 178.372 -1.57176 -0.927463 0
M  V30 1968 C 178.423 -2.73698 2.3616 0
M  V30 1969 O 178.144 -2.34524 3.7004 0
M  V30 1970 C 179.645 -3.67389 2.48072 0
M  V30 1971 H 176.865 -0.455357 0.49284 0
M  V30 1972 H 179.409 -0.848574 1.86063 0
M  V30 1973 H 177.564 -3.32891 1.98148 0
M  V30 1974 H 177.978 -3.15701 4.18847 0
M  V30 1975 H 179.452 -4.52475 3.16181 0
M  V30 1976 H 179.929 -4.12284 1.51388 0
M  V30 1977 H 180.535 -3.14097 2.86746 0
M  V30 1978 N 178.85 -1.27639 -0.924453 0
M  V30 1979 C 180.261 -1.12834 -1.48746 0
M  V30 1980 C 180.612 0.285505 -1.94112 0
M  V30 1981 O 179.737 1.17874 -1.81479 0
M  V30 1982 C 180.332 -2.04217 -2.70334 0
M  V30 1983 C 178.891 -1.93509 -3.22848 0
M  V30 1984 C 178.038 -1.96583 -1.95577 0
M  V30 1985 H 180.989 -1.40484 -0.738233 0
M  V30 1986 H 181.01 -1.59989 -3.4523 0
M  V30 1987 H 180.522 -3.07111 -2.37285 0
M  V30 1988 H 178.623 -0.936131 -3.60649 0
M  V30 1989 H 178.736 -2.79917 -3.88823 0
M  V30 1990 H 177.1 -1.4085 -2.12211 0
M  V30 1991 H 177.883 -3.01137 -1.64837 0
M  V30 1992 N 180.328 1.1314 -1.09713 0
M  V30 1993 C 181.605 1.80762 -0.747302 0
M  V30 1994 C 181.985 1.96663 0.767265 0
M  V30 1995 O 181.333 1.53706 1.69076 0
M  V30 1996 C 181.543 3.15606 -1.48975 0
M  V30 1997 C 182.891 3.90914 -1.65746 0
M  V30 1998 O 183.915 3.25239 -1.45251 0
M  V30 1999 O 182.774 5.08718 -1.9967 0
M  V30 2000 H 179.868 0.782103 -0.268782 0
M  V30 2001 H 182.414 1.20041 -1.19951 0
M  V30 2002 H 181.186 2.99278 -2.52088 0
M  V30 2003 H 180.809 3.84029 -1.02991 0
M  V30 2004 N 181.806 0.884767 1.30421 0
M  V30 2005 C 183.034 0.518044 2.0031 0
M  V30 2006 C 183.449 -0.893408 1.66324 0
M  V30 2007 O 182.806 -1.5875 0.900262 0
M  V30 2008 C 182.857 0.682997 3.54989 0
M  V30 2009 O 182.578 2.03888 3.87764 0
M  V30 2010 C 184.079 0.31924 4.42149 0
M  V30 2011 H 181.299 0.200265 0.640418 0
M  V30 2012 H 183.843 1.19001 1.6631 0
M  V30 2013 H 181.998 0.0584052 3.87356 0
M  V30 2014 H 182.412 2.05735 4.82466 0
M  V30 2015 H 183.886 0.485555 5.4986 0
M  V30 2016 H 184.363 -0.742717 4.32875 0
M  V30 2017 H 184.969 0.920147 4.15227 0
M  V30 2018 N 183.284 -1.43765 0.645699 0
M  V30 2019 C 184.695 -1.85193 0.236719 0
M  V30 2020 C 185.046 -1.54045 -1.21509 0
M  V30 2021 O 184.171 -0.985694 -1.92647 0
M  V30 2022 C 184.766 -3.36151 0.422845 0
M  V30 2023 C 183.325 -3.76338 0.0682492 0
M  V30 2024 C 182.472 -2.67538 0.729306 0
M  V30 2025 H 185.423 -1.34025 0.849883 0
M  V30 2026 H 185.444 -3.79032 -0.333904 0
M  V30 2027 H 184.956 -3.5879 1.47958 0
M  V30 2028 H 183.057 -3.59312 -0.986179 0
M  V30 2029 H 183.17 -4.76603 0.488469 0
M  V30 2030 H 181.534 -2.54176 0.163235 0
M  V30 2031 H 182.317 -2.93006 1.78892 0
M  V30 2032 N 184.763 -0.387143 -1.52771 0
M  V30 2033 C 185.711 0.463953 -2.27926 0
M  V30 2034 C 186.705 1.06493 -1.31741 0
M  V30 2035 O 187.911 1.00565 -1.49287 0
M  V30 2036 H 184.286 0.16837 -0.732909 0
M  V30 2037 H 186.257 -0.19141 -2.97785 0
M  V30 2038 C 185.006 1.5803 -3.09713 0
M  V30 2039 H 184.329 1.12718 -3.83581 0
M  V30 2040 H 185.769 2.15008 -3.65442 0
M  V30 2041 C 184.228 2.53509 -2.2189 0
M  V30 2042 O 184.758 3.56863 -1.84422 0
M  V30 2043 N 182.964 2.23199 -1.86093 0
M  V30 2044 H 182.511 1.39185 -2.16761 0
M  V30 2045 H 182.469 2.87333 -1.27621 0
M  V30 2046 N 186.241 1.57166 -0.116904 0
M  V30 2047 C 187.189 2.16457 0.851418 0
M  V30 2048 C 188.183 1.11323 1.27686 0
M  V30 2049 O 189.389 1.2963 1.24884 0
M  V30 2050 H 185.764 0.69271 0.292672 0
M  V30 2051 H 187.735 2.96605 0.32685 0
M  V30 2052 C 186.484 2.77689 2.09246 0
M  V30 2053 H 185.807 3.58285 1.77402 0
M  V30 2054 H 187.247 3.22716 2.7501 0
M  V30 2055 C 185.706 1.74667 2.88085 0
M  V30 2056 O 186.236 1.19877 3.83396 0
M  V30 2057 N 184.442 1.44656 2.52038 0
M  V30 2058 H 183.989 1.89402 1.74599 0
M  V30 2059 H 183.947 0.759675 3.05084 0
M  V30 2060 N 187.719 -0.156864 1.56817 0
M  V30 2061 C 188.996 -0.899244 1.73704 0
M  V30 2062 C 189.376 -1.99771 0.682254 0
M  V30 2063 O 188.724 -2.26515 -0.300522 0
M  V30 2064 C 188.934 -1.45075 3.17418 0
M  V30 2065 C 190.282 -1.91802 3.7881 0
M  V30 2066 O 191.306 -1.54838 3.20786 0
M  V30 2067 O 190.165 -2.5994 4.80722 0
M  V30 2068 H 187.259 -0.424267 0.709878 0
M  V30 2069 H 189.805 -0.143561 1.69092 0
M  V30 2070 H 188.577 -0.660846 3.85679 0
M  V30 2071 H 188.2 -2.27021 3.26416 0
M  V30 2072 N 189.197 -1.51736 -0.425897 0
M  V30 2073 C 190.608 -1.5732 -1.00536 0
M  V30 2074 C 190.959 -0.403537 -1.92005 0
M  V30 2075 O 190.084 0.478256 -2.11049 0
M  V30 2076 C 190.679 -2.85119 -1.8301 0
M  V30 2077 C 189.238 -2.93236 -2.35987 0
M  V30 2078 C 188.385 -2.52098 -1.15508 0
M  V30 2079 H 191.336 -1.57348 -0.206739 0
M  V30 2080 H 191.357 -2.69526 -2.68581 0
M  V30 2081 H 190.869 -3.7023 -1.16411 0
M  V30 2082 H 188.97 -2.12581 -3.06007 0
M  V30 2083 H 189.083 -3.9713 -2.68001 0
M  V30 2084 H 187.447 -2.05558 -1.50393 0
M  V30 2085 H 188.23 -3.39565 -0.505014 0
M  V30 2086 N 190.675 0.682077 -1.42076 0
M  V30 2087 C 192.091 0.994324 -1.24841 0
M  V30 2088 C 192.291 2.0096 -0.147389 0
M  V30 2089 O 191.347 2.47822 0.483782 0
M  V30 2090 C 192.66 1.50607 -2.60265 0
M  V30 2091 C 194.208 1.62421 -2.6756 0
M  V30 2092 C 194.683 2.16994 -4.03333 0
M  V30 2093 N 196.174 2.24337 -4.0525 0
M  V30 2094 C 196.909 2.67621 -5.07116 0
M  V30 2095 N 196.405 3.1041 -6.19368 0
M  V30 2096 N 198.198 2.67305 -4.94474 0
M  V30 2097 H 190.349 0.00973908 -2.12398 0
M  V30 2098 H 192.612 0.0668593 -0.945639 0
M  V30 2099 H 192.318 0.834583 -3.41654 0
M  V30 2100 H 192.192 2.48602 -2.83684 0
M  V30 2101 H 194.579 2.28678 -1.86521 0
M  V30 2102 H 194.66 0.629352 -2.47937 0
M  V30 2103 H 194.304 1.51349 -4.84826 0
M  V30 2104 H 194.234 3.17258 -4.20304 0
M  V30 2105 H 196.725 1.94158 -3.24209 0
M  V30 2106 H 197.038 3.42103 -6.92954 0
M  V30 2107 H 195.383 3.08286 -6.22884 0
M  V30 2108 H 198.574 2.33233 -4.05857 0
M  V30 2109 H 198.747 3.00718 -5.73997 0
M  V30 2110 N 192.153 1.28127 0.917671 0
M  V30 2111 C 193.393 1.163 1.68088 0
M  V30 2112 C 193.757 -0.284515 1.8988 0
M  V30 2113 O 194.958 -0.525413 2.63615 0
M  V30 2114 C 193.229 1.93546 3.00457 0
M  V30 2115 S 194.788 1.98048 3.91564 0
M  V30 2116 H 191.606 0.415005 0.577315 0
M  V30 2117 H 194.208 1.62173 1.09179 0
M  V30 2118 H 192.912 2.97888 2.82295 0
M  V30 2119 H 192.443 1.48207 3.64415 0
M  V30 2120 H 194.458 1.08415 4.84211 0
M  V30 2121 N 193.631 -1.12557 1.10312 0
M  V30 2122 C 194.856 -1.88405 0.867085 0
M  V30 2123 C 195.281 -1.79038 -0.576817 0
M  V30 2124 O 194.639 -1.14439 -1.40618 0
M  V30 2125 C 194.687 -3.3563 1.31851 0
M  V30 2126 O 193.791 -4.09565 0.482734 0
M  V30 2127 H 193.132 -0.585455 0.313271 0
M  V30 2128 H 195.662 -1.42352 1.4696 0
M  V30 2129 H 195.672 -3.86469 1.3079 0
M  V30 2130 H 194.347 -3.41765 2.37001 0
M  V30 2131 H 192.924 -3.68695 0.558448 0
M  V30 2132 N 195.109 -0.891671 -1.2995 0
M  V30 2133 C 196.337 -0.52866 -2.00032 0
M  V30 2134 C 196.752 0.884574 -1.66795 0
M  V30 2135 O 196.109 1.5827 -0.908669 0
M  V30 2136 C 196.16 -0.701814 -3.54622 0
M  V30 2137 O 195.881 -2.05942 -3.86678 0
M  V30 2138 C 197.382 -0.342683 -4.41973 0
M  V30 2139 H 194.602 -0.203659 -0.639347 0
M  V30 2140 H 197.146 -1.19881 -1.65677 0
M  V30 2141 H 195.301 -0.0789468 -3.8732 0
M  V30 2142 H 195.715 -2.08291 -4.81368 0
M  V30 2143 H 197.189 -0.514709 -5.49595 0
M  V30 2144 H 197.666 0.71975 -4.33262 0
M  V30 2145 H 198.272 -0.942154 -4.14733 0
M  V30 2146 N 196.587 1.43421 -0.653314 0
M  V30 2147 C 197.812 2.06678 -0.172846 0
M  V30 2148 C 198.237 1.48648 1.15262 0
M  V30 2149 O 197.595 0.596457 1.71208 0
M  V30 2150 C 197.643 3.60474 -0.0953184 0
M  V30 2151 O 196.747 4.01487 0.942442 0
M  V30 2152 H 196.088 0.657181 -0.0949155 0
M  V30 2153 H 198.618 1.83925 -0.896265 0
M  V30 2154 H 198.628 4.07905 0.0879728 0
M  V30 2155 H 197.303 4.02088 -1.06291 0
M  V30 2156 H 195.88 3.65646 0.731932 0
M  V30 2157 N 198.065 0.39524 1.52563 0
M  V30 2158 C 199.013 -0.451859 2.28169 0
M  V30 2159 C 200.007 -1.05792 1.32304 0
M  V30 2160 O 201.213 -0.997718 1.49818 0
M  V30 2161 H 197.588 -0.164481 0.733792 0
M  V30 2162 H 199.559 0.207199 2.9768 0
M  V30 2163 C 198.308 -1.56385 3.10546 0
M  V30 2164 H 197.631 -1.10682 3.84174 0
M  V30 2165 H 199.071 -2.13067 3.66577 0
M  V30 2166 C 197.53 -2.52328 2.23231 0
M  V30 2167 O 198.06 -3.5588 1.86312 0
M  V30 2168 N 196.266 -2.22209 1.87274 0
M  V30 2169 H 195.813 -1.38033 2.17496 0
M  V30 2170 H 195.771 -2.86652 1.29143 0
M  V30 2171 N 199.544 -1.57102 0.125237 0
M  V30 2172 C 200.492 -2.16905 -0.839927 0
M  V30 2173 C 201.486 -1.11998 -1.27094 0
M  V30 2174 O 202.692 -1.3029 -1.24195 0
M  V30 2175 H 199.067 -0.694252 -0.288995 0
M  V30 2176 H 201.038 -2.96774 -0.311115 0
M  V30 2177 C 199.787 -2.78795 -2.07771 0
M  V30 2178 H 199.11 -3.59221 -1.755 0
M  V30 2179 H 200.55 -3.2417 -2.73295 0
M  V30 2180 C 199.009 -1.76193 -2.87155 0
M  V30 2181 O 199.539 -1.21909 -3.82755 0
M  V30 2182 N 197.745 -1.45991 -2.51267 0
M  V30 2183 H 197.292 -1.90325 -1.73592 0
M  V30 2184 H 197.25 -0.775844 -3.04677 0
M  V30 2185 N 201.022 0.148545 -1.56898 0
M  V30 2186 C 202.438 0.501131 -1.51528 0
M  V30 2187 C 202.638 1.83458 -0.833399 0
M  V30 2188 O 201.694 2.49259 -0.40328 0
M  V30 2189 C 203.007 0.512864 -2.96294 0
M  V30 2190 C 204.555 0.598487 -3.07225 0
M  V30 2191 C 205.03 0.640897 -4.53494 0
M  V30 2192 N 206.521 0.703163 -4.57832 0
M  V30 2193 C 207.256 0.756935 -5.68382 0
M  V30 2194 N 206.752 0.770147 -6.88506 0
M  V30 2195 N 208.545 0.797698 -5.56411 0
M  V30 2196 H 200.696 -0.725532 -1.99624 0
M  V30 2197 H 202.959 -0.264358 -0.910395 0
M  V30 2198 H 202.665 -0.398691 -3.49433 0
M  V30 2199 H 202.539 1.35133 -3.52163 0
M  V30 2200 H 204.926 1.50046 -2.54106 0
M  V30 2201 H 205.007 -0.267093 -2.54402 0
M  V30 2202 H 204.651 -0.256915 -5.0725 0
M  V30 2203 H 204.581 1.52295 -5.04097 0
M  V30 2204 H 207.072 0.700314 -3.71354 0
M  V30 2205 H 207.385 0.812983 -7.68512 0
M  V30 2206 H 205.73 0.738049 -6.9107 0
M  V30 2207 H 208.921 0.784535 -4.61479 0
M  V30 2208 H 209.094 0.83614 -6.42583 0
M  V30 2209 N 202.5 1.5196 0.417844 0
M  V30 2210 C 203.43 1.77634 1.51554 0
M  V30 2211 C 204.411 0.626918 1.58126 0
M  V30 2212 O 205.596 0.871632 1.7354 0
M  V30 2213 C 202.726 1.91911 2.8946 0
M  V30 2214 C 201.68 3.07463 2.97743 0
M  V30 2215 C 201.006 3.06951 4.37819 0
M  V30 2216 C 202.306 4.47082 2.70027 0
M  V30 2217 H 204 2.6955 1.3032 0
M  V30 2218 H 201.546 1.29706 0.625492 0
M  V30 2219 H 203.499 2.08455 3.6623 0
M  V30 2220 H 202.223 0.966598 3.11969 0
M  V30 2221 H 200.882 2.90656 2.23416 0
M  V30 2222 H 200.53 2.09438 4.57323 0
M  V30 2223 H 200.23 3.84556 4.44286 0
M  V30 2224 H 201.754 3.25613 5.16535 0
M  V30 2225 H 203.168 4.6414 3.36522 0
M  V30 2226 H 201.565 5.2654 2.87881 0
M  V30 2227 H 202.635 4.55777 1.65514 0
M  V30 2228 N 203.978 -0.674533 1.42435 0
M  V30 2229 C 204.925 -1.78807 1.45934 0
M  V30 2230 C 205.895 -1.63157 0.311271 0
M  V30 2231 O 207.08 -1.83707 0.515383 0
M  V30 2232 C 204.22 -3.16839 1.36773 0
M  V30 2233 C 203.333 -3.43774 2.61617 0
M  V30 2234 C 202.468 -4.71536 2.44597 0
M  V30 2235 C 201.507 -4.91505 3.64814 0
M  V30 2236 N 200.644 -6.10508 3.46734 0
M  V30 2237 H 205.484 -1.75151 2.41093 0
M  V30 2238 H 203.021 -0.85504 1.19697 0
M  V30 2239 H 204.979 -3.96606 1.29459 0
M  V30 2240 H 203.609 -3.19619 0.452089 0
M  V30 2241 H 202.661 -2.58259 2.79297 0
M  V30 2242 H 203.973 -3.54423 3.50978 0
M  V30 2243 H 203.127 -5.59393 2.3487 0
M  V30 2244 H 201.866 -4.6317 1.52726 0
M  V30 2245 H 200.871 -4.0209 3.74972 0
M  V30 2246 H 202.096 -5.01716 4.57665 0
M  V30 2247 H 200.042 -6.03315 2.5758 0
M  V30 2248 H 199.959 -6.2202 4.29682 0
M  V30 2249 H 201.227 -7.01044 3.40819 0
M  V30 2250 N 205.456 -1.28612 -0.910864 0
M  V30 2251 C 206.419 -1.12803 -1.9952 0
M  V30 2252 C 207.419 -0.0668264 -1.60661 0
M  V30 2253 O 208.609 -0.312847 -1.71368 0
M  V30 2254 C 205.741 -0.72254 -3.33155 0
M  V30 2255 H 206.934 -2.09109 -2.14973 0
M  V30 2256 H 204.487 -1.11639 -1.09391 0
M  V30 2257 H 205.222 0.241152 -3.23402 0
M  V30 2258 H 205.007 -1.48916 -3.62721 0
M  V30 2259 H 206.497 -0.634666 -4.12749 0
M  V30 2260 N 206.934 1.1197 -1.10907 0
M  V30 2261 C 207.864 2.19928 -0.784473 0
M  V30 2262 C 208.845 1.6833 0.244726 0
M  V30 2263 O 210.03 1.93892 0.109418 0
M  V30 2264 C 207.16 3.46597 -0.220827 0
M  V30 2265 C 206.114 4.11376 -1.18127 0
M  V30 2266 C 205.44 5.32554 -0.478594 0
M  V30 2267 C 206.74 4.56945 -2.52979 0
M  V30 2268 H 208.434 2.47337 -1.68715 0
M  V30 2269 H 205.98 1.18879 -0.812642 0
M  V30 2270 H 207.933 4.21396 0.0184278 0
M  V30 2271 H 206.657 3.1863 0.717113 0
M  V30 2272 H 205.316 3.38564 -1.40606 0
M  V30 2273 H 204.964 5.00856 0.463976 0
M  V30 2274 H 204.664 5.76844 -1.11912 0
M  V30 2275 H 206.188 6.10096 -0.248 0
M  V30 2276 H 207.602 5.23093 -2.3462 0
M  V30 2277 H 205.999 5.1203 -3.12962 0
M  V30 2278 H 207.069 3.70676 -3.12614 0
M  V30 2279 N 208.412 0.89855 1.29475 0
M  V30 2280 C 209.344 0.332726 2.26772 0
M  V30 2281 C 210.357 -0.520323 1.54261 0
M  V30 2282 O 211.546 -0.337668 1.75277 0
M  V30 2283 C 208.646 -0.544334 3.345 0
M  V30 2284 C 207.819 0.282728 4.36485 0
M  V30 2285 C 206.878 -0.526982 5.23555 0
M  V30 2286 O 205.904 0.0551165 5.69173 0
M  V30 2287 N 207.106 -1.83331 5.5079 0
M  V30 2288 H 209.871 1.16897 2.75962 0
M  V30 2289 H 207.432 0.762919 1.42798 0
M  V30 2290 H 209.424 -1.09239 3.89678 0
M  V30 2291 H 207.994 -1.28127 2.85136 0
M  V30 2292 H 207.214 1.01221 3.80983 0
M  V30 2293 H 208.502 0.84918 5.01664 0
M  V30 2294 H 207.9 -2.32898 5.15534 0
M  V30 2295 H 206.457 -2.32852 6.08788 0
M  V30 2296 N 209.89 -1.43072 0.660911 0
M  V30 2297 C 210.837 -2.30785 -0.0259884 0
M  V30 2298 C 211.807 -1.45184 -0.806888 0
M  V30 2299 O 212.992 -1.74041 -0.781943 0
M  V30 2300 C 210.132 -3.30861 -0.981067 0
M  V30 2301 C 209.245 -4.31558 -0.195458 0
M  V30 2302 C 208.38 -5.18712 -1.14503 0
M  V30 2303 C 207.419 -6.11097 -0.350299 0
M  V30 2304 N 206.556 -6.90849 -1.25186 0
M  V30 2305 H 211.396 -2.88975 0.727846 0
M  V30 2306 H 208.933 -1.42353 0.370682 0
M  V30 2307 H 210.891 -3.87399 -1.54849 0
M  V30 2308 H 209.521 -2.74304 -1.70169 0
M  V30 2309 H 208.573 -3.77252 0.488374 0
M  V30 2310 H 209.885 -4.9701 0.422176 0
M  V30 2311 H 209.039 -5.79914 -1.78284 0
M  V30 2312 H 207.778 -4.53404 -1.79656 0
M  V30 2313 H 206.783 -5.48976 0.300808 0
M  V30 2314 H 208.008 -6.7845 0.296941 0
M  V30 2315 H 205.954 -6.28182 -1.89005 0
M  V30 2316 H 205.871 -7.52854 -0.688971 0
M  V30 2317 H 207.139 -7.5655 -1.87757 0
M  V30 2318 N 211.368 -0.403325 -1.52352 0
M  V30 2319 C 212.3 0.4603 -2.2453 0
M  V30 2320 C 213.313 1.01505 -1.27282 0
M  V30 2321 O 214.502 0.914982 -1.53266 0
M  V30 2322 C 211.602 1.65208 -2.95905 0
M  V30 2323 C 210.775 1.22224 -4.19976 0
M  V30 2324 C 209.834 2.28028 -4.74226 0
M  V30 2325 O 208.86 1.88857 -5.36956 0
M  V30 2326 N 210.062 3.6012 -4.55295 0
M  V30 2327 H 212.827 -0.158156 -2.99282 0
M  V30 2328 H 210.388 -0.230402 -1.60252 0
M  V30 2329 H 212.38 2.35541 -3.29093 0
M  V30 2330 H 210.95 2.17658 -2.24374 0
M  V30 2331 H 210.17 0.34725 -3.92668 0
M  V30 2332 H 211.458 0.911924 -5.00561 0
M  V30 2333 H 210.856 3.94698 -4.05253 0
M  V30 2334 H 209.413 4.26447 -4.92936 0
M  V30 2335 N 212.846 1.57033 -0.133567 0
M  V30 2336 C 213.776 2.1909 0.807567 0
M  V30 2337 C 214.757 1.13517 1.26681 0
M  V30 2338 O 215.942 1.41809 1.32679 0
M  V30 2339 C 213.072 2.80188 2.05212 0
M  V30 2340 C 212.026 3.91471 1.73015 0
M  V30 2341 C 211.352 4.39443 3.04622 0
M  V30 2342 C 212.652 5.12886 0.987168 0
M  V30 2343 H 214.346 2.97988 0.290403 0
M  V30 2344 H 211.892 1.43335 0.138239 0
M  V30 2345 H 213.845 3.22264 2.71521 0
M  V30 2346 H 212.569 1.98601 2.59278 0
M  V30 2347 H 211.228 3.49993 1.0909 0
M  V30 2348 H 210.876 3.54695 3.56651 0
M  V30 2349 H 210.576 5.14495 2.83847 0
M  V30 2350 H 212.1 4.8418 3.72024 0
M  V30 2351 H 213.514 5.51891 1.55208 0
M  V30 2352 H 211.911 5.93615 0.87985 0
M  V30 2353 H 212.981 4.84894 -0.0235286 0
M  V30 2354 N 214.325 -0.140222 1.56975 0
M  V30 2355 C 215.602 -0.880769 1.74648 0
M  V30 2356 C 215.982 -1.99036 0.703404 0
M  V30 2357 O 215.33 -2.26821 -0.27648 0
M  V30 2358 C 215.54 -1.417 3.18939 0
M  V30 2359 C 216.888 -1.87774 3.80823 0
M  V30 2360 O 217.912 -1.51427 3.2241 0
M  V30 2361 O 216.771 -2.54827 4.83452 0
M  V30 2362 H 213.865 -0.416713 0.714338 0
M  V30 2363 H 216.411 -0.125618 1.69234 0
M  V30 2364 H 215.183 -0.619902 3.86359 0
M  V30 2365 H 214.806 -2.23546 3.28805 0
M  V30 2366 N 215.803 -1.52179 -0.40978 0
M  V30 2367 C 217.052 -1.65434 -1.15388 0
M  V30 2368 C 217.365 -0.390056 -1.91671 0
M  V30 2369 O 218.571 -0.402399 -2.68501 0
M  V30 2370 C 217.027 -2.92279 -2.10003 0
M  V30 2371 C 216.635 -4.25813 -1.39239 0
M  V30 2372 C 218.379 -3.14897 -2.84675 0
M  V30 2373 C 216.286 -5.43782 -2.32498 0
M  V30 2374 H 215.216 -0.616267 -0.434432 0
M  V30 2375 H 217.867 -1.78666 -0.418401 0
M  V30 2376 H 216.249 -2.72744 -2.871 0
M  V30 2377 H 217.423 -4.55828 -0.675099 0
M  V30 2378 H 215.738 -4.09292 -0.766097 0
M  V30 2379 H 218.335 -4.0021 -3.54593 0
M  V30 2380 H 218.678 -2.29103 -3.47588 0
M  V30 2381 H 219.211 -3.34901 -2.14677 0
M  V30 2382 H 215.95 -6.3192 -1.74233 0
M  V30 2383 H 215.47 -5.18106 -3.02201 0
M  V30 2384 H 217.149 -5.76834 -2.93038 0
M  V30 2385 N 217.281 0.66697 -1.42791 0
M  V30 2386 C 218.191 1.80962 -1.49299 0
M  V30 2387 C 219.207 1.69775 -0.381108 0
M  V30 2388 O 220.383 1.91188 -0.633188 0
M  V30 2389 C 217.448 3.17156 -1.40045 0
M  V30 2390 C 216.509 3.40242 -2.6179 0
M  V30 2391 C 215.742 4.69939 -2.52969 0
M  V30 2392 O 215.965 5.48372 -1.56985 0
M  V30 2393 O 214.899 4.94441 -3.43237 0
M  V30 2394 H 218.725 1.78427 -2.45759 0
M  V30 2395 H 216.31 0.823713 -1.24641 0
M  V30 2396 H 218.192 3.98413 -1.37276 0
M  V30 2397 H 216.867 3.20312 -0.467138 0
M  V30 2398 H 215.774 2.58802 -2.70134 0
M  V30 2399 H 217.107 3.41923 -3.54047 0
M  V30 2400 N 218.759 1.29093 0.90403 0
M  V30 2401 C 219.689 1.16401 2.02418 0
M  V30 2402 C 220.67 0.0593085 1.69997 0
M  V30 2403 O 221.855 0.238021 1.92736 0
M  V30 2404 C 218.985 0.835233 3.37107 0
M  V30 2405 C 217.939 1.89578 3.83724 0
M  V30 2406 C 217.265 1.42041 5.15489 0
M  V30 2407 C 218.565 3.30394 4.04521 0
M  V30 2408 H 220.259 2.10109 2.13295 0
M  V30 2409 H 217.805 1.01157 1.02486 0
M  V30 2410 H 219.758 0.733169 4.14973 0
M  V30 2411 H 218.482 -0.137543 3.2631 0
M  V30 2412 H 217.141 1.98715 3.08071 0
M  V30 2413 H 216.789 0.436426 5.01103 0
M  V30 2414 H 216.489 2.12964 5.4765 0
M  V30 2415 H 218.013 1.33176 5.959 0
M  V30 2416 H 219.427 3.24123 4.72882 0
M  V30 2417 H 217.824 3.99237 4.48029 0
M  V30 2418 H 218.894 3.73692 3.09002 0
M  V30 2419 N 220.237 -1.11381 1.11499 0
M  V30 2420 C 221.184 -2.17439 0.773887 0
M  V30 2421 C 222.154 -1.64132 -0.254899 0
M  V30 2422 O 223.339 -1.90345 -0.13168 0
M  V30 2423 C 220.479 -3.44373 0.223917 0
M  V30 2424 C 219.592 -4.1168 1.30934 0
M  V30 2425 C 218.727 -5.263 0.71984 0
M  V30 2426 C 217.766 -5.85493 1.78507 0
M  V30 2427 N 216.903 -6.91507 1.21502 0
M  V30 2428 H 221.743 -2.45962 1.68246 0
M  V30 2429 H 219.28 -1.20744 0.840191 0
M  V30 2430 H 221.238 -4.17047 -0.112921 0
M  V30 2431 H 219.868 -3.16232 -0.647851 0
M  V30 2432 H 218.92 -3.37073 1.76312 0
M  V30 2433 H 220.232 -4.51729 2.11524 0
M  V30 2434 H 219.386 -6.05785 0.333094 0
M  V30 2435 H 218.125 -4.87559 -0.117377 0
M  V30 2436 H 217.13 -5.04686 2.18111 0
M  V30 2437 H 218.355 -6.26301 2.62533 0
M  V30 2438 H 216.301 -6.54783 0.399455 0
M  V30 2439 H 216.218 -7.30214 1.95763 0
M  V30 2440 H 217.486 -7.74795 0.855181 0
M  V30 2441 N 221.715 -0.905404 -1.28997 0
M  V30 2442 C 222.961 -0.535039 -1.95615 0
M  V30 2443 C 223.294 0.917404 -1.71165 0
M  V30 2444 O 222.569 1.65123 -1.02785 0
M  V30 2445 C 222.852 -0.834918 -3.50287 0
M  V30 2446 C 222.705 -2.33948 -3.84172 0
M  V30 2447 C 224.024 -0.325318 -4.38896 0
M  V30 2448 H 221.143 -0.195861 -0.710498 0
M  V30 2449 H 223.785 -1.13313 -1.52513 0
M  V30 2450 H 221.935 -0.325904 -3.87131 0
M  V30 2451 H 223.607 -2.91847 -3.57243 0
M  V30 2452 H 221.85 -2.79789 -3.31513 0
M  V30 2453 H 222.521 -2.49987 -4.92149 0
M  V30 2454 H 224.997 -0.761256 -4.09077 0
M  V30 2455 H 223.873 -0.564295 -5.45992 0
M  V30 2456 H 224.134 0.774144 -4.35269 0
M  V30 2457 N 223.193 1.4272 -0.668489 0
M  V30 2458 C 224.14 2.30796 0.0137489 0
M  V30 2459 C 225.11 1.4561 0.799177 0
M  V30 2460 O 226.295 1.74453 0.772702 0
M  V30 2461 C 223.435 3.31377 0.963507 0
M  V30 2462 C 222.548 4.31655 0.172569 0
M  V30 2463 C 221.683 5.19312 1.1175 0
M  V30 2464 C 220.722 6.11274 0.317886 0
M  V30 2465 N 219.859 6.91504 1.2152 0
M  V30 2466 H 224.699 2.88585 -0.743161 0
M  V30 2467 H 222.236 1.42154 -0.378226 0
M  V30 2468 H 224.194 3.88214 1.52792 0
M  V30 2469 H 222.824 2.75202 1.68712 0
M  V30 2470 H 221.876 3.76988 -0.508374 0
M  V30 2471 H 223.188 4.96779 -0.448527 0
M  V30 2472 H 222.342 5.80851 1.75206 0
M  V30 2473 H 221.081 4.5435 1.77249 0
M  V30 2474 H 220.086 5.48809 -0.329918 0
M  V30 2475 H 221.311 6.78283 -0.332917 0
M  V30 2476 H 219.257 6.29176 1.85671 0
M  V30 2477 H 219.174 7.53209 0.649036 0
M  V30 2478 H 220.442 7.57535 1.83742 0
M  V30 2479 N 224.671 0.411399 1.52136 0
M  V30 2480 C 225.603 -0.448386 2.24771 0
M  V30 2481 C 226.616 -1.00828 1.27818 0
M  V30 2482 O 227.805 -0.906841 1.53749 0
M  V30 2483 C 224.905 -1.63636 2.96777 0
M  V30 2484 C 224.078 -1.19995 4.20618 0
M  V30 2485 C 223.137 -2.25509 4.75428 0
M  V30 2486 O 222.163 -1.86007 5.3795 0
M  V30 2487 N 223.365 -3.577 4.57199 0
M  V30 2488 H 226.13 0.174025 2.99194 0
M  V30 2489 H 223.691 0.238897 1.60128 0
M  V30 2490 H 225.683 -2.33793 3.30338 0
M  V30 2491 H 224.253 -2.16465 2.25526 0
M  V30 2492 H 223.473 -0.326421 3.92846 0
M  V30 2493 H 224.761 -0.885365 5.01038 0
M  V30 2494 H 224.159 -3.92543 4.07341 0
M  V30 2495 H 222.716 -4.23827 4.95191 0
M  V30 2496 N 226.149 -1.5696 0.141893 0
M  V30 2497 C 227.397 -1.95573 -0.509484 0
M  V30 2498 C 227.718 -1.02746 -1.65736 0
M  V30 2499 O 226.988 -0.0880311 -1.95702 0
M  V30 2500 H 225.568 -0.722115 -0.191205 0
M  V30 2501 H 228.23 -1.93697 0.216196 0
M  V30 2502 H 227.326 -2.99171 -0.889 0
M  V30 2503 N 227.627 0.131896 -1.57047 0
M  V30 2504 C 228.59 1.14638 -1.98471 0
M  V30 2505 C 229.59 1.35029 -0.873148 0
M  V30 2506 O 230.78 1.31764 -1.13946 0
M  V30 2507 C 227.912 2.50358 -2.31373 0
M  V30 2508 H 229.105 0.79064 -2.8929 0
M  V30 2509 H 226.658 0.375761 -1.51716 0
M  V30 2510 H 227.393 2.90876 -1.43393 0
M  V30 2511 H 227.178 2.36915 -3.12432 0
M  V30 2512 H 228.668 3.23395 -2.64207 0
M  V30 2513 N 229.106 1.52395 0.401703 0
M  V30 2514 C 230.016 1.7917 1.51444 0
M  V30 2515 C 231.032 0.677691 1.6026 0
M  V30 2516 O 232.208 0.963909 1.76835 0
M  V30 2517 C 229.273 1.94347 2.87107 0
M  V30 2518 C 228.334 3.18257 2.88116 0
M  V30 2519 C 227.567 3.32701 4.17308 0
M  V30 2520 O 227.79 2.52238 5.11598 0
M  V30 2521 O 226.724 4.25891 4.25324 0
M  V30 2522 H 230.55 2.73633 1.31752 0
M  V30 2523 H 228.135 1.3733 0.588296 0
M  V30 2524 H 230.017 2.06109 3.67555 0
M  V30 2525 H 228.692 1.03073 3.06851 0
M  V30 2526 H 227.599 3.11947 2.06494 0
M  V30 2527 H 228.932 4.09336 2.73322 0
M  V30 2528 N 230.584 -0.659388 1.43143 0
M  V30 2529 C 231.532 -1.79374 1.4808 0
M  V30 2530 C 232.526 -1.65639 0.354988 0
M  V30 2531 O 233.732 -1.7206 0.528704 0
M  V30 2532 H 230.107 -0.591705 0.4641 0
M  V30 2533 H 232.078 -1.72329 2.43609 0
M  V30 2534 C 230.827 -3.17606 1.41499 0
M  V30 2535 H 230.15 -3.28809 2.27431 0
M  V30 2536 H 231.59 -3.96951 1.49015 0
M  V30 2537 C 230.049 -3.36642 0.131765 0
M  V30 2538 O 230.579 -3.93461 -0.809386 0
M  V30 2539 N 228.785 -2.90567 0.0439396 0
M  V30 2540 H 228.332 -2.44513 0.810619 0
M  V30 2541 H 228.29 -3.03681 -0.813969 0
M  V30 2542 N 232.062 -1.29571 -0.897171 0
M  V30 2543 C 232.995 -1.0924 -2.00354 0
M  V30 2544 C 233.973 -0.00354011 -1.626 0
M  V30 2545 O 235.157 -0.15473 -1.87864 0
M  V30 2546 C 232.284 -0.66352 -3.32137 0
M  V30 2547 C 231.33 -1.75146 -3.88878 0
M  V30 2548 S 232.163 -3.35124 -4.17674 0
M  V30 2549 C 233.319 -2.9411 -5.52494 0
M  V30 2550 H 233.552 -2.02907 -2.17292 0
M  V30 2551 H 231.085 -1.13746 -1.04408 0
M  V30 2552 H 233.043 -0.422791 -4.08317 0
M  V30 2553 H 231.704 0.253588 -3.13075 0
M  V30 2554 H 230.897 -1.40337 -4.84068 0
M  V30 2555 H 230.499 -1.94584 -3.19395 0
M  V30 2556 H 232.791 -2.41312 -6.33068 0
M  V30 2557 H 233.734 -3.88161 -5.9223 0
M  V30 2558 H 234.142 -2.32332 -5.14473 0
M  V30 2559 N 233.54 1.10788 -1.12088 0
M  V30 2560 C 234.789 1.82036 -0.868659 0
M  V30 2561 C 235.102 1.85929 0.607426 0
M  V30 2562 O 236.308 2.53346 0.97613 0
M  V30 2563 C 234.764 3.26951 -1.50435 0
M  V30 2564 C 234.372 3.31367 -3.01496 0
M  V30 2565 C 236.116 4.03053 -1.33225 0
M  V30 2566 C 234.023 4.7072 -3.58017 0
M  V30 2567 H 232.953 0.682108 -0.321318 0
M  V30 2568 H 235.604 1.24618 -1.34694 0
M  V30 2569 H 233.986 3.84343 -0.953735 0
M  V30 2570 H 235.16 2.83819 -3.6302 0
M  V30 2571 H 233.475 2.6875 -3.18061 0
M  V30 2572 H 236.072 5.05981 -1.72878 0
M  V30 2573 H 236.415 4.15387 -0.275529 0
M  V30 2574 H 236.948 3.52066 -1.85188 0
M  V30 2575 H 233.687 4.63585 -4.63432 0
M  V30 2576 H 233.207 5.1865 -3.01268 0
M  V30 2577 H 234.886 5.39685 -3.56859 0
M  V30 2578 N 235.018 0.912232 1.28515 0
M  V30 2579 C 235.95 0.35676 2.26406 0
M  V30 2580 C 236.963 -0.503933 1.54804 0
M  V30 2581 O 238.152 -0.319059 1.75625 0
M  V30 2582 C 235.252 -0.508825 3.35058 0
M  V30 2583 C 234.425 0.329007 4.36161 0
M  V30 2584 C 233.484 -0.471422 5.24084 0
M  V30 2585 O 232.51 0.115482 5.69083 0
M  V30 2586 N 233.712 -1.77479 5.52704 0
M  V30 2587 H 236.477 1.19818 2.74707 0
M  V30 2588 H 234.038 0.778022 1.4198 0
M  V30 2589 H 236.03 -1.051 3.90815 0
M  V30 2590 H 234.6 -1.25095 2.86478 0
M  V30 2591 H 233.82 1.05256 3.79888 0
M  V30 2592 H 235.108 0.90234 5.00735 0
M  V30 2593 H 234.506 -2.27417 5.17975 0
M  V30 2594 H 233.063 -2.26382 6.11224 0
M  V30 2595 N 236.496 -1.42363 0.676048 0
M  V30 2596 C 237.429 -2.28141 -0.0516916 0
M  V30 2597 C 238.407 -1.41135 -0.807439 0
M  V30 2598 O 239.591 -1.70573 -0.802305 0
M  V30 2599 C 236.718 -3.21007 -1.08039 0
M  V30 2600 C 235.764 -4.24426 -0.420076 0
M  V30 2601 S 236.597 -5.29134 0.823246 0
M  V30 2602 C 237.753 -6.25566 -0.204344 0
M  V30 2603 H 237.986 -2.89515 0.675884 0
M  V30 2604 H 235.519 -1.47211 0.465635 0
M  V30 2605 H 237.477 -3.75048 -1.66881 0
M  V30 2606 H 236.138 -2.58766 -1.78042 0
M  V30 2607 H 235.331 -4.89596 -1.19633 0
M  V30 2608 H 234.933 -3.7388 0.0947845 0
M  V30 2609 H 237.225 -6.69098 -1.06369 0
M  V30 2610 H 238.168 -7.06895 0.412915 0
M  V30 2611 H 238.576 -5.61811 -0.55038 0
M  V30 2612 N 237.974 -0.419461 -1.51915 0
M  V30 2613 C 239.204 0.151915 -2.06041 0
M  V30 2614 C 239.612 1.38539 -1.28855 0
M  V30 2615 O 238.955 1.80592 -0.336463 0
M  V30 2616 C 239.017 0.557119 -3.55157 0
M  V30 2617 C 238.681 -0.567054 -4.53468 0
M  V30 2618 C 239.678 -1.43379 -4.99738 0
M  V30 2619 C 237.363 -0.742693 -4.96779 0
M  V30 2620 C 239.357 -2.46102 -5.87973 0
M  V30 2621 C 237.044 -1.77322 -5.84808 0
M  V30 2622 C 238.042 -2.63078 -6.30301 0
M  V30 2623 O 237.73 -3.64364 -7.16585 0
M  V30 2624 H 237.462 0.0193293 -0.675724 0
M  V30 2625 H 240.016 -0.592073 -1.96682 0
M  V30 2626 H 238.246 1.35355 -3.62238 0
M  V30 2627 H 239.935 1.05759 -3.9188 0
M  V30 2628 H 240.701 -1.30954 -4.66986 0
M  V30 2629 H 236.58 -0.0848307 -4.60922 0
M  V30 2630 H 240.124 -3.13071 -6.23404 0
M  V30 2631 H 236.021 -1.89773 -6.16974 0
M  V30 2632 H 236.789 -3.60731 -7.34721 0
M  V30 2633 N 239.452 1.56882 -0.150215 0
M  V30 2634 C 240.677 2.01027 0.510184 0
M  V30 2635 C 241.102 1.02966 1.57415 0
M  V30 2636 O 240.46 0.00590158 1.81299 0
M  V30 2637 C 240.508 3.43899 1.08472 0
M  V30 2638 O 239.612 3.4885 2.19948 0
M  V30 2639 H 238.953 0.652233 0.124451 0
M  V30 2640 H 241.483 2.03093 -0.247894 0
M  V30 2641 H 241.493 3.82766 1.41259 0
M  V30 2642 H 240.168 4.14776 0.305582 0
M  V30 2643 H 238.745 3.21827 1.88366 0
M  V30 2644 N 240.93 -0.123565 1.57115 0
M  V30 2645 C 241.878 -1.17082 2.00984 0
M  V30 2646 C 242.872 -1.43136 0.906009 0
M  V30 2647 O 244.078 -1.43152 1.09121 0
M  V30 2648 H 240.453 -0.394653 0.64012 0
M  V30 2649 H 242.424 -0.774292 2.88179 0
M  V30 2650 C 241.173 -2.49057 2.42623 0
M  V30 2651 H 240.496 -2.29846 3.27125 0
M  V30 2652 H 241.936 -3.20906 2.7712 0
M  V30 2653 C 240.395 -3.11305 1.28805 0
M  V30 2654 O 240.925 -3.97171 0.60153 0
M  V30 2655 N 239.131 -2.71111 1.04628 0
M  V30 2656 H 238.678 -2.01382 1.60634 0
M  V30 2657 H 238.636 -3.1309 0.286685 0
M  V30 2658 N 242.408 -1.52605 -0.393616 0
M  V30 2659 C 243.656 -1.67093 -1.13685 0
M  V30 2660 C 243.977 -0.411011 -1.90619 0
M  V30 2661 O 243.247 0.574491 -1.87287 0
M  V30 2662 H 241.827 -0.615923 -0.422668 0
M  V30 2663 H 244.489 -1.89704 -0.447039 0
M  V30 2664 H 243.585 -2.51922 -1.84232 0
M  V30 2665 N 243.887 0.651787 -1.4349 0
M  V30 2666 C 245.112 1.44434 -1.48841 0
M  V30 2667 C 245.537 1.8779 -0.107955 0
M  V30 2668 O 244.895 1.57464 0.898602 0
M  V30 2669 C 244.943 2.65458 -2.44059 0
M  V30 2670 O 244.047 3.64566 -1.92784 0
M  V30 2671 H 243.388 0.433005 -0.503391 0
M  V30 2672 H 245.918 0.797451 -1.88419 0
M  V30 2673 H 245.928 3.13255 -2.6141 0
M  V30 2674 H 244.603 2.33244 -3.4434 0
M  V30 2675 H 243.18 3.23716 -1.851 0
M  V30 2676 N 245.365 1.30045 0.890287 0
M  V30 2677 C 246.59 1.21598 1.68014 0
M  V30 2678 C 247.015 -0.218678 1.86825 0
M  V30 2679 O 246.373 -1.15756 1.39536 0
M  V30 2680 C 246.421 1.94434 3.03691 0
M  V30 2681 O 245.525 1.2678 3.92429 0
M  V30 2682 H 244.866 0.420856 0.513592 0
M  V30 2683 H 247.396 1.71775 1.11151 0
M  V30 2684 H 247.406 2.03251 3.5377 0
M  V30 2685 H 246.081 2.98777 2.89318 0
M  V30 2686 H 244.658 1.26282 3.50866 0
M  V30 2687 N 246.843 -1.10192 1.12674 0
M  V30 2688 C 247.79 -2.16606 0.796906 0
M  V30 2689 C 248.76 -1.64394 -0.237476 0
M  V30 2690 O 249.945 -1.90474 -0.111484 0
M  V30 2691 C 247.085 -3.44116 0.26043 0
M  V30 2692 C 246.198 -4.10268 1.35293 0
M  V30 2693 C 245.333 -5.25507 0.775621 0
M  V30 2694 C 244.372 -5.83567 1.84706 0
M  V30 2695 N 243.509 -6.90179 1.28829 0
M  V30 2696 H 248.349 -2.44163 1.70846 0
M  V30 2697 H 245.886 -1.19846 0.85295 0
M  V30 2698 H 247.844 -4.17143 -0.0686814 0
M  V30 2699 H 246.474 -3.16901 -0.614274 0
M  V30 2700 H 245.526 -3.35184 1.79877 0
M  V30 2701 H 246.838 -4.4946 2.16303 0
M  V30 2702 H 245.992 -6.05398 0.397327 0
M  V30 2703 H 244.731 -4.87656 -0.0656581 0
M  V30 2704 H 243.736 -5.02344 2.23452 0
M  V30 2705 H 244.961 -6.23482 2.69161 0
M  V30 2706 H 242.907 -6.54322 0.468881 0
M  V30 2707 H 242.824 -7.28097 2.03497 0
M  V30 2708 H 244.092 -7.73844 0.937311 0
M  V30 2709 N 248.321 -0.919034 -1.28029 0
M  V30 2710 C 249.598 -0.473668 -1.89778 0
M  V30 2711 C 249.978 1.04783 -1.83259 0
M  V30 2712 O 249.326 1.8982 -1.27202 0
M  V30 2713 C 249.536 -1.00998 -3.34066 0
M  V30 2714 C 250.884 -1.06525 -4.1102 0
M  V30 2715 O 251.908 -0.958996 -3.43048 0
M  V30 2716 O 250.767 -1.22776 -5.3253 0
M  V30 2717 H 247.861 -0.15098 -0.813101 0
M  V30 2718 H 250.407 -1.01016 -1.36359 0
M  V30 2719 H 249.179 -2.05392 -3.33061 0
M  V30 2720 H 248.802 -0.454626 -3.94992 0
M  V30 2721 N 249.799 1.42003 -0.683588 0
M  V30 2722 C 251.215 1.55625 -0.353976 0
M  V30 2723 C 251.415 1.66151 1.14 0
M  V30 2724 O 250.471 1.63329 1.92561 0
M  V30 2725 C 251.784 2.80171 -1.092 0
M  V30 2726 C 253.332 2.93954 -1.07518 0
M  V30 2727 C 253.807 4.21372 -1.79471 0
M  V30 2728 N 255.298 4.28303 -1.76381 0
M  V30 2729 C 256.033 5.25729 -2.28904 0
M  V30 2730 N 255.529 6.29254 -2.89846 0
M  V30 2731 N 257.322 5.17586 -2.19228 0
M  V30 2732 H 249.473 1.33415 -1.6527 0
M  V30 2733 H 251.736 0.64282 -0.696769 0
M  V30 2734 H 251.442 2.78561 -2.14701 0
M  V30 2735 H 251.316 3.7133 -0.662862 0
M  V30 2736 H 253.703 2.95086 -0.028475 0
M  V30 2737 H 253.784 2.04002 -1.54328 0
M  V30 2738 H 253.428 4.21001 -2.84114 0
M  V30 2739 H 253.358 5.10275 -1.30104 0
M  V30 2740 H 255.849 3.54119 -1.31939 0
M  V30 2741 H 256.162 6.99964 -3.27522 0
M  V30 2742 H 254.507 6.29791 -2.93919 0
M  V30 2743 H 257.698 4.35631 -1.71299 0
M  V30 2744 H 257.871 5.93348 -2.60466 0
M  V30 2745 N 251.277 0.427512 1.51691 0
M  V30 2746 C 252.224 -0.388867 2.275 0
M  V30 2747 C 253.194 -1.02532 1.30677 0
M  V30 2748 O 254.379 -1.0461 1.59566 0
M  V30 2749 C 251.519 -1.48954 3.11298 0
M  V30 2750 C 250.632 -0.872194 4.23104 0
M  V30 2751 C 249.767 -1.94709 4.94228 0
M  V30 2752 C 248.806 -1.30766 5.97969 0
M  V30 2753 N 247.943 -2.32349 6.62539 0
M  V30 2754 H 252.783 0.263997 2.96828 0
M  V30 2755 H 250.32 0.142033 1.46413 0
M  V30 2756 H 252.278 -2.13887 3.58201 0
M  V30 2757 H 250.908 -2.11217 2.44105 0
M  V30 2758 H 249.96 -0.111419 3.80237 0
M  V30 2759 H 251.272 -0.365264 4.97461 0
M  V30 2760 H 250.426 -2.67327 5.44629 0
M  V30 2761 H 249.165 -2.48773 4.1948 0
M  V30 2762 H 248.17 -0.566902 5.4687 0
M  V30 2763 H 249.395 -0.774483 6.74669 0
M  V30 2764 H 247.341 -2.85511 5.90609 0
M  V30 2765 H 247.258 -1.8652 7.3263 0
M  V30 2766 H 248.526 -3.04481 7.17574 0
M  V30 2767 N 252.755 -1.56801 0.158532 0
M  V30 2768 C 253.685 -2.20347 -0.772609 0
M  V30 2769 C 254.666 -1.15518 -1.24859 0
M  V30 2770 O 255.851 -1.43902 -1.30406 0
M  V30 2771 C 252.981 -2.83417 -2.00729 0
M  V30 2772 C 251.935 -3.94174 -1.66765 0
M  V30 2773 C 251.261 -4.44233 -2.97592 0
M  V30 2774 C 252.561 -5.14392 -0.905447 0
M  V30 2775 H 254.255 -2.98413 -0.242959 0
M  V30 2776 H 251.801 -1.43537 -0.115419 0
M  V30 2777 H 253.754 -3.26543 -2.6636 0
M  V30 2778 H 252.478 -2.02701 -2.56086 0
M  V30 2779 H 251.137 -3.51684 -1.03508 0
M  V30 2780 H 250.785 -3.60325 -3.50963 0
M  V30 2781 H 250.485 -5.18945 -2.75626 0
M  V30 2782 H 252.009 -4.90037 -3.64274 0
M  V30 2783 H 253.423 -5.5429 -1.46408 0
M  V30 2784 H 251.82 -5.9494 -0.7853 0
M  V30 2785 H 252.89 -4.84795 0.100668 0
M  V30 2786 N 254.233 0.115231 -1.57178 0
M  V30 2787 C 255.183 1.14707 -1.97044 0
M  V30 2788 C 256.167 1.36866 -0.845957 0
M  V30 2789 O 257.359 1.37895 -1.10968 0
M  V30 2790 C 254.488 2.47266 -2.38148 0
M  V30 2791 C 253.574 2.28566 -3.57237 0
M  V30 2792 N 253.965 1.79685 -4.72807 0
M  V30 2793 C 252.263 2.59208 -3.62943 0
M  V30 2794 C 252.964 1.74781 -5.54821 0
M  V30 2795 N 251.94 2.19264 -4.97417 0
M  V30 2796 H 255.742 0.761754 -2.83857 0
M  V30 2797 H 253.256 0.322928 -1.59157 0
M  V30 2798 H 255.253 3.219 -2.64927 0
M  V30 2799 H 253.913 2.86552 -1.52702 0
M  V30 2800 H 254.924 1.49177 -4.9595 0
M  V30 2801 H 251.601 3.02154 -2.88113 0
M  V30 2802 H 252.991 1.38212 -6.57531 0
M  V30 2803 N 255.711 1.52812 0.385517 0
M  V30 2804 C 256.959 1.67694 1.12797 0
M  V30 2805 C 257.28 0.421115 1.90399 0
M  V30 2806 O 256.55 -0.564551 1.87589 0
M  V30 2807 H 255.13 0.618155 0.419396 0
M  V30 2808 H 257.792 1.89938 0.436972 0
M  V30 2809 H 256.888 2.52896 1.82894 0
M  V30 2810 N 257.189 -0.644168 1.43834 0
M  V30 2811 C 258.417 -1.43147 1.49387 0
M  V30 2812 C 258.832 -1.88452 0.114583 0
M  V30 2813 O 258.189 -1.60047 -0.876989 0
M  V30 2814 C 258.24 -2.66046 2.44748 0
M  V30 2815 O 257.961 -2.22633 3.77314 0
M  V30 2816 C 259.462 -3.59311 2.59635 0
M  V30 2817 H 256.682 -0.439447 0.507077 0
M  V30 2818 H 259.226 -0.78895 1.88669 0
M  V30 2819 H 257.381 -3.26418 2.08638 0
M  V30 2820 H 257.795 -3.02216 4.28679 0
M  V30 2821 H 259.269 -4.42187 3.30416 0
M  V30 2822 H 259.746 -4.07259 1.64427 0
M  V30 2823 H 260.352 -3.04816 2.96593 0
M  V30 2824 N 258.668 -1.30515 -0.883378 0
M  V30 2825 C 259.631 -1.1701 -1.97082 0
M  V30 2826 C 260.631 -0.10089 -1.60483 0
M  V30 2827 O 261.821 -0.349127 -1.70666 0
M  V30 2828 C 258.953 -0.793045 -3.31547 0
M  V30 2829 H 260.146 -2.13622 -2.10489 0
M  V30 2830 H 257.699 -1.13935 -1.06998 0
M  V30 2831 H 258.434 0.172499 -3.23841 0
M  V30 2832 H 258.219 -1.56576 -3.5948 0
M  V30 2833 H 259.709 -0.722073 -4.1131 0
M  V30 2834 N 260.146 1.09593 -1.13257 0
M  V30 2835 C 261.078 2.16015 -0.766167 0
M  V30 2836 C 262.091 1.61423 0.211303 0
M  V30 2837 O 263.28 1.78498 -0.00863946 0
M  V30 2838 C 260.38 3.38706 -0.114662 0
M  V30 2839 C 259.553 4.22717 -1.12379 0
M  V30 2840 C 258.612 5.23835 -0.498301 0
M  V30 2841 O 257.638 5.573 -1.15781 0
M  V30 2842 N 258.84 5.75886 0.730417 0
M  V30 2843 H 261.605 2.48055 -1.68193 0
M  V30 2844 H 259.166 1.25292 -1.02535 0
M  V30 2845 H 261.158 4.03464 0.315991 0
M  V30 2846 H 259.728 3.04569 0.704011 0
M  V30 2847 H 258.948 3.54122 -1.73179 0
M  V30 2848 H 260.236 4.75673 -1.80589 0
M  V30 2849 H 259.634 5.50911 1.28504 0
M  V30 2850 H 258.191 6.42387 1.10376 0
M  V30 2851 N 261.624 0.925811 1.2754 0
M  V30 2852 C 262.556 0.380753 2.26015 0
M  V30 2853 C 263.569 -0.487485 1.5533 0
M  V30 2854 O 264.758 -0.300413 1.75954 0
M  V30 2855 C 261.858 -0.473259 3.35579 0
M  V30 2856 C 261.031 0.375249 4.35787 0
M  V30 2857 C 260.09 -0.415809 5.24555 0
M  V30 2858 O 259.116 0.175834 5.68928 0
M  V30 2859 N 260.318 -1.71607 5.54555 0
M  V30 2860 H 263.083 1.22725 2.73421 0
M  V30 2861 H 260.644 0.793037 1.41147 0
M  V30 2862 H 262.636 -1.00949 3.91907 0
M  V30 2863 H 261.206 -1.2205 2.87789 0
M  V30 2864 H 260.426 1.09279 3.7875 0
M  V30 2865 H 261.714 0.955399 4.99749 0
M  V30 2866 H 261.112 -2.2191 5.20358 0
M  V30 2867 H 259.669 -2.19887 6.1359 0
M  V30 2868 N 263.102 -1.41638 0.69111 0
M  V30 2869 C 264.032 -2.3347 0.037248 0
M  V30 2870 C 265.013 -1.51575 -0.771947 0
M  V30 2871 O 266.198 -1.80126 -0.72582 0
M  V30 2872 C 263.328 -3.35354 -0.903064 0
M  V30 2873 C 262.282 -4.27526 -0.201288 0
M  V30 2874 C 261.608 -5.19747 -1.25565 0
M  V30 2875 C 262.908 -5.13959 0.929689 0
M  V30 2876 H 264.602 -2.88397 0.804227 0
M  V30 2877 H 262.148 -1.38669 0.388189 0
M  V30 2878 H 264.101 -3.98519 -1.36969 0
M  V30 2879 H 262.825 -2.78767 -1.70166 0
M  V30 2880 H 261.484 -3.65779 0.245265 0
M  V30 2881 H 261.132 -4.59479 -2.04666 0
M  V30 2882 H 260.832 -5.8225 -0.791128 0
M  V30 2883 H 262.356 -5.85789 -1.72288 0
M  V30 2884 H 263.77 -5.70718 0.543546 0
M  V30 2885 H 262.167 -5.85379 1.32103 0
M  V30 2886 H 263.237 -4.51389 1.77133 0
M  V30 2887 N 264.58 -0.43555 -1.51462 0
M  V30 2888 C 265.51 0.367376 -2.30592 0
M  V30 2889 C 266.491 1.02263 -1.35928 0
M  V30 2890 O 267.676 1.02661 -1.64847 0
M  V30 2891 C 264.806 1.46983 -3.14664 0
M  V30 2892 C 263.76 0.938161 -4.17591 0
M  V30 2893 C 263.086 2.13622 -4.90173 0
M  V30 2894 C 264.386 -0.0261621 -5.22293 0
M  V30 2895 H 266.08 -0.292969 -2.97963 0
M  V30 2896 H 263.626 -0.14234 -1.43295 0
M  V30 2897 H 265.579 2.03873 -3.688 0
M  V30 2898 H 264.303 2.15843 -2.4511 0
M  V30 2899 H 262.962 0.391481 -3.64504 0
M  V30 2900 H 262.61 2.81098 -4.17124 0
M  V30 2901 H 262.31 1.78688 -5.59772 0
M  V30 2902 H 263.834 2.7107 -5.47132 0
M  V30 2903 H 265.248 0.452384 -5.71512 0
M  V30 2904 H 263.645 -0.287992 -5.99409 0
M  V30 2905 H 264.715 -0.963391 -4.75233 0
M  V30 2906 N 266.058 1.56714 -0.166846 0
M  V30 2907 C 266.99 2.14914 0.796537 0
M  V30 2908 C 268.003 1.10357 1.19688 0
M  V30 2909 O 269.192 1.37561 1.13751 0
M  V30 2910 C 266.292 2.67326 2.08303 0
M  V30 2911 C 265.465 3.96493 1.84696 0
M  V30 2912 C 264.524 4.34014 2.97521 0
M  V30 2913 O 263.55 5.01973 2.6835 0
M  V30 2914 N 264.752 3.95208 4.25196 0
M  V30 2915 H 267.517 2.98205 0.299006 0
M  V30 2916 H 265.078 1.61892 0.0160839 0
M  V30 2917 H 267.07 2.89428 2.82867 0
M  V30 2918 H 265.64 1.88649 2.4926 0
M  V30 2919 H 264.86 3.82814 0.940602 0
M  V30 2920 H 266.148 4.8086 1.66285 0
M  V30 2921 H 265.546 3.40487 4.51758 0
M  V30 2922 H 264.103 4.2232 4.96477 0
M  V30 2923 N 267.536 -0.106894 1.57237 0
M  V30 2924 C 268.813 -0.843526 1.76477 0
M  V30 2925 C 269.193 -1.97499 0.745464 0
M  V30 2926 O 268.541 -2.27357 -0.228306 0
M  V30 2927 C 268.751 -1.34903 3.21873 0
M  V30 2928 C 270.099 -1.79654 3.8472 0
M  V30 2929 O 271.123 -1.44554 3.2555 0
M  V30 2930 O 269.982 -2.44515 4.88748 0
M  V30 2931 H 267.076 -0.401468 0.723016 0
M  V30 2932 H 269.622 -0.0896927 1.69463 0
M  V30 2933 H 268.394 -0.53781 3.87586 0
M  V30 2934 H 268.017 -2.16522 3.33473 0
M  V30 2935 N 269.014 -1.53014 -0.377408 0
M  V30 2936 C 270.239 -1.72818 -1.14668 0
M  V30 2937 C 270.664 -0.450725 -1.8262 0
M  V30 2938 O 270.022 0.59439 -1.7128 0
M  V30 2939 C 270.07 -2.88627 -2.16164 0
M  V30 2940 O 269.174 -2.56409 -3.22998 0
M  V30 2941 H 268.515 -0.574301 -0.333278 0
M  V30 2942 H 271.045 -1.99853 -0.438152 0
M  V30 2943 H 271.055 -3.14455 -2.59966 0
M  V30 2944 H 269.73 -3.81294 -1.66095 0
M  V30 2945 H 268.307 -2.4136 -2.84253 0
M  V30 2946 N 270.492 0.636531 -1.44174 0
M  V30 2947 C 271.439 1.74875 -1.50624 0
M  V30 2948 C 272.409 1.62275 -0.35442 0
M  V30 2949 O 273.594 1.82276 -0.563908 0
M  V30 2950 C 270.734 3.13102 -1.45125 0
M  V30 2951 C 269.847 3.36717 -2.7064 0
M  V30 2952 C 268.982 4.64885 -2.57013 0
M  V30 2953 C 268.021 4.8166 -3.77717 0
M  V30 2954 N 267.158 6.01101 -3.62798 0
M  V30 2955 H 271.998 1.68697 -2.45653 0
M  V30 2956 H 269.535 0.823004 -1.21922 0
M  V30 2957 H 271.493 3.93034 -1.39929 0
M  V30 2958 H 270.123 3.18308 -0.536671 0
M  V30 2959 H 269.175 2.50763 -2.86046 0
M  V30 2960 H 270.487 3.44993 -3.60252 0
M  V30 2961 H 269.641 5.52969 -2.49619 0
M  V30 2962 H 268.38 4.58957 -1.64953 0
M  V30 2963 H 267.385 3.92007 -3.85501 0
M  V30 2964 H 268.61 4.89406 -4.70807 0
M  V30 2965 H 266.556 5.96273 -2.73486 0
M  V30 2966 H 266.473 6.10409 -4.46023 0
M  V30 2967 H 267.741 6.91761 -3.59286 0
M  V30 2968 N 271.97 1.30982 0.876444 0
M  V30 2969 C 273.198 1.23242 1.6619 0
M  V30 2970 C 273.613 -0.203345 1.87702 0
M  V30 2971 O 272.97 -1.13317 1.43057 0
M  V30 2972 C 273.021 1.96623 3.03351 0
M  V30 2973 O 272.742 3.34594 2.82804 0
M  V30 2974 C 274.243 1.95644 3.97792 0
M  V30 2975 H 271.463 0.426126 0.518322 0
M  V30 2976 H 274.007 1.7275 1.09442 0
M  V30 2977 H 272.162 1.50892 3.56806 0
M  V30 2978 H 272.576 3.71873 3.69879 0
M  V30 2979 H 274.05 2.51511 4.91372 0
M  V30 2980 H 274.527 0.937395 4.2908 0
M  V30 2981 H 275.133 2.41225 3.50272 0
M  V30 2982 N 273.449 -1.08991 1.13837 0
M  V30 2983 C 274.396 -2.15748 0.819835 0
M  V30 2984 C 275.366 -1.64636 -0.220026 0
M  V30 2985 O 276.551 -1.90582 -0.0912757 0
M  V30 2986 C 273.691 -3.4382 0.296913 0
M  V30 2987 C 272.804 -4.0881 1.39636 0
M  V30 2988 C 271.939 -5.24655 0.831314 0
M  V30 2989 C 270.978 -5.81575 1.90886 0
M  V30 2990 N 270.115 -6.88774 1.36142 0
M  V30 2991 H 274.955 -2.42338 1.73426 0
M  V30 2992 H 272.492 -1.18935 0.865613 0
M  V30 2993 H 274.45 -4.17193 -0.0244339 0
M  V30 2994 H 273.08 -3.17535 -0.580628 0
M  V30 2995 H 272.132 -3.33258 1.83422 0
M  V30 2996 H 273.444 -4.47141 2.21058 0
M  V30 2997 H 272.598 -6.04942 0.461515 0
M  V30 2998 H 271.337 -4.87698 -0.013932 0
M  V30 2999 H 270.342 -4.99946 2.28767 0
M  V30 3000 H 271.567 -6.20592 2.75758 0
M  V30 3001 H 269.513 -6.53788 0.538254 0
M  V30 3002 H 269.43 -7.25898 2.11208 0
M  V30 3003 H 270.698 -7.72806 1.01933 0
M  V30 3004 N 274.927 -0.932562 -1.27047 0
M  V30 3005 C 276.176 -0.571351 -1.93439 0
M  V30 3006 C 276.489 0.892467 -1.74053 0
M  V30 3007 O 277.695 1.36267 -2.34826 0
M  V30 3008 C 276.151 -0.97106 -3.46552 0
M  V30 3009 C 275.759 -2.4559 -3.74686 0
M  V30 3010 C 277.503 -0.681333 -4.18997 0
M  V30 3011 C 275.41 -2.79475 -5.21198 0
M  V30 3012 H 274.34 -0.209966 -0.724176 0
M  V30 3013 H 276.991 -1.13403 -1.44263 0
M  V30 3014 H 275.373 -0.336983 -3.94564 0
M  V30 3015 H 276.547 -3.13829 -3.37414 0
M  V30 3016 H 274.862 -2.71802 -3.15456 0
M  V30 3017 H 277.459 -0.910939 -5.26883 0
M  V30 3018 H 277.802 0.381628 -4.14547 0
M  V30 3019 H 278.335 -1.27473 -3.76823 0
M  V30 3020 H 275.074 -3.847 -5.30741 0
M  V30 3021 H 274.594 -2.1589 -5.596 0
M  V30 3022 H 276.273 -2.67478 -5.89122 0
M  V30 3023 N 276.405 1.4127 -0.698611 0
M  V30 3024 C 277.315 2.34573 -0.0357891 0
M  V30 3025 C 278.331 1.56393 0.762701 0
M  V30 3026 O 279.507 1.8886 0.699564 0
M  V30 3027 C 276.572 3.35159 0.887089 0
M  V30 3028 C 275.633 4.29225 0.0804634 0
M  V30 3029 C 274.866 5.25006 0.959387 0
M  V30 3030 O 275.089 5.26314 2.19886 0
M  V30 3031 O 274.023 6.00519 0.407439 0
M  V30 3032 H 277.849 2.92838 -0.804957 0
M  V30 3033 H 275.434 1.42175 -0.458966 0
M  V30 3034 H 277.316 3.9689 1.41621 0
M  V30 3035 H 275.991 2.79333 1.6357 0
M  V30 3036 H 274.898 3.70833 -0.493328 0
M  V30 3037 H 276.231 4.88157 -0.629547 0
M  V30 3038 N 277.883 0.443576 1.51229 0
M  V30 3039 C 279.129 -0.120975 2.02439 0
M  V30 3040 C 279.462 -1.41815 1.32674 0
M  V30 3041 O 278.737 -1.89373 0.443622 0
M  V30 3042 C 279.02 -0.333291 3.58554 0
M  V30 3043 C 278.873 0.982968 4.38928 0
M  V30 3044 C 280.192 -1.10028 4.26124 0
M  V30 3045 H 277.311 -0.0424923 0.735774 0
M  V30 3046 H 279.953 0.583794 1.80809 0
M  V30 3047 H 278.103 -0.933614 3.77115 0
M  V30 3048 H 279.775 1.61775 4.32003 0
M  V30 3049 H 278.018 1.58611 4.03763 0
M  V30 3050 H 278.689 0.788379 5.46341 0
M  V30 3051 H 281.165 -0.591711 4.11871 0
M  V30 3052 H 280.041 -1.21761 5.35225 0
M  V30 3053 H 280.302 -2.12996 3.87408 0
M  V30 3054 N 279.361 -1.56624 0.175154 0
M  V30 3055 C 280.61 -1.96173 -0.468921 0
M  V30 3056 C 280.923 -1.06401 -1.64128 0
M  V30 3057 O 282.129 -1.35648 -2.35185 0
M  V30 3058 C 280.585 -3.48833 -0.885633 0
M  V30 3059 C 280.193 -4.47237 0.261343 0
M  V30 3060 C 281.937 -3.97194 -1.49791 0
M  V30 3061 C 279.844 -5.9114 -0.175214 0
M  V30 3062 H 278.774 -0.732455 -0.178958 0
M  V30 3063 H 281.425 -1.81591 0.263997 0
M  V30 3064 H 279.807 -3.58848 -1.67464 0
M  V30 3065 H 280.981 -4.4894 1.03871 0
M  V30 3066 H 279.296 -4.08956 0.783827 0
M  V30 3067 H 281.893 -5.02167 -1.83665 0
M  V30 3068 H 282.236 -3.40351 -2.39722 0
M  V30 3069 H 282.769 -3.90212 -0.773267 0
M  V30 3070 H 279.508 -6.51865 0.689414 0
M  V30 3071 H 279.028 -5.92735 -0.91786 0
M  V30 3072 H 280.707 -6.44044 -0.617792 0
M  V30 3073 N 280.839 0.0985539 -1.57292 0
M  V30 3074 C 282.255 0.45267 -1.53046 0
M  V30 3075 C 282.455 1.80713 -0.891342 0
M  V30 3076 O 281.511 2.4785 -0.482375 0
M  V30 3077 C 282.824 0.418341 -2.97776 0
M  V30 3078 C 284.372 0.500443 -3.08973 0
M  V30 3079 C 284.847 0.496297 -4.55303 0
M  V30 3080 N 286.338 0.557151 -4.59837 0
M  V30 3081 C 287.073 0.575726 -5.70502 0
M  V30 3082 N 286.569 0.550714 -6.90608 0
M  V30 3083 N 288.362 0.620277 -5.58667 0
M  V30 3084 H 280.513 -0.788673 -1.97215 0
M  V30 3085 H 282.776 -0.293188 -0.901524 0
M  V30 3086 H 282.482 -0.509659 -3.47988 0
M  V30 3087 H 282.356 1.2386 -3.56284 0
M  V30 3088 H 284.743 1.41886 -2.58751 0
M  V30 3089 H 284.824 -0.347894 -2.53423 0
M  V30 3090 H 284.468 -0.418162 -5.06176 0
M  V30 3091 H 284.398 1.3618 -5.08687 0
M  V30 3092 H 286.889 0.581816 -3.73394 0
M  V30 3093 H 287.202 0.568075 -7.70709 0
M  V30 3094 H 285.547 0.517816 -6.93068 0
M  V30 3095 H 288.738 0.637322 -4.63741 0
M  V30 3096 H 288.911 0.631283 -6.44918 0
M  V30 3097 N 282.317 1.53212 0.369288 0
M  V30 3098 C 283.25 1.74166 1.4745 0
M  V30 3099 C 284.228 0.589923 1.51521 0
M  V30 3100 O 285.412 0.822078 1.69629 0
M  V30 3101 C 282.539 1.81711 2.8583 0
M  V30 3102 C 281.585 3.03649 2.99499 0
M  V30 3103 S 282.418 4.63242 2.6864 0
M  V30 3104 C 283.574 4.7363 4.09177 0
M  V30 3105 H 283.807 2.67636 1.29454 0
M  V30 3106 H 281.34 1.43754 0.563396 0
M  V30 3107 H 283.298 1.86743 3.65564 0
M  V30 3108 H 281.959 0.89299 3.01139 0
M  V30 3109 H 281.152 3.05526 4.00836 0
M  V30 3110 H 280.754 2.9671 2.27683 0
M  V30 3111 H 283.046 4.53456 5.03372 0
M  V30 3112 H 283.989 5.75682 4.12306 0
M  V30 3113 H 284.397 4.02295 3.96004 0
M  V30 3114 N 283.795 -0.628877 1.44509 0
M  V30 3115 C 284.727 -1.754 1.47538 0
M  V30 3116 C 285.74 -1.58575 0.368506 0
M  V30 3117 O 286.929 -1.66847 0.634376 0
M  V30 3118 C 284.029 -3.1315 1.29577 0
M  V30 3119 C 283.202 -3.56413 2.53551 0
M  V30 3120 C 282.261 -4.7305 2.30457 0
M  V30 3121 O 281.287 -4.81247 3.03957 0
M  V30 3122 N 282.489 -5.64903 1.3366 0
M  V30 3123 H 285.254 -1.73272 2.44534 0
M  V30 3124 H 282.815 -0.813512 1.39977 0
M  V30 3125 H 284.807 -3.88902 1.11971 0
M  V30 3126 H 283.377 -3.09908 0.409371 0
M  V30 3127 H 282.597 -2.70847 2.86419 0
M  V30 3128 H 283.885 -3.82071 3.36005 0
M  V30 3129 H 283.283 -5.60975 0.729604 0
M  V30 3130 H 281.84 -6.40275 1.22032 0
M  V30 3131 N 285.273 -1.31445 -0.869486 0
M  V30 3132 C 286.522 -1.20517 -1.61736 0
M  V30 3133 C 286.835 0.235341 -1.94179 0
M  V30 3134 O 288.041 0.466312 -2.67465 0
M  V30 3135 C 286.497 -2.10982 -2.91573 0
M  V30 3136 C 286.105 -3.60032 -2.66611 0
M  V30 3137 C 287.849 -2.08856 -3.69567 0
M  V30 3138 C 285.756 -4.42503 -3.92358 0
M  V30 3139 H 284.686 -0.447493 -0.606849 0
M  V30 3140 H 287.337 -1.56303 -0.96133 0
M  V30 3141 H 285.719 -1.68095 -3.58553 0
M  V30 3142 H 286.893 -4.11167 -2.08035 0
M  V30 3143 H 285.208 -3.64139 -2.0197 0
M  V30 3144 H 287.805 -2.67716 -4.62852 0
M  V30 3145 H 288.148 -1.07582 -4.02159 0
M  V30 3146 H 288.681 -2.49945 -3.09471 0
M  V30 3147 H 285.42 -5.44533 -3.64916 0
M  V30 3148 H 284.94 -3.96125 -4.50383 0
M  V30 3149 H 286.619 -4.54741 -4.60238 0
M  V30 3150 N 286.751 1.08385 -1.14413 0
M  V30 3151 C 287.681 2.17321 -0.854044 0
M  V30 3152 C 288.662 1.69024 0.191049 0
M  V30 3153 O 289.847 1.94141 0.0476779 0
M  V30 3154 C 286.977 3.45719 -0.330983 0
M  V30 3155 C 285.931 4.07409 -1.31155 0
M  V30 3156 C 285.257 5.30762 -0.64778 0
M  V30 3157 C 286.557 4.48665 -2.67388 0
M  V30 3158 H 288.251 2.41845 -1.76498 0
M  V30 3159 H 285.797 1.16233 -0.850051 0
M  V30 3160 H 287.75 4.21241 -0.115645 0
M  V30 3161 H 286.474 3.2075 0.615381 0
M  V30 3162 H 285.133 3.33919 -1.51306 0
M  V30 3163 H 284.781 5.02078 0.304398 0
M  V30 3164 H 284.481 5.72992 -1.30207 0
M  V30 3165 H 286.005 6.08998 -0.441972 0
M  V30 3166 H 287.419 5.15364 -2.51143 0
M  V30 3167 H 285.816 5.01814 -3.29093 0
M  V30 3168 H 286.886 3.60543 -3.24248 0
M  V30 3169 N 288.23 0.939286 1.26551 0
M  V30 3170 C 289.162 0.404704 2.25599 0
M  V30 3171 C 290.175 -0.470983 1.55838 0
M  V30 3172 O 291.364 -0.281734 1.76263 0
M  V30 3173 C 288.464 -0.43764 3.36062 0
M  V30 3174 C 287.637 0.421449 4.35365 0
M  V30 3175 C 286.696 -0.36015 5.24966 0
M  V30 3176 O 285.722 0.236167 5.6871 0
M  V30 3177 N 286.924 -1.65715 5.56344 0
M  V30 3178 H 289.689 1.25618 2.72103 0
M  V30 3179 H 287.25 0.807963 1.40298 0
M  V30 3180 H 289.242 -0.967866 3.92956 0
M  V30 3181 H 287.812 -1.18991 2.89067 0
M  V30 3182 H 287.032 1.1329 3.7757 0
M  V30 3183 H 288.32 1.00835 4.98708 0
M  V30 3184 H 287.718 -2.16378 5.22682 0
M  V30 3185 H 286.275 -2.13366 6.15888 0
M  V30 3186 N 289.708 -1.40897 0.706093 0
M  V30 3187 C 290.671 -2.29131 0.0562841 0
M  V30 3188 C 291.671 -1.44901 -0.697166 0
M  V30 3189 O 292.861 -1.65926 -0.530484 0
M  V30 3190 C 289.993 -3.27957 -0.93043 0
M  V30 3191 H 291.186 -2.88091 0.833284 0
M  V30 3192 H 288.739 -1.4906 0.470192 0
M  V30 3193 H 289.474 -2.73997 -1.73482 0
M  V30 3194 H 289.259 -3.90124 -0.393166 0
M  V30 3195 H 290.749 -3.94049 -1.38256 0
M  V30 3196 N 291.186 -0.45159 -1.50991 0
M  V30 3197 C 292.432 0.110237 -2.025 0
M  V30 3198 C 292.765 1.41109 -1.33424 0
M  V30 3199 O 292.04 1.89135 -0.453659 0
M  V30 3200 C 292.323 0.314271 -3.58726 0
M  V30 3201 C 292.176 -1.00623 -4.38401 0
M  V30 3202 C 293.495 1.07767 -4.26702 0
M  V30 3203 H 290.614 0.0385897 -0.735989 0
M  V30 3204 H 293.256 -0.593374 -1.80497 0
M  V30 3205 H 291.406 0.913601 -3.77605 0
M  V30 3206 H 293.078 -1.64064 -4.31139 0
M  V30 3207 H 291.321 -1.6075 -4.02917 0
M  V30 3208 H 291.992 -0.817341 -5.45915 0
M  V30 3209 H 294.468 0.56986 -4.12179 0
M  V30 3210 H 293.344 1.18921 -5.35863 0
M  V30 3211 H 293.605 2.10939 -3.88532 0
M  V30 3212 N 292.664 1.56529 -0.183458 0
M  V30 3213 C 293.596 2.15747 0.773697 0
M  V30 3214 C 294.609 1.1162 1.1851 0
M  V30 3215 O 295.798 1.3876 1.12285 0
M  V30 3216 C 292.898 2.6952 2.05456 0
M  V30 3217 C 292.071 3.98429 1.8048 0
M  V30 3218 C 291.13 4.37145 2.92901 0
M  V30 3219 O 290.156 5.04791 2.6301 0
M  V30 3220 N 291.358 3.99695 4.2098 0
M  V30 3221 H 294.123 2.98505 0.26736 0
M  V30 3222 H 291.684 1.619 -0.0010878 0
M  V30 3223 H 293.676 2.92412 2.79781 0
M  V30 3224 H 292.246 1.91282 2.47245 0
M  V30 3225 H 291.466 3.8379 0.899947 0
M  V30 3226 H 292.754 4.82597 1.61175 0
M  V30 3227 H 292.152 3.4526 4.48121 0
M  V30 3228 H 290.709 4.27562 4.9197 0
M  V30 3229 N 294.142 -0.090211 1.57342 0
M  V30 3230 C 295.37 -0.806224 1.90546 0
M  V30 3231 C 295.785 -1.72041 0.777644 0
M  V30 3232 O 295.142 -1.80778 -0.250103 0
M  V30 3233 C 295.193 -1.61546 3.23396 0
M  V30 3234 O 294.914 -0.738043 4.31839 0
M  V30 3235 C 296.415 -2.4341 3.70495 0
M  V30 3236 H 293.635 -0.230256 0.630257 0
M  V30 3237 H 296.179 -0.0659843 2.04394 0
M  V30 3238 H 294.334 -2.30816 3.11131 0
M  V30 3239 H 294.748 -1.29901 5.08159 0
M  V30 3240 H 296.222 -2.95676 4.66133 0
M  V30 3241 H 296.699 -3.22098 2.98579 0
M  V30 3242 H 297.305 -1.79331 3.85643 0
M  V30 3243 N 295.62 -1.53406 -0.361157 0
M  V30 3244 C 296.568 -1.80832 -1.46296 0
M  V30 3245 C 297.562 -0.677699 -1.55253 0
M  V30 3246 O 298.768 -0.860723 -1.58087 0
M  V30 3247 H 295.143 -0.572627 -0.487445 0
M  V30 3248 H 297.114 -2.73045 -1.20371 0
M  V30 3249 C 295.863 -2.01907 -2.8307 0
M  V30 3250 H 295.186 -2.88349 -2.76938 0
M  V30 3251 H 296.626 -2.25072 -3.59331 0
M  V30 3252 C 295.085 -0.799449 -3.27277 0
M  V30 3253 O 295.615 0.00971761 -4.01699 0
M  V30 3254 N 293.821 -0.621637 -2.83873 0
M  V30 3255 H 293.368 -1.28126 -2.23476 0
M  V30 3256 H 293.326 0.19298 -3.13807 0
M  V30 3257 N 297.098 0.621204 -1.44841 0
M  V30 3258 C 298.008 1.7612 -1.5498 0
M  V30 3259 C 299.024 1.68477 -0.434927 0
M  V30 3260 O 300.2 1.89076 -0.693693 0
M  V30 3261 C 297.265 3.1254 -1.50065 0
M  V30 3262 C 296.326 3.31741 -2.72482 0
M  V30 3263 C 295.559 4.61653 -2.67792 0
M  V30 3264 O 295.782 5.431 -1.74352 0
M  V30 3265 O 294.716 4.83271 -3.58794 0
M  V30 3266 H 298.542 1.70518 -2.51311 0
M  V30 3267 H 296.127 0.783643 -1.27198 0
M  V30 3268 H 298.009 3.93844 -1.49882 0
M  V30 3269 H 296.684 3.18663 -0.568806 0
M  V30 3270 H 295.591 2.50077 -2.7823 0
M  V30 3271 H 296.924 3.30486 -3.64746 0
M  V30 3272 N 298.576 1.31904 0.862503 0
M  V30 3273 C 299.506 1.22782 1.98612 0
M  V30 3274 C 300.487 0.113362 1.69722 0
M  V30 3275 O 301.672 0.299218 1.91881 0
M  V30 3276 C 298.802 0.942058 3.34279 0
M  V30 3277 C 297.756 2.0169 3.77499 0
M  V30 3278 C 297.082 1.58369 5.10709 0
M  V30 3279 C 298.382 3.43096 3.93805 0
M  V30 3280 H 300.076 2.16788 2.06502 0
M  V30 3281 H 297.622 1.04366 0.992154 0
M  V30 3282 H 299.575 0.864818 4.1243 0
M  V30 3283 H 298.299 -0.0336603 3.26583 0
M  V30 3284 H 296.958 2.08416 3.01593 0
M  V30 3285 H 296.606 0.595628 4.99461 0
M  V30 3286 H 296.306 2.30279 5.40597 0
M  V30 3287 H 297.83 1.52067 5.91361 0
M  V30 3288 H 299.244 3.39003 4.62331 0
M  V30 3289 H 297.641 4.13288 4.35101 0
M  V30 3290 H 298.711 3.83334 2.96957 0
M  V30 3291 N 300.054 -1.07777 1.14986 0
M  V30 3292 C 301.017 -2.13041 0.845358 0
M  V30 3293 C 302.017 -1.60071 -0.152931 0
M  V30 3294 O 303.207 -1.74033 0.0761879 0
M  V30 3295 C 300.339 -3.39896 0.261383 0
M  V30 3296 H 301.532 -2.41485 1.77834 0
M  V30 3297 H 299.085 -1.23595 0.956757 0
M  V30 3298 H 299.82 -3.17091 -0.68 0
M  V30 3299 H 299.605 -3.79642 0.980514 0
M  V30 3300 H 301.095 -4.17548 0.0657687 0
M  V30 3301 N 301.532 -0.945985 -1.26051 0
M  V30 3302 C 302.779 -0.596118 -1.93527 0
M  V30 3303 C 303.107 0.865559 -1.74179 0
M  V30 3304 O 302.362 1.63524 -1.0751 0
M  V30 3305 C 302.661 -0.890475 -3.46129 0
M  V30 3306 C 302.327 -2.3368 -3.85622 0
M  V30 3307 C 300.989 -2.73216 -3.96114 0
M  V30 3308 C 303.341 -3.27648 -4.05334 0
M  V30 3309 C 300.669 -4.05806 -4.2372 0
M  V30 3310 C 303.021 -4.59841 -4.3443 0
M  V30 3311 C 301.685 -4.99185 -4.43137 0
M  V30 3312 H 300.955 -0.218135 -0.708165 0
M  V30 3313 H 303.602 -1.1934 -1.49768 0
M  V30 3314 H 301.907 -0.210711 -3.91233 0
M  V30 3315 H 303.604 -0.598478 -3.96509 0
M  V30 3316 H 300.194 -2.02015 -3.78005 0
M  V30 3317 H 304.378 -2.98298 -3.96651 0
M  V30 3318 H 299.634 -4.35945 -4.28675 0
M  V30 3319 H 303.808 -5.32641 -4.48628 0
M  V30 3320 H 301.435 -6.01952 -4.64282 0
M  V30 3321 N 303.011 1.40521 -0.713556 0
M  V30 3322 C 304.288 1.94775 -0.17943 0
M  V30 3323 C 304.668 1.65184 1.31444 0
M  V30 3324 O 304.016 0.968429 2.06963 0
M  V30 3325 C 304.226 3.45543 -0.489986 0
M  V30 3326 C 305.574 4.22442 -0.427536 0
M  V30 3327 O 306.598 3.53644 -0.425929 0
M  V30 3328 O 305.457 5.4501 -0.403292 0
M  V30 3329 H 302.551 0.826606 -0.0255192 0
M  V30 3330 H 305.097 1.5014 -0.790949 0
M  V30 3331 H 303.869 3.60432 -1.5233 0
M  V30 3332 H 303.492 3.97311 0.151598 0
M  V30 3333 N 304.489 0.459591 1.5075 0
M  V30 3334 C 305.437 -0.354678 2.2988 0
M  V30 3335 C 306.431 -1.00086 1.36672 0
M  V30 3336 O 307.637 -0.933277 1.53915 0
M  V30 3337 H 304.012 -0.13321 0.740107 0
M  V30 3338 H 305.983 0.333269 2.96533 0
M  V30 3339 C 304.732 -1.43073 3.169 0
M  V30 3340 H 304.055 -0.942882 3.88523 0
M  V30 3341 H 305.495 -1.97328 3.75284 0
M  V30 3342 C 303.954 -2.42633 2.33732 0
M  V30 3343 O 304.484 -3.47658 2.01238 0
M  V30 3344 N 302.69 -2.14066 1.9653 0
M  V30 3345 H 302.237 -1.28685 2.23155 0
M  V30 3346 H 302.195 -2.80917 1.41185 0
M  V30 3347 N 305.967 -1.56429 0.191757 0
M  V30 3348 C 306.93 -2.17707 -0.716688 0
M  V30 3349 C 307.93 -1.13061 -1.14341 0
M  V30 3350 O 309.12 -1.38464 -1.05704 0
M  V30 3351 C 306.252 -2.77644 -1.97804 0
M  V30 3352 H 307.445 -2.99342 -0.1829 0
M  V30 3353 H 304.998 -1.56193 -0.0578566 0
M  V30 3354 H 305.733 -1.99799 -2.55443 0
M  V30 3355 H 305.518 -3.54246 -1.68083 0
M  V30 3356 H 307.008 -3.24708 -2.62592 0
M  V30 3357 N 307.445 0.0818655 -1.57387 0
M  V30 3358 C 308.392 1.09834 -2.0299 0
M  V30 3359 C 309.362 1.39043 -0.908639 0
M  V30 3360 O 310.547 1.50282 -1.17559 0
M  V30 3361 C 307.687 2.40971 -2.47037 0
M  V30 3362 C 306.8 2.18379 -3.7274 0
M  V30 3363 C 305.935 3.43008 -4.0561 0
M  V30 3364 C 304.974 3.15736 -5.24383 0
M  V30 3365 N 304.111 4.32667 -5.52941 0
M  V30 3366 H 308.951 0.702472 -2.89602 0
M  V30 3367 H 306.488 0.33531 -1.43227 0
M  V30 3368 H 308.446 3.1752 -2.70623 0
M  V30 3369 H 307.076 2.78379 -1.63417 0
M  V30 3370 H 306.128 1.32569 -3.56552 0
M  V30 3371 H 307.44 1.94227 -4.59431 0
M  V30 3372 H 306.594 4.27958 -4.30043 0
M  V30 3373 H 305.333 3.70225 -3.17466 0
M  V30 3374 H 304.338 2.2918 -4.99757 0
M  V30 3375 H 305.563 2.8985 -6.14136 0
M  V30 3376 H 303.509 4.59935 -4.67756 0
M  V30 3377 H 303.426 4.11753 -6.34031 0
M  V30 3378 H 304.694 5.18644 -5.81918 0
M  V30 3379 N 308.923 1.53595 0.353017 0
M  V30 3380 C 310.334 1.61937 0.929153 0
M  V30 3381 C 310.685 0.494686 1.89861 0
M  V30 3382 O 309.81 -0.377017 2.1309 0
M  V30 3383 C 310.405 2.93526 1.69199 0
M  V30 3384 C 308.964 3.04161 2.21727 0
M  V30 3385 C 308.111 2.57322 1.03348 0
M  V30 3386 H 311.062 1.58155 0.131431 0
M  V30 3387 H 311.083 2.82034 2.55416 0
M  V30 3388 H 310.595 3.75362 0.986144 0
M  V30 3389 H 308.696 2.26938 2.95516 0
M  V30 3390 H 308.809 4.09465 2.48748 0
M  V30 3391 H 307.173 2.12499 1.40414 0
M  V30 3392 H 307.956 3.41588 0.342428 0
M  V30 3393 N 310.401 -0.613514 1.45168 0
M  V30 3394 C 311.647 -1.37471 1.49096 0
M  V30 3395 C 311.98 -1.93765 0.129901 0
M  V30 3396 O 311.255 -1.74707 -0.854858 0
M  V30 3397 C 311.538 -2.52701 2.56542 0
M  V30 3398 C 311.391 -2.01643 4.0207 0
M  V30 3399 C 312.71 -3.54849 2.60327 0
M  V30 3400 H 309.829 -0.498502 0.54283 0
M  V30 3401 H 312.471 -0.692125 1.76945 0
M  V30 3402 H 310.621 -3.10931 2.32926 0
M  V30 3403 H 312.293 -1.48108 4.36877 0
M  V30 3404 H 310.536 -1.32688 4.13009 0
M  V30 3405 H 311.207 -2.84681 4.72928 0
M  V30 3406 H 313.683 -3.0645 2.81474 0
M  V30 3407 H 312.559 -4.32973 3.37381 0
M  V30 3408 H 312.82 -4.10079 1.6519 0
M  V30 3409 N 311.879 -1.3236 -0.855495 0
M  V30 3410 C 313.128 -1.22226 -1.60448 0
M  V30 3411 C 313.441 0.214733 -1.94418 0
M  V30 3412 O 314.647 0.437917 -2.67945 0
M  V30 3413 C 313.103 -2.14063 -2.89318 0
M  V30 3414 C 312.711 -3.62839 -2.62777 0
M  V30 3415 C 314.455 -2.12764 -3.67331 0
M  V30 3416 C 312.362 -4.4664 -3.87643 0
M  V30 3417 H 311.292 -0.453904 -0.602069 0
M  V30 3418 H 313.943 -1.57314 -0.944698 0
M  V30 3419 H 312.325 -1.71889 -3.5675 0
M  V30 3420 H 313.499 -4.1335 -2.03662 0
M  V30 3421 H 311.814 -3.66261 -1.98096 0
M  V30 3422 H 314.411 -2.72611 -4.59987 0
M  V30 3423 H 314.754 -1.11841 -4.00995 0
M  V30 3424 H 315.287 -2.53214 -3.06802 0
M  V30 3425 H 312.026 -5.48373 -3.5912 0
M  V30 3426 H 311.546 -4.0088 -4.46156 0
M  V30 3427 H 313.225 -4.59597 -4.55389 0
M  V30 3428 N 313.357 1.07166 -1.15556 0
M  V30 3429 C 314.582 1.84053 -0.955988 0
M  V30 3430 C 315.007 1.81586 0.490739 0
M  V30 3431 O 314.365 1.21018 1.34997 0
M  V30 3432 C 314.413 3.28957 -1.47714 0
M  V30 3433 O 313.517 4.06795 -0.677593 0
M  V30 3434 H 312.858 0.569842 -0.340847 0
M  V30 3435 H 315.388 1.35178 -1.53584 0
M  V30 3436 H 315.398 3.79788 -1.4908 0
M  V30 3437 H 314.073 3.30068 -2.53037 0
M  V30 3438 H 312.65 3.6561 -0.733721 0
M  V30 3439 N 314.835 0.952656 1.25548 0
M  V30 3440 C 316.246 0.647392 1.75116 0
M  V30 3441 C 316.597 -0.837274 1.77438 0
M  V30 3442 O 315.722 -1.65525 1.39393 0
M  V30 3443 C 316.317 1.16845 3.18014 0
M  V30 3444 C 314.876 0.913382 3.6515 0
M  V30 3445 C 314.023 1.31265 2.44264 0
M  V30 3446 H 316.974 1.12968 1.11462 0
M  V30 3447 H 316.995 0.527606 3.76824 0
M  V30 3448 H 316.507 2.24902 3.16292 0
M  V30 3449 H 314.608 -0.152316 3.72289 0
M  V30 3450 H 314.721 1.54845 4.53387 0
M  V30 3451 H 313.085 0.731028 2.43984 0
M  V30 3452 H 313.868 2.40239 2.45234 0
M  V30 3453 N 316.313 -1.40141 0.720998 0
M  V30 3454 C 317.243 -2.33339 0.0867621 0
M  V30 3455 C 318.224 -1.53178 -0.739622 0
M  V30 3456 O 319.409 -1.81625 -0.687449 0
M  V30 3457 C 316.539 -3.37194 -0.831728 0
M  V30 3458 C 315.493 -4.27857 -0.110558 0
M  V30 3459 C 314.819 -5.22294 -1.14513 0
M  V30 3460 C 316.119 -5.11872 1.0385 0
M  V30 3461 H 317.813 -2.86626 0.865219 0
M  V30 3462 H 315.359 -1.37814 0.417516 0
M  V30 3463 H 317.312 -4.01335 -1.28485 0
M  V30 3464 H 316.036 -2.82314 -1.64214 0
M  V30 3465 H 314.695 -3.65176 0.322797 0
M  V30 3466 H 314.343 -4.63717 -1.94874 0
M  V30 3467 H 314.043 -5.83797 -0.667446 0
M  V30 3468 H 315.567 -5.89312 -1.59824 0
M  V30 3469 H 316.981 -5.69436 0.664482 0
M  V30 3470 H 315.378 -5.82445 1.4449 0
M  V30 3471 H 316.448 -4.4753 1.86668 0
M  V30 3472 N 317.792 -0.46758 -1.50504 0
M  V30 3473 C 318.702 0.33382 -2.32213 0
M  V30 3474 C 319.718 0.999323 -1.42441 0
M  V30 3475 O 320.894 0.988068 -1.75497 0
M  V30 3476 C 317.959 1.4035 -3.17022 0
M  V30 3477 C 317.02 0.754961 -4.2261 0
M  V30 3478 C 316.253 1.77367 -5.03365 0
M  V30 3479 O 316.476 2.99976 -4.8515 0
M  V30 3480 O 315.41 1.34744 -5.86624 0
M  V30 3481 H 319.236 -0.334067 -3.01857 0
M  V30 3482 H 316.821 -0.229496 -1.47627 0
M  V30 3483 H 318.703 2.02318 -3.69656 0
M  V30 3484 H 317.378 2.05492 -2.5011 0
M  V30 3485 H 316.285 0.0964244 -3.73976 0
M  V30 3486 H 317.618 0.146545 -4.91982 0
M  V30 3487 N 319.27 1.56325 -0.20005 0
M  V30 3488 C 320.2 2.22318 0.713916 0
M  V30 3489 C 321.181 1.18788 1.21752 0
M  V30 3490 O 322.366 1.47309 1.26545 0
M  V30 3491 C 319.496 2.88639 1.93144 0
M  V30 3492 C 318.45 3.98457 1.56255 0
M  V30 3493 C 317.776 4.51967 2.85709 0
M  V30 3494 C 319.076 5.16612 0.768747 0
M  V30 3495 H 320.77 2.98952 0.163755 0
M  V30 3496 H 318.316 1.43792 0.0773219 0
M  V30 3497 H 320.269 3.33491 2.57608 0
M  V30 3498 H 318.993 2.09419 2.50621 0
M  V30 3499 H 317.652 3.54305 0.941471 0
M  V30 3500 H 317.3 3.69503 3.41287 0
M  V30 3501 H 317 5.26071 2.6177 0
M  V30 3502 H 318.524 4.99523 3.51154 0
M  V30 3503 H 319.938 5.57977 1.3166 0
M  V30 3504 H 318.335 5.96812 0.627286 0
M  V30 3505 H 319.405 4.84358 -0.229168 0
M  V30 3506 N 320.748 -0.0735177 1.57428 0
M  V30 3507 C 322.164 -0.428264 1.53747 0
M  V30 3508 C 322.364 -1.79272 0.91998 0
M  V30 3509 O 321.42 -2.47051 0.521745 0
M  V30 3510 C 322.733 -0.370914 2.98404 0
M  V30 3511 C 324.281 -0.451224 3.0973 0
M  V30 3512 C 324.756 -0.4238 4.56035 0
M  V30 3513 N 326.247 -0.483925 4.60665 0
M  V30 3514 C 326.982 -0.484891 5.71346 0
M  V30 3515 N 326.478 -0.440775 6.91396 0
M  V30 3516 N 328.271 -0.531319 5.59583 0
M  V30 3517 H 320.422 0.819949 1.95935 0
M  V30 3518 H 322.685 0.307493 0.896745 0
M  V30 3519 H 322.391 0.564956 3.47133 0
M  V30 3520 H 322.265 -1.18176 3.5821 0
M  V30 3521 H 324.652 -1.37752 2.60976 0
M  V30 3522 H 324.733 0.388167 2.52838 0
M  V30 3523 H 324.377 0.498638 5.05446 0
M  V30 3524 H 324.307 -1.2807 5.10789 0
M  V30 3525 H 326.798 -0.522338 3.74273 0
M  V30 3526 H 327.111 -0.44539 7.71515 0
M  V30 3527 H 325.456 -0.40749 6.93804 0
M  V30 3528 H 328.647 -0.563464 4.64696 0
M  V30 3529 H 328.82 -0.528603 6.4584 0
M  V30 3530 N 322.226 -1.5378 -0.344866 0
M  V30 3531 C 323.159 -1.7649 -1.4466 0
M  V30 3532 C 324.137 -0.613954 -1.50563 0
M  V30 3533 O 325.321 -0.84896 -1.683 0
M  V30 3534 C 322.448 -1.86235 -2.82903 0
M  V30 3535 C 321.494 -3.08375 -2.94631 0
M  V30 3536 S 322.327 -4.67457 -2.61236 0
M  V30 3537 C 323.483 -4.80079 -4.0159 0
M  V30 3538 H 323.716 -2.69661 -1.2518 0
M  V30 3539 H 321.249 -1.44632 -0.540455 0
M  V30 3540 H 323.207 -1.92535 -3.62547 0
M  V30 3541 H 321.868 -0.940786 -2.9968 0
M  V30 3542 H 321.061 -3.11865 -3.95925 0
M  V30 3543 H 320.663 -3.00294 -2.22934 0
M  V30 3544 H 322.955 -4.61407 -4.96094 0
M  V30 3545 H 323.898 -5.82168 -4.03095 0
M  V30 3546 H 324.306 -4.08544 -3.89554 0
M  V30 3547 N 323.704 0.605807 -1.45491 0
M  V30 3548 C 324.614 1.74466 -1.56839 0
M  V30 3549 C 325.63 1.68006 -0.452772 0
M  V30 3550 O 326.806 1.8833 -0.713708 0
M  V30 3551 C 323.871 3.10931 -1.53371 0
M  V30 3552 C 322.932 3.28832 -2.75986 0
M  V30 3553 C 322.165 4.58787 -2.72673 0
M  V30 3554 O 322.388 5.4122 -1.80102 0
M  V30 3555 O 321.322 4.79438 -3.63899 0
M  V30 3556 H 325.148 1.67843 -2.53106 0
M  V30 3557 H 322.733 0.770108 -1.28022 0
M  V30 3558 H 324.615 3.92233 -1.54051 0
M  V30 3559 H 323.29 3.18042 -0.602572 0
M  V30 3560 H 322.197 2.47112 -2.80867 0
M  V30 3561 H 323.53 3.26599 -3.68231 0
M  V30 3562 N 325.182 1.32811 0.848464 0
M  V30 3563 C 326.092 1.24278 1.98978 0
M  V30 3564 C 327.108 0.155176 1.73307 0
M  V30 3565 O 328.284 0.376999 1.9784 0
M  V30 3566 C 325.349 0.972444 3.32783 0
M  V30 3567 C 324.41 2.14911 3.71634 0
M  V30 3568 C 323.643 1.89157 4.99054 0
M  V30 3569 O 323.866 0.837165 5.64223 0
M  V30 3570 O 322.8 2.75433 5.35183 0
M  V30 3571 H 326.626 2.20238 2.09115 0
M  V30 3572 H 324.211 1.12762 0.980052 0
M  V30 3573 H 326.093 0.838432 4.12975 0
M  V30 3574 H 324.768 0.043051 3.23671 0
M  V30 3575 H 323.675 2.33862 2.91992 0
M  V30 3576 H 325.008 3.06151 3.85399 0
M  V30 3577 N 326.66 -1.06551 1.16123 0
M  V30 3578 C 327.59 -2.15935 0.88851 0
M  V30 3579 C 328.571 -1.69306 -0.164135 0
M  V30 3580 O 329.756 -1.94193 -0.0167857 0
M  V30 3581 C 326.886 -3.45149 0.385942 0
M  V30 3582 C 325.84 -4.05271 1.3762 0
M  V30 3583 C 325.166 -5.29664 0.732137 0
M  V30 3584 C 326.466 -4.44355 2.74493 0
M  V30 3585 H 328.16 -2.39006 1.80323 0
M  V30 3586 H 325.706 -1.14866 0.868435 0
M  V30 3587 H 327.659 -4.21004 0.182647 0
M  V30 3588 H 326.383 -3.21689 -0.564274 0
M  V30 3589 H 325.042 -3.3147 1.56599 0
M  V30 3590 H 324.69 -5.02499 -0.224483 0
M  V30 3591 H 324.39 -5.70848 1.39307 0
M  V30 3592 H 325.914 -6.08218 0.538802 0
M  V30 3593 H 327.328 -5.11303 2.59311 0
M  V30 3594 H 325.725 -4.96515 3.37035 0
M  V30 3595 H 326.795 -3.55339 3.29943 0
M  V30 3596 N 328.138 -0.959301 -1.25041 0
M  V30 3597 C 329.554 -0.664474 -1.4511 0
M  V30 3598 C 329.754 0.776481 -1.85938 0
M  V30 3599 O 328.81 1.55128 -1.99227 0
M  V30 3600 C 330.123 -1.64139 -2.5195 0
M  V30 3601 C 331.671 -1.65309 -2.65786 0
M  V30 3602 C 332.146 -2.61777 -3.75815 0
M  V30 3603 N 333.637 -2.60169 -3.83231 0
M  V30 3604 C 334.372 -3.31489 -4.6787 0
M  V30 3605 N 333.868 -4.12298 -5.56761 0
M  V30 3606 N 335.661 -3.20354 -4.61876 0
M  V30 3607 H 327.812 -1.89043 -0.968332 0
M  V30 3608 H 330.075 -0.813408 -0.4869 0
M  V30 3609 H 329.781 -2.67086 -2.28819 0
M  V30 3610 H 329.655 -1.40756 -3.49954 0
M  V30 3611 H 332.042 -0.630778 -2.8828 0
M  V30 3612 H 332.123 -1.92753 -1.68167 0
M  V30 3613 H 331.767 -3.64137 -3.54071 0
M  V30 3614 H 331.697 -2.31616 -4.72929 0
M  V30 3615 H 334.188 -2.01507 -3.19692 0
M  V30 3616 H 334.501 -4.63625 -6.18281 0
M  V30 3617 H 332.846 -4.16395 -5.56454 0
M  V30 3618 H 336.037 -2.56692 -3.91442 0
M  V30 3619 H 336.21 -3.76201 -5.27614 0
M  V30 3620 N 329.616 1.39756 -0.72842 0
M  V30 3621 C 330.566 2.2792 -0.0603424 0
M  V30 3622 C 331.55 1.43922 0.719399 0
M  V30 3623 O 332.742 1.66895 0.589489 0
M  V30 3624 C 329.871 3.32582 0.851104 0
M  V30 3625 C 328.957 4.24049 0.0658641 0
M  V30 3626 N 329.348 4.96653 -0.957578 0
M  V30 3627 C 327.646 4.45013 0.296509 0
M  V30 3628 C 328.347 5.63836 -1.43052 0
M  V30 3629 N 327.323 5.38397 -0.750315 0
M  V30 3630 H 331.125 2.81504 -0.84455 0
M  V30 3631 H 328.639 1.5236 -0.562155 0
M  V30 3632 H 330.636 3.94603 1.34514 0
M  V30 3633 H 329.296 2.80558 1.63454 0
M  V30 3634 H 330.307 5.00297 -1.33877 0
M  V30 3635 H 326.984 4.03943 1.05527 0
M  V30 3636 H 328.374 6.31974 -2.28163 0
M  V30 3637 N 331.094 0.475555 1.50254 0
M  V30 3638 C 332.044 -0.335025 2.25525 0
M  V30 3639 C 333.028 -0.957625 1.29299 0
M  V30 3640 O 334.22 -0.869436 1.54175 0
M  V30 3641 C 331.349 -1.41385 3.12834 0
M  V30 3642 C 330.435 -0.798762 4.1651 0
M  V30 3643 N 330.826 0.0835815 5.05731 0
M  V30 3644 C 329.124 -1.06221 4.33166 0
M  V30 3645 C 329.825 0.433113 5.80085 0
M  V30 3646 N 328.801 -0.1928 5.43258 0
M  V30 3647 H 332.603 0.344612 2.91873 0
M  V30 3648 H 330.117 0.289986 1.5979 0
M  V30 3649 H 332.114 -2.00777 3.65368 0
M  V30 3650 H 330.774 -2.09543 2.48036 0
M  V30 3651 H 331.785 0.452715 5.15918 0
M  V30 3652 H 328.462 -1.73844 3.79585 0
M  V30 3653 H 329.852 1.15346 6.61925 0
M  V30 3654 N 332.573 -1.56217 0.208337 0
M  V30 3655 C 333.82 -1.97949 -0.42692 0
M  V30 3656 C 334.148 -1.09562 -1.60706 0
M  V30 3657 O 333.403 -0.137616 -1.95216 0
M  V30 3658 C 333.702 -3.45441 -0.916797 0
M  V30 3659 C 333.368 -4.50646 0.151391 0
M  V30 3660 C 332.03 -4.79139 0.444867 0
M  V30 3661 C 334.382 -5.13811 0.874492 0
M  V30 3662 C 331.71 -5.68084 1.46619 0
M  V30 3663 C 334.062 -6.03861 1.88506 0
M  V30 3664 C 332.726 -6.30704 2.18559 0
M  V30 3665 H 331.996 -0.724345 -0.156221 0
M  V30 3666 H 334.643 -1.89006 0.308084 0
M  V30 3667 H 332.948 -3.51521 -1.73032 0
M  V30 3668 H 334.645 -3.75094 -1.41794 0
M  V30 3669 H 331.235 -4.28511 -0.0875068 0
M  V30 3670 H 335.419 -4.91879 0.660996 0
M  V30 3671 H 330.675 -5.87151 1.7048 0
M  V30 3672 H 334.849 -6.51861 2.45051 0
M  V30 3673 H 332.476 -6.99424 2.97843 0
M  V30 3674 N 334.051 0.0651679 -1.57465 0
M  V30 3675 C 335.467 0.420105 -1.53972 0
M  V30 3676 C 335.667 1.78782 -0.929474 0
M  V30 3677 O 334.723 2.46771 -0.534839 0
M  V30 3678 C 336.036 0.355084 -2.98596 0
M  V30 3679 C 337.584 0.434792 -3.09965 0
M  V30 3680 C 338.059 0.399609 -4.56253 0
M  V30 3681 N 339.55 0.459488 -4.60915 0
M  V30 3682 C 340.285 0.454584 -5.71595 0
M  V30 3683 N 339.781 0.404102 -6.9162 0
M  V30 3684 N 341.574 0.501635 -5.59857 0
M  V30 3685 H 333.725 -0.830328 -1.95498 0
M  V30 3686 H 335.988 -0.312244 -0.895102 0
M  V30 3687 H 335.694 -0.583357 -3.46828 0
M  V30 3688 H 335.568 1.16275 -3.58831 0
M  V30 3689 H 337.955 1.36366 -2.61703 0
M  V30 3690 H 338.036 -0.40157 -2.52628 0
M  V30 3691 H 337.68 -0.525436 -5.05175 0
M  V30 3692 H 337.61 1.25359 -5.11461 0
M  V30 3693 H 340.101 0.502482 -3.74544 0
M  V30 3694 H 340.414 0.404468 -7.71741 0
M  V30 3695 H 338.759 0.37069 -6.94011 0
M  V30 3696 H 341.95 0.538812 -4.64989 0
M  V30 3697 H 342.123 0.494345 -6.46112 0
M  V30 3698 N 335.529 1.53961 0.336706 0
M  V30 3699 C 336.778 1.70751 1.07363 0
M  V30 3700 C 337.091 0.481061 1.89592 0
M  V30 3701 O 338.297 0.530046 2.66276 0
M  V30 3702 C 336.753 3.01965 1.95818 0
M  V30 3703 C 336.361 4.31971 1.18764 0
M  V30 3704 C 338.105 3.28121 2.69327 0
M  V30 3705 C 336.012 5.54255 2.06289 0
M  V30 3706 H 334.942 0.636292 0.404535 0
M  V30 3707 H 337.593 1.80459 0.332681 0
M  V30 3708 H 335.975 2.86132 2.7376 0
M  V30 3709 H 337.149 4.5853 0.456849 0
M  V30 3710 H 335.464 4.12481 0.569946 0
M  V30 3711 H 338.061 4.16673 3.35094 0
M  V30 3712 H 338.404 2.45426 3.36261 0
M  V30 3713 H 338.937 3.44762 1.98454 0
M  V30 3714 H 335.676 6.39513 1.43885 0
M  V30 3715 H 335.196 5.31935 2.77138 0
M  V30 3716 H 336.875 5.90159 2.65182 0
M  V30 3717 N 337.007 -0.598083 1.45811 0
M  V30 3718 C 337.917 -1.73632 1.57763 0
M  V30 3719 C 338.933 -1.67763 0.461676 0
M  V30 3720 O 340.109 -1.87949 0.723685 0
M  V30 3721 C 337.174 -3.10114 1.55018 0
M  V30 3722 C 336.235 -3.27364 2.77726 0
M  V30 3723 C 335.468 -4.57334 2.75102 0
M  V30 3724 O 335.691 -5.40258 1.8297 0
M  V30 3725 O 334.625 -4.77502 3.66437 0
M  V30 3726 H 338.451 -1.66498 2.53992 0
M  V30 3727 H 336.036 -0.763308 1.28429 0
M  V30 3728 H 337.918 -3.9141 1.56129 0
M  V30 3729 H 336.593 -3.17718 0.619431 0
M  V30 3730 H 335.5 -2.45619 2.82174 0
M  V30 3731 H 336.833 -3.24641 3.69958 0
M  V30 3732 N 338.485 -1.33259 -0.841409 0
M  V30 3733 C 339.732 -1.24572 -1.5965 0
M  V30 3734 C 340.06 0.189137 -1.93578 0
M  V30 3735 O 339.315 1.14566 -1.5866 0
M  V30 3736 C 339.614 -2.06381 -2.9179 0
M  V30 3737 C 339.28 -3.556 -2.77235 0
M  V30 3738 C 337.942 -3.96282 -2.72973 0
M  V30 3739 C 340.294 -4.50433 -2.62221 0
M  V30 3740 C 337.622 -5.30017 -2.51592 0
M  V30 3741 C 339.974 -5.84327 -2.42374 0
M  V30 3742 C 338.638 -6.24194 -2.36512 0
M  V30 3743 H 337.908 -0.455842 -0.5842 0
M  V30 3744 H 340.555 -1.6482 -0.975016 0
M  V30 3745 H 338.86 -1.58903 -3.5813 0
M  V30 3746 H 340.557 -1.97019 -3.49263 0
M  V30 3747 H 337.147 -3.23298 -2.81384 0
M  V30 3748 H 341.331 -4.19914 -2.64549 0
M  V30 3749 H 336.587 -5.59947 -2.45499 0
M  V30 3750 H 340.761 -6.57414 -2.29739 0
M  V30 3751 H 338.388 -7.27759 -2.19706 0
M  V30 3752 N 339.963 1.05934 -1.16686 0
M  V30 3753 C 340.926 2.11669 -0.879144 0
M  V30 3754 C 341.926 1.60294 0.127445 0
M  V30 3755 O 343.116 1.7389 -0.103865 0
M  V30 3756 C 340.248 3.39438 -0.315425 0
M  V30 3757 H 341.441 2.38626 -1.81653 0
M  V30 3758 H 338.994 1.22058 -0.976299 0
M  V30 3759 H 339.729 3.18132 0.629468 0
M  V30 3760 H 339.514 3.78034 -1.04079 0
M  V30 3761 H 341.004 4.17391 -0.132189 0
M  V30 3762 N 341.441 0.965919 1.2453 0
M  V30 3763 C 342.687 0.62776 1.92839 0
M  V30 3764 C 343.02 -0.834694 1.75347 0
M  V30 3765 O 342.295 -1.60031 1.10546 0
M  V30 3766 C 342.578 1.00109 3.45905 0
M  V30 3767 C 342.431 2.52011 3.72573 0
M  V30 3768 C 343.75 0.53435 4.36844 0
M  V30 3769 H 340.869 0.229537 0.700344 0
M  V30 3770 H 343.511 1.2046 1.46933 0
M  V30 3771 H 341.661 0.510238 3.85135 0
M  V30 3772 H 343.333 3.08559 3.42912 0
M  V30 3773 H 341.576 2.95287 3.17786 0
M  V30 3774 H 342.247 2.73183 4.79661 0
M  V30 3775 H 344.723 0.955565 4.04979 0
M  V30 3776 H 343.599 0.824152 5.42678 0
M  V30 3777 H 343.86 -0.565589 4.38467 0
M  V30 3778 N 342.919 -1.39368 0.735821 0
M  V30 3779 C 343.882 -2.2896 0.104874 0
M  V30 3780 C 344.882 -1.46347 -0.666274 0
M  V30 3781 O 346.072 -1.67014 -0.49517 0
M  V30 3782 C 343.204 -3.29857 -0.860656 0
M  V30 3783 H 344.397 -2.86259 0.894205 0
M  V30 3784 H 341.95 -1.48029 0.501704 0
M  V30 3785 H 342.685 -2.77615 -1.67631 0
M  V30 3786 H 342.47 -3.9087 -0.310327 0
M  V30 3787 H 343.96 -3.96893 -1.29867 0
M  V30 3788 N 344.397 -0.483516 -1.5 0
M  V30 3789 C 345.307 0.309172 -2.32554 0
M  V30 3790 C 346.323 0.984159 -1.43493 0
M  V30 3791 O 347.499 0.969399 -1.76535 0
M  V30 3792 C 344.564 1.36979 -3.18493 0
M  V30 3793 C 343.625 0.710095 -4.23387 0
M  V30 3794 C 342.858 1.72018 -5.05218 0
M  V30 3795 O 343.081 2.94813 -4.88305 0
M  V30 3796 O 342.015 1.28515 -5.8802 0
M  V30 3797 H 345.841 -0.366064 -3.01486 0
M  V30 3798 H 343.426 -0.24514 -1.47375 0
M  V30 3799 H 345.308 1.98385 -3.71781 0
M  V30 3800 H 343.983 2.02828 -2.52275 0
M  V30 3801 H 342.89 0.0567539 -3.74057 0
M  V30 3802 H 344.223 0.0943557 -4.9211 0
M  V30 3803 N 345.875 1.56104 -0.216619 0
M  V30 3804 C 347.123 1.97781 0.415593 0
M  V30 3805 C 347.444 1.10536 1.60645 0
M  V30 3806 O 346.714 0.181303 1.95059 0
M  V30 3807 H 345.294 0.730415 0.156534 0
M  V30 3808 H 347.956 1.92445 -0.308366 0
M  V30 3809 H 347.052 3.03072 0.74525 0
M  V30 3810 N 347.353 -0.0568162 1.57498 0
M  V30 3811 C 348.316 -1.05038 2.03715 0
M  V30 3812 C 349.316 -1.30709 0.936577 0
M  V30 3813 O 350.506 -1.26178 1.20103 0
M  V30 3814 C 347.638 -2.39034 2.43055 0
M  V30 3815 H 348.831 -0.651715 2.92733 0
M  V30 3816 H 346.384 -0.302947 1.53336 0
M  V30 3817 H 347.119 -2.83703 1.57108 0
M  V30 3818 H 346.904 -2.21739 3.2338 0
M  V30 3819 H 348.394 -3.10421 2.79336 0
M  V30 3820 N 348.832 -1.54138 -0.328536 0
M  V30 3821 C 349.779 -1.83176 -1.40411 0
M  V30 3822 C 350.749 -0.678494 -1.5161 0
M  V30 3823 O 351.934 -0.92443 -1.6691 0
M  V30 3824 C 349.074 -2.06035 -2.76846 0
M  V30 3825 C 348.187 -3.33727 -2.74318 0
M  V30 3826 C 347.322 -3.46574 -4.02567 0
M  V30 3827 C 346.361 -4.68159 -3.94327 0
M  V30 3828 N 345.498 -4.77959 -5.14296 0
M  V30 3829 H 350.338 -2.74938 -1.14948 0
M  V30 3830 H 347.875 -1.36166 -0.556538 0
M  V30 3831 H 349.833 -2.1728 -3.56153 0
M  V30 3832 H 348.463 -1.1757 -3.00628 0
M  V30 3833 H 347.515 -3.31246 -1.8703 0
M  V30 3834 H 348.827 -4.23139 -2.64111 0
M  V30 3835 H 347.981 -3.57333 -4.90304 0
M  V30 3836 H 346.72 -2.55245 -4.15574 0
M  V30 3837 H 345.725 -4.57461 -3.04974 0
M  V30 3838 H 346.95 -5.60868 -3.82889 0
M  V30 3839 H 344.896 -3.89544 -5.27818 0
M  V30 3840 H 344.813 -5.6133 -5.06404 0
M  V30 3841 H 346.081 -4.93044 -6.03761 0
M  V30 3842 N 350.31 0.590341 -1.46126 0
M  V30 3843 C 351.258 1.72105 -1.5647 0
M  V30 3844 C 352.252 1.63756 -0.433612 0
M  V30 3845 O 353.458 1.69342 -0.610194 0
M  V30 3846 H 349.833 0.568889 -0.491802 0
M  V30 3847 H 351.804 1.6051 -2.51553 0
M  V30 3848 C 350.553 3.10493 -1.56491 0
M  V30 3849 H 349.876 3.17583 -2.4286 0
M  V30 3850 H 351.316 3.8939 -1.67785 0
M  V30 3851 C 349.775 3.3563 -0.292231 0
M  V30 3852 O 350.305 3.96875 0.620739 0
M  V30 3853 N 348.511 2.90026 -0.182523 0
M  V30 3854 H 348.058 2.40367 -0.926356 0
M  V30 3855 H 348.016 3.07218 0.668152 0
M  V30 3856 N 351.788 1.33704 0.83433 0
M  V30 3857 C 353.034 1.25603 1.59222 0
M  V30 3858 C 353.367 -0.176659 1.93395 0
M  V30 3859 O 352.642 -1.11915 1.59076 0
M  V30 3860 C 352.925 2.13576 2.89926 0
M  V30 3861 C 352.778 3.65326 2.62406 0
M  V30 3862 C 354.097 2.01238 3.91397 0
M  V30 3863 H 351.216 0.457613 0.577719 0
M  V30 3864 H 353.858 1.63848 0.961972 0
M  V30 3865 H 352.008 1.8109 3.43713 0
M  V30 3866 H 353.68 4.08124 2.15017 0
M  V30 3867 H 351.923 3.8698 1.96033 0
M  V30 3868 H 352.594 4.22232 3.55562 0
M  V30 3869 H 355.07 2.29738 3.46929 0
M  V30 3870 H 353.946 2.65036 4.80673 0
M  V30 3871 H 354.207 0.985951 4.30966 0
M  V30 3872 N 353.266 -1.05314 1.17247 0
M  V30 3873 C 354.199 -2.12512 0.831507 0
M  V30 3874 C 355.177 -1.61351 -0.201168 0
M  V30 3875 O 356.361 -1.88317 -0.0829831 0
M  V30 3876 C 353.488 -3.37848 0.24015 0
M  V30 3877 C 352.534 -4.07832 1.24801 0
M  V30 3878 S 353.367 -4.56537 2.79882 0
M  V30 3879 C 354.523 -5.85122 2.22223 0
M  V30 3880 H 354.756 -2.41106 1.7394 0
M  V30 3881 H 352.289 -1.17896 0.996988 0
M  V30 3882 H 354.247 -4.10391 -0.0945588 0
M  V30 3883 H 352.908 -3.07392 -0.645668 0
M  V30 3884 H 352.101 -4.97883 0.78287 0
M  V30 3885 H 351.703 -3.41348 1.52831 0
M  V30 3886 H 353.995 -6.58408 1.59703 0
M  V30 3887 H 354.938 -6.36381 3.10523 0
M  V30 3888 H 355.346 -5.39626 1.65722 0
M  V30 3889 N 354.744 -0.972509 -1.24016 0
M  V30 3890 C 355.691 -0.505969 -2.25186 0
M  V30 3891 C 356.661 0.451009 -1.5986 0
M  V30 3892 O 357.846 0.360307 -1.87367 0
M  V30 3893 C 354.986 0.193089 -3.44559 0
M  V30 3894 C 354.099 -0.803222 -4.24467 0
M  V30 3895 C 353.234 -0.0797793 -5.3114 0
M  V30 3896 C 352.273 -1.06583 -6.02749 0
M  V30 3897 N 351.41 -0.372074 -7.01113 0
M  V30 3898 H 356.25 -1.37351 -2.64459 0
M  V30 3899 H 353.787 -0.688419 -1.29997 0
M  V30 3900 H 355.745 0.615125 -4.1264 0
M  V30 3901 H 354.375 1.02455 -3.06109 0
M  V30 3902 H 353.427 -1.34368 -3.55878 0
M  V30 3903 H 354.739 -1.55494 -4.73944 0
M  V30 3904 H 353.893 0.400015 -6.0538 0
M  V30 3905 H 352.632 0.704597 -4.82583 0
M  V30 3906 H 351.637 -1.55645 -5.27309 0
M  V30 3907 H 352.862 -1.85074 -6.53395 0
M  V30 3908 H 350.808 0.393238 -6.5482 0
M  V30 3909 H 350.725 -1.06258 -7.48495 0
M  V30 3910 H 351.993 0.0855932 -7.79453 0
M  V30 3911 N 356.222 1.38976 -0.743202 0
M  V30 3912 C 357.152 2.33171 -0.123873 0
M  V30 3913 C 358.133 1.54336 0.71516 0
M  V30 3914 O 359.318 1.82696 0.658467 0
M  V30 3915 C 356.448 3.38474 0.777978 0
M  V30 3916 C 355.402 4.27979 0.0424758 0
M  V30 3917 C 354.728 5.2405 1.06189 0
M  V30 3918 C 356.028 5.10155 -1.1198 0
M  V30 3919 H 357.722 2.85213 -0.910709 0
M  V30 3920 H 355.268 1.37133 -0.439388 0
M  V30 3921 H 357.221 4.03328 1.22084 0
M  V30 3922 H 355.945 2.84891 1.59702 0
M  V30 3923 H 354.604 3.64616 -0.380853 0
M  V30 3924 H 354.252 4.66758 1.87472 0
M  V30 3925 H 353.952 5.84785 0.574485 0
M  V30 3926 H 355.476 5.9178 1.50428 0
M  V30 3927 H 356.89 5.68307 -0.75499 0
M  V30 3928 H 355.287 5.80073 -1.53738 0
M  V30 3929 H 356.357 4.44504 -1.93764 0
M  V30 3930 N 357.7 0.491464 1.49741 0
M  V30 3931 C 358.63 -0.28154 2.31796 0
M  V30 3932 C 359.611 -0.971473 1.3963 0
M  V30 3933 O 360.796 -0.964719 1.68543 0
M  V30 3934 C 357.926 -1.35203 3.19902 0
M  V30 3935 C 356.88 -0.782529 4.20786 0
M  V30 3936 C 356.206 -1.95283 4.97764 0
M  V30 3937 C 357.506 0.21999 5.21837 0
M  V30 3938 H 359.2 0.403355 2.96671 0
M  V30 3939 H 356.746 0.195425 1.42668 0
M  V30 3940 H 358.699 -1.90045 3.76113 0
M  V30 3941 H 357.423 -2.06598 2.52953 0
M  V30 3942 H 356.082 -0.255928 3.65706 0
M  V30 3943 H 355.73 -2.65423 4.2727 0
M  V30 3944 H 355.43 -1.57789 5.66018 0
M  V30 3945 H 356.954 -2.50577 5.56816 0
M  V30 3946 H 358.368 -0.23996 5.72798 0
M  V30 3947 H 356.765 0.51026 5.97927 0
M  V30 3948 H 357.835 1.13911 4.7133 0
M  V30 3949 N 359.178 -1.55987 0.224894 0
M  V30 3950 C 360.426 -1.97998 -0.405099 0
M  V30 3951 C 360.747 -1.11387 -1.60056 0
M  V30 3952 O 360.017 -0.191645 -1.9496 0
M  V30 3953 H 358.597 -0.731235 -0.152658 0
M  V30 3954 H 361.259 -1.92279 0.318567 0
M  V30 3955 H 360.355 -3.03463 -0.729167 0
M  V30 3956 N 360.656 0.0484629 -1.57525 0
M  V30 3957 C 361.881 0.759177 -1.93006 0
M  V30 3958 C 362.306 1.69125 -0.823317 0
M  V30 3959 O 361.664 1.79931 0.222364 0
M  V30 3960 C 361.712 1.50899 -3.27509 0
M  V30 3961 O 360.816 2.62112 -3.18388 0
M  V30 3962 H 360.157 0.205564 -0.631379 0
M  V30 3963 H 362.687 0.00972959 -2.04598 0
M  V30 3964 H 362.697 1.88317 -3.6194 0
M  V30 3965 H 361.372 0.825269 -4.0763 0
M  V30 3966 H 359.949 2.27379 -2.95556 0
M  V30 3967 N 362.134 1.5431 0.320358 0
M  V30 3968 C 363.382 1.72327 1.05583 0
M  V30 3969 C 363.703 0.50149 1.88441 0
M  V30 3970 O 362.973 -0.48448 1.89815 0
M  V30 3971 H 361.553 0.635387 0.3928 0
M  V30 3972 H 364.215 1.91621 0.356019 0
M  V30 3973 H 363.311 2.60426 1.72003 0
M  V30 3974 N 363.613 -0.582584 1.46437 0
M  V30 3975 C 364.56 -1.69164 1.5701 0
M  V30 3976 C 365.53 -1.60847 0.414403 0
M  V30 3977 O 366.715 -1.80058 0.631171 0
M  V30 3978 C 363.855 -3.075 1.56646 0
M  V30 3979 C 362.968 -3.2644 2.82951 0
M  V30 3980 C 362.103 -4.55026 2.7409 0
M  V30 3981 C 361.142 -4.6731 3.95333 0
M  V30 3982 N 360.279 -5.87221 3.84858 0
M  V30 3983 H 365.119 -1.59464 2.51744 0
M  V30 3984 H 362.656 -0.777186 1.24893 0
M  V30 3985 H 364.614 -3.8757 1.5442 0
M  V30 3986 H 363.244 -3.16096 0.654439 0
M  V30 3987 H 362.296 -2.39974 2.95155 0
M  V30 3988 H 363.608 -3.31385 3.72808 0
M  V30 3989 H 362.762 -5.43324 2.6997 0
M  V30 3990 H 361.501 -4.52519 1.81873 0
M  V30 3991 H 360.506 -3.77429 3.99784 0
M  V30 3992 H 361.731 -4.71595 4.88646 0
M  V30 3993 H 359.677 -5.85712 2.95427 0
M  V30 3994 H 359.594 -5.93435 4.6837 0
M  V30 3995 H 360.862 -6.7795 3.84713 0
M  V30 3996 N 365.091 -1.34144 -0.827227 0
M  V30 3997 C 366.337 -1.26446 -1.58554 0
M  V30 3998 C 366.67 0.1664 -1.93486 0
M  V30 3999 O 365.945 1.1107 -1.59667 0
M  V30 4000 C 366.228 -2.15111 -2.8879 0
M  V30 4001 C 366.081 -3.66712 -2.60465 0
M  V30 4002 C 367.4 -2.03311 -3.90324 0
M  V30 4003 H 364.519 -0.46067 -0.575284 0
M  V30 4004 H 367.161 -1.64356 -0.953269 0
M  V30 4005 H 365.311 -1.8291 -3.42748 0
M  V30 4006 H 366.983 -4.09259 -2.1285 0
M  V30 4007 H 365.226 -3.88014 -1.93978 0
M  V30 4008 H 365.897 -4.24112 -3.53317 0
M  V30 4009 H 368.373 -2.31574 -3.45706 0
M  V30 4010 H 367.249 -2.67582 -4.79261 0
M  V30 4011 H 367.51 -1.00879 -4.30437 0
M  V30 4012 N 366.569 1.04691 -1.17803 0
M  V30 4013 C 367.797 1.81446 -0.99423 0
M  V30 4014 C 368.212 1.83174 0.457459 0
M  V30 4015 O 367.569 1.26265 1.31771 0
M  V30 4016 C 367.62 3.27334 -1.5341 0
M  V30 4017 O 367.341 3.25798 -2.92895 0
M  V30 4018 C 368.842 4.20759 -1.39559 0
M  V30 4019 H 366.062 0.571599 -0.351447 0
M  V30 4020 H 368.606 1.31982 -1.56208 0
M  V30 4021 H 366.761 3.74052 -1.00815 0
M  V30 4022 H 367.175 4.17144 -3.17949 0
M  V30 4023 H 368.649 5.21084 -1.82141 0
M  V30 4024 H 369.126 4.37856 -0.343394 0
M  V30 4025 H 369.732 3.79901 -1.91195 0
M  V30 4026 N 368.047 0.979072 1.23499 0
M  V30 4027 C 369.324 0.563674 1.87302 0
M  V30 4028 C 369.704 -0.959199 1.88049 0
M  V30 4029 O 369.052 -1.83535 1.36114 0
M  V30 4030 C 369.262 1.16822 3.28867 0
M  V30 4031 C 370.61 1.26014 4.0547 0
M  V30 4032 O 371.634 1.12158 3.38082 0
M  V30 4033 O 370.493 1.48044 5.26066 0
M  V30 4034 H 367.587 0.189602 0.804972 0
M  V30 4035 H 370.133 1.07407 1.31384 0
M  V30 4036 H 368.905 2.21049 3.22883 0
M  V30 4037 H 368.528 0.642564 3.92373 0
M  V30 4038 N 369.525 -1.3858 0.750561 0
M  V30 4039 C 370.941 -1.53759 0.427824 0
M  V30 4040 C 371.141 -1.71401 -1.05943 0
M  V30 4041 O 370.197 -1.72331 -1.84549 0
M  V30 4042 C 371.51 -2.74642 1.22443 0
M  V30 4043 C 373.058 -2.88489 1.2142 0
M  V30 4044 C 373.533 -4.12329 1.9937 0
M  V30 4045 N 375.024 -4.194 1.96616 0
M  V30 4046 C 375.759 -5.14209 2.53727 0
M  V30 4047 N 375.255 -6.14709 3.19539 0
M  V30 4048 N 377.048 -5.06537 2.43673 0
M  V30 4049 H 369.199 -1.25377 1.71447 0
M  V30 4050 H 371.462 -0.608844 0.726645 0
M  V30 4051 H 371.168 -2.68 2.27747 0
M  V30 4052 H 371.042 -3.67745 0.839273 0
M  V30 4053 H 373.429 -2.94614 0.169232 0
M  V30 4054 H 373.51 -1.96406 1.63885 0
M  V30 4055 H 373.154 -4.06966 3.03877 0
M  V30 4056 H 373.084 -5.03486 1.54302 0
M  V30 4057 H 375.575 -3.47421 1.48684 0
M  V30 4058 H 375.888 -6.8354 3.60545 0
M  V30 4059 H 374.233 -6.1505 3.23633 0
M  V30 4060 H 377.424 -4.26962 1.91889 0
M  V30 4061 H 377.597 -5.80245 2.88479 0
M  V30 4062 N 371.003 -0.499398 -1.49478 0
M  V30 4063 C 371.95 0.279881 -2.29097 0
M  V30 4064 C 372.92 0.961805 -1.3542 0
M  V30 4065 O 374.105 0.968777 -1.64376 0
M  V30 4066 C 371.245 1.33932 -3.18051 0
M  V30 4067 C 370.358 0.669333 -4.26783 0
M  V30 4068 C 369.493 1.70907 -5.02955 0
M  V30 4069 C 368.532 1.02087 -6.03527 0
M  V30 4070 N 367.669 2.00474 -6.7287 0
M  V30 4071 H 372.509 -0.405317 -2.95231 0
M  V30 4072 H 370.046 -0.211726 -1.45568 0
M  V30 4073 H 372.004 1.96553 -3.67998 0
M  V30 4074 H 370.634 1.9933 -2.53904 0
M  V30 4075 H 369.686 -0.0701234 -3.80335 0
M  V30 4076 H 370.998 0.127503 -4.98637 0
M  V30 4077 H 370.152 2.41037 -5.56764 0
M  V30 4078 H 368.891 2.28476 -4.30871 0
M  V30 4079 H 367.896 0.305338 -5.48951 0
M  V30 4080 H 369.121 0.451708 -6.77596 0
M  V30 4081 H 367.067 2.57007 -6.03559 0
M  V30 4082 H 366.984 1.51353 -7.40694 0
M  V30 4083 H 368.252 2.69897 -7.31284 0
M  V30 4084 N 372.481 1.55866 -0.233164 0
M  V30 4085 C 373.444 2.1953 0.658715 0
M  V30 4086 C 374.444 1.16053 1.11303 0
M  V30 4087 O 375.634 1.41218 1.01996 0
M  V30 4088 C 372.766 2.82791 1.90373 0
M  V30 4089 H 373.959 2.99721 0.10347 0
M  V30 4090 H 371.512 1.56291 0.0164245 0
M  V30 4091 H 372.247 2.06501 2.50056 0
M  V30 4092 H 372.032 3.58578 1.58632 0
M  V30 4093 H 373.522 3.31556 2.53891 0
M  V30 4094 N 373.959 -0.0401083 1.57549 0
M  V30 4095 C 374.889 -1.04384 2.08869 0
M  V30 4096 C 375.87 -1.38407 0.988817 0
M  V30 4097 O 377.055 -1.47483 1.26342 0
M  V30 4098 C 374.185 -2.34808 2.55895 0
M  V30 4099 C 373.139 -2.15057 3.70047 0
M  V30 4100 C 372.465 -3.51145 4.03239 0
M  V30 4101 C 373.765 -1.54576 4.98902 0
M  V30 4102 H 375.459 -0.616666 2.92981 0
M  V30 4103 H 373.005 -0.295184 1.40942 0
M  V30 4104 H 374.958 -3.05346 2.90417 0
M  V30 4105 H 373.682 -2.79565 1.68853 0
M  V30 4106 H 372.341 -1.46954 3.35857 0
M  V30 4107 H 371.989 -3.93529 3.13279 0
M  V30 4108 H 371.689 -3.38758 4.80122 0
M  V30 4109 H 373.213 -4.23062 4.40285 0
M  V30 4110 H 374.627 -2.15017 5.31451 0
M  V30 4111 H 373.024 -1.52796 5.80322 0
M  V30 4112 H 374.094 -0.51039 4.82206 0
M  V30 4113 N 375.437 -1.54477 -0.31217 0
M  V30 4114 C 376.662 -1.77526 -1.07235 0
M  V30 4115 C 377.087 -0.527775 -1.80544 0
M  V30 4116 O 376.445 0.52121 -1.73646 0
M  V30 4117 C 376.493 -2.97535 -2.03728 0
M  V30 4118 O 375.597 -2.69878 -3.11833 0
M  V30 4119 H 374.938 -0.58792 -0.30862 0
M  V30 4120 H 377.468 -2.01532 -0.352993 0
M  V30 4121 H 377.478 -3.25198 -2.46395 0
M  V30 4122 H 376.153 -3.87996 -1.49774 0
M  V30 4123 H 374.73 -2.53199 -2.7376 0
M  V30 4124 N 376.915 0.57481 -1.46744 0
M  V30 4125 C 377.825 1.711 -1.60505 0
M  V30 4126 C 378.841 1.67008 -0.488307 0
M  V30 4127 O 380.017 1.86774 -0.753495 0
M  V30 4128 C 377.082 3.07608 -1.59932 0
M  V30 4129 C 376.143 3.22904 -2.82898 0
M  V30 4130 C 375.376 4.529 -2.82343 0
M  V30 4131 O 375.599 5.37278 -1.91542 0
M  V30 4132 O 374.533 4.71611 -3.73987 0
M  V30 4133 H 378.359 1.62436 -2.56609 0
M  V30 4134 H 375.944 0.742779 -1.29627 0
M  V30 4135 H 377.826 3.88877 -1.62336 0
M  V30 4136 H 376.501 3.16692 -0.669898 0
M  V30 4137 H 375.408 2.41099 -2.86046 0
M  V30 4138 H 376.741 3.18715 -3.75076 0
M  V30 4139 N 378.394 1.34581 0.820102 0
M  V30 4140 C 379.357 1.2628 1.91275 0
M  V30 4141 C 380.357 0.177344 1.59819 0
M  V30 4142 O 381.547 0.430156 1.68806 0
M  V30 4143 C 378.679 0.950327 3.27386 0
M  V30 4144 H 379.872 2.23421 2.00057 0
M  V30 4145 H 377.425 1.1891 1.0144 0
M  V30 4146 H 378.16 -0.0177938 3.24295 0
M  V30 4147 H 377.945 1.73549 3.51601 0
M  V30 4148 H 379.435 0.917492 4.07396 0
M  V30 4149 N 379.872 -1.04064 1.18357 0
M  V30 4150 C 380.804 -2.12114 0.868358 0
M  V30 4151 C 381.817 -1.62247 -0.134045 0
M  V30 4152 O 383.006 -1.78253 0.0937933 0
M  V30 4153 C 380.106 -3.37773 0.276132 0
M  V30 4154 C 379.279 -4.16874 1.3242 0
M  V30 4155 C 378.338 -5.20861 0.747662 0
M  V30 4156 O 377.364 -5.51141 1.42239 0
M  V30 4157 N 378.566 -5.78715 -0.454823 0
M  V30 4158 H 381.331 -2.39748 1.79836 0
M  V30 4159 H 378.892 -1.20258 1.08396 0
M  V30 4160 H 380.884 -4.04513 -0.123133 0
M  V30 4161 H 379.454 -3.07581 -0.557895 0
M  V30 4162 H 378.674 -3.45456 1.89878 0
M  V30 4163 H 379.962 -4.66516 2.03078 0
M  V30 4164 H 379.36 -5.56415 -1.02073 0
M  V30 4165 H 377.917 -6.46921 -0.79601 0
M  V30 4166 N 381.35 -0.985608 -1.22978 0
M  V30 4167 C 382.313 -0.535071 -2.22867 0
M  V30 4168 C 383.313 0.378123 -1.56291 0
M  V30 4169 O 384.503 0.171092 -1.73358 0
M  V30 4170 C 381.635 0.222702 -3.40172 0
M  V30 4171 H 382.828 -1.41835 -2.6424 0
M  V30 4172 H 380.381 -0.772042 -1.35901 0
M  V30 4173 H 381.116 1.12229 -3.04262 0
M  V30 4174 H 380.901 -0.43288 -3.89703 0
M  V30 4175 H 382.391 0.526335 -4.1427 0
M  V30 4176 N 382.828 1.3818 -0.7579 0
M  V30 4177 C 384.244 1.5353 -0.435972 0
M  V30 4178 C 384.444 1.71961 1.05032 0
M  V30 4179 O 383.5 1.73307 1.83633 0
M  V30 4180 C 384.813 2.73989 -1.23898 0
M  V30 4181 C 386.361 2.87841 -1.22949 0
M  V30 4182 C 386.836 4.11266 -2.01554 0
M  V30 4183 N 388.327 4.18352 -1.98837 0
M  V30 4184 C 389.062 5.12856 -2.5645 0
M  V30 4185 N 388.558 6.13005 -3.22794 0
M  V30 4186 N 390.351 5.05238 -2.46356 0
M  V30 4187 H 382.502 1.24467 -1.7211 0
M  V30 4188 H 384.765 0.604982 -0.729864 0
M  V30 4189 H 384.471 2.66789 -2.29165 0
M  V30 4190 H 384.345 3.67294 -0.858764 0
M  V30 4191 H 386.732 2.9452 -0.184854 0
M  V30 4192 H 386.813 1.95534 -1.64924 0
M  V30 4193 H 386.457 4.05349 -3.06031 0
M  V30 4194 H 386.387 5.02661 -1.5697 0
M  V30 4195 H 388.878 3.46628 -1.50524 0
M  V30 4196 H 389.191 6.81619 -3.64165 0
M  V30 4197 H 387.536 6.13325 -3.2689 0
M  V30 4198 H 390.727 4.25938 -1.9415 0
M  V30 4199 H 390.9 5.78707 -2.91552 0
M  V30 4200 N 384.306 0.507319 1.49211 0
M  V30 4201 C 385.553 -0.0349529 2.0247 0
M  V30 4202 C 385.881 -1.36409 1.38647 0
M  V30 4203 O 385.136 -1.88841 0.513566 0
M  V30 4204 C 385.435 -0.229513 3.56662 0
M  V30 4205 C 385.101 1.02241 4.39156 0
M  V30 4206 C 383.763 1.36557 4.61417 0
M  V30 4207 C 386.115 1.85428 4.871 0
M  V30 4208 C 383.443 2.53999 5.28868 0
M  V30 4209 C 385.795 3.02028 5.55843 0
M  V30 4210 C 384.459 3.36717 5.76349 0
M  V30 4211 H 383.729 -0.0127902 0.74089 0
M  V30 4212 H 386.376 0.668756 1.79443 0
M  V30 4213 H 384.681 -1.0158 3.78403 0
M  V30 4214 H 386.378 -0.663641 3.9547 0
M  V30 4215 H 382.968 0.745124 4.22073 0
M  V30 4216 H 387.152 1.6023 4.69723 0
M  V30 4217 H 382.408 2.81105 5.42946 0
M  V30 4218 H 386.582 3.66808 5.91967 0
M  V30 4219 H 384.209 4.27821 6.28389 0
M  V30 4220 N 385.784 -1.5574 0.241426 0
M  V30 4221 C 386.732 -2.22538 -0.676718 0
M  V30 4222 C 387.726 -1.21117 -1.18436 0
M  V30 4223 O 388.932 -1.39144 -1.14188 0
M  V30 4224 H 385.307 -0.713776 -0.236701 0
M  V30 4225 H 387.278 -2.98264 -0.0901187 0
M  V30 4226 C 386.027 -2.93439 -1.86518 0
M  V30 4227 H 385.35 -3.7125 -1.4837 0
M  V30 4228 H 386.79 -3.43549 -2.48495 0
M  V30 4229 C 385.249 -1.97008 -2.73294 0
M  V30 4230 O 385.779 -1.49965 -3.72657 0
M  V30 4231 N 383.985 -1.64227 -2.39745 0
M  V30 4232 H 383.532 -2.02677 -1.58996 0
M  V30 4233 H 383.49 -0.999708 -2.98083 0
M  V30 4234 N 387.262 0.0317525 -1.57568 0
M  V30 4235 C 388.172 1.05021 -2.0978 0
M  V30 4236 C 389.188 1.39809 -1.03583 0
M  V30 4237 O 390.364 1.49182 -1.35302 0
M  V30 4238 C 387.429 2.33301 -2.56459 0
M  V30 4239 C 386.49 2.0512 -3.77127 0
M  V30 4240 C 385.723 3.27283 -4.2157 0
M  V30 4241 O 385.946 4.37861 -3.65559 0
M  V30 4242 O 384.88 3.13141 -5.14029 0
M  V30 4243 H 388.706 0.636505 -2.96955 0
M  V30 4244 H 386.291 0.248559 -1.47318 0
M  V30 4245 H 388.173 3.08722 -2.86825 0
M  V30 4246 H 386.848 2.73973 -1.72397 0
M  V30 4247 H 385.755 1.27276 -3.51784 0
M  V30 4248 H 387.088 1.69305 -4.62165 0
M  V30 4249 N 388.74 1.54641 0.303973 0
M  V30 4250 C 389.965 1.78092 1.06292 0
M  V30 4251 C 390.39 0.537342 1.80262 0
M  V30 4252 O 389.748 -0.511993 1.7392 0
M  V30 4253 C 389.796 2.98612 2.02147 0
M  V30 4254 O 388.9 2.71528 3.10397 0
M  V30 4255 H 388.241 0.589548 0.305497 0
M  V30 4256 H 390.771 2.01716 0.3423 0
M  V30 4257 H 390.781 3.265 2.44667 0
M  V30 4258 H 389.456 3.88785 1.47714 0
M  V30 4259 H 388.033 2.54648 2.72413 0
M  V30 4260 N 390.218 -0.567019 1.47046 0
M  V30 4261 C 391.443 -1.3551 1.57009 0
M  V30 4262 C 391.868 -1.86841 0.217259 0
M  V30 4263 O 391.226 -1.62435 -0.805268 0
M  V30 4264 C 391.274 -2.50777 2.5912 0
M  V30 4265 O 390.378 -3.52706 2.13711 0
M  V30 4266 H 389.719 -0.402919 0.52778 0
M  V30 4267 H 392.249 -0.686241 1.92748 0
M  V30 4268 H 392.259 -2.97481 2.79229 0
M  V30 4269 H 390.934 -2.12771 3.57353 0
M  V30 4270 H 389.511 -3.12374 2.03659 0
M  V30 4271 N 391.696 -1.35014 -0.812953 0
M  V30 4272 C 392.628 -1.23262 -1.93233 0
M  V30 4273 C 393.641 -0.157371 -1.62038 0
M  V30 4274 O 394.83 -0.410096 -1.73725 0
M  V30 4275 C 391.93 -0.87392 -3.27438 0
M  V30 4276 C 391.103 -2.04622 -3.86586 0
M  V30 4277 C 390.162 -1.66432 -4.99186 0
M  V30 4278 O 389.188 -2.38222 -5.16951 0
M  V30 4279 N 390.39 -0.584248 -5.77552 0
M  V30 4280 H 393.155 -2.19699 -2.03844 0
M  V30 4281 H 390.716 -1.281 -0.99005 0
M  V30 4282 H 392.708 -0.600039 -4.00227 0
M  V30 4283 H 391.278 0.00057392 -3.126 0
M  V30 4284 H 390.498 -2.48427 -3.06068 0
M  V30 4285 H 391.786 -2.82999 -4.22835 0
M  V30 4286 H 391.184 0.0123526 -5.65699 0
M  V30 4287 H 389.741 -0.37013 -6.50748 0
M  V30 4288 N 393.175 1.03435 -1.18907 0
M  V30 4289 C 394.122 2.11591 -0.921837 0
M  V30 4290 C 395.092 1.65499 0.141226 0
M  V30 4291 O 396.277 1.908 0.000242829 0
M  V30 4292 C 393.417 3.42012 -0.460616 0
M  V30 4293 C 392.53 4.01682 -1.58982 0
M  V30 4294 C 391.665 5.20091 -1.08069 0
M  V30 4295 C 390.704 5.71805 -2.18416 0
M  V30 4296 N 389.841 6.81494 -1.68849 0
M  V30 4297 H 394.681 2.33787 -1.8479 0
M  V30 4298 H 392.218 1.1467 -0.921373 0
M  V30 4299 H 394.176 4.16834 -0.174642 0
M  V30 4300 H 392.806 3.19944 0.428467 0
M  V30 4301 H 391.858 3.24127 -1.99113 0
M  V30 4302 H 393.17 4.36084 -2.4214 0
M  V30 4303 H 392.324 6.02051 -0.749615 0
M  V30 4304 H 391.063 4.87209 -0.218771 0
M  V30 4305 H 390.068 4.88461 -2.5236 0
M  V30 4306 H 391.293 6.06728 -3.05054 0
M  V30 4307 H 389.239 6.50475 -0.849572 0
M  V30 4308 H 389.156 7.14994 -2.45601 0
M  V30 4309 H 390.424 7.67063 -1.38689 0
M  V30 4310 N 394.653 0.992116 1.22453 0
M  V30 4311 C 395.583 0.561677 2.26644 0
M  V30 4312 C 396.564 -0.411055 1.65059 0
M  V30 4313 O 397.749 -0.301861 1.9184 0
M  V30 4314 C 394.879 -0.125247 3.47074 0
M  V30 4315 C 393.833 0.765948 4.21091 0
M  V30 4316 C 393.159 -0.0538484 5.34673 0
M  V30 4317 C 394.459 2.06242 4.79856 0
M  V30 4318 H 396.153 1.43259 2.62902 0
M  V30 4319 H 393.699 0.690283 1.26377 0
M  V30 4320 H 395.652 -0.437764 4.1912 0
M  V30 4321 H 394.376 -1.03069 3.0991 0
M  V30 4322 H 393.035 1.0621 3.50878 0
M  V30 4323 H 392.683 -0.960188 4.9375 0
M  V30 4324 H 392.383 0.539415 5.85119 0
M  V30 4325 H 393.907 -0.360477 6.09535 0
M  V30 4326 H 395.321 1.8139 5.43848 0
M  V30 4327 H 393.718 2.60444 5.40638 0
M  V30 4328 H 394.788 2.74167 3.99951 0
M  V30 4329 N 396.131 -1.37776 0.765217 0
M  V30 4330 C 397.408 -1.93975 0.251596 0
M  V30 4331 C 397.788 -1.69949 -1.25222 0
M  V30 4332 O 397.136 -1.04457 -2.03226 0
M  V30 4333 C 397.346 -3.43487 0.617895 0
M  V30 4334 C 398.694 -4.20564 0.584029 0
M  V30 4335 O 399.718 -3.5182 0.556888 0
M  V30 4336 O 398.577 -5.43138 0.605291 0
M  V30 4337 H 395.671 -0.82509 0.0561806 0
M  V30 4338 H 398.217 -1.47101 0.846128 0
M  V30 4339 H 396.989 -3.5453 1.65602 0
M  V30 4340 H 396.612 -3.976 -0.00403411 0
M  V30 4341 N 397.609 -0.515225 -1.4894 0
M  V30 4342 C 398.539 0.244628 -2.32215 0
M  V30 4343 C 399.52 0.949136 -1.41157 0
M  V30 4344 O 400.705 0.937783 -1.70057 0
M  V30 4345 C 397.835 1.30096 -3.22013 0
M  V30 4346 C 396.789 0.715486 -4.21977 0
M  V30 4347 C 396.115 1.87339 -5.00808 0
M  V30 4348 C 397.415 -0.302982 -5.2142 0
M  V30 4349 H 399.109 -0.450501 -2.95991 0
M  V30 4350 H 396.655 -0.218098 -1.42339 0
M  V30 4351 H 398.608 1.84037 -3.79089 0
M  V30 4352 H 397.332 2.02547 -2.56207 0
M  V30 4353 H 395.991 0.197715 -3.66066 0
M  V30 4354 H 395.639 2.58592 -4.31438 0
M  V30 4355 H 395.339 1.48764 -5.68457 0
M  V30 4356 H 396.863 2.41686 -5.60732 0
M  V30 4357 H 398.277 0.148802 -5.73107 0
M  V30 4358 H 396.674 -0.60532 -5.97039 0
M  V30 4359 H 397.744 -1.21395 -4.69459 0
M  V30 4360 N 399.087 1.5561 -0.249682 0
M  V30 4361 C 400.017 2.24477 0.642826 0
M  V30 4362 C 400.998 1.22601 1.17911 0
M  V30 4363 O 402.183 1.5126 1.21795 0
M  V30 4364 C 399.313 2.94638 1.83863 0
M  V30 4365 C 398.267 4.03227 1.435 0
M  V30 4366 C 397.593 4.60828 2.71186 0
M  V30 4367 C 398.893 5.18796 0.604002 0
M  V30 4368 H 400.587 2.99321 0.0685625 0
M  V30 4369 H 398.133 1.43965 0.0315363 0
M  V30 4370 H 400.086 3.41517 2.46868 0
M  V30 4371 H 398.81 2.17287 2.43832 0
M  V30 4372 H 397.469 3.57121 0.828275 0
M  V30 4373 H 397.117 3.80174 3.29358 0
M  V30 4374 H 396.817 5.34132 2.44901 0
M  V30 4375 H 398.341 5.10442 3.35084 0
M  V30 4376 H 399.755 5.61883 1.13842 0
M  V30 4377 H 398.152 5.98506 0.437097 0
M  V30 4378 H 399.222 4.83384 -0.383147 0
M  V30 4379 N 400.565 -0.0233959 1.57583 0
M  V30 4380 C 401.512 -1.02224 2.06927 0
M  V30 4381 C 402.482 -1.35575 0.959617 0
M  V30 4382 O 403.667 -1.45815 1.23055 0
M  V30 4383 C 400.807 -2.31636 2.5581 0
M  V30 4384 C 399.92 -2.04394 3.80588 0
M  V30 4385 C 399.055 -3.27717 4.18061 0
M  V30 4386 C 398.094 -2.96056 5.3574 0
M  V30 4387 N 397.231 -4.11847 5.68618 0
M  V30 4388 H 402.071 -0.594504 2.9201 0
M  V30 4389 H 399.608 -0.281921 1.44373 0
M  V30 4390 H 401.566 -3.07258 2.82221 0
M  V30 4391 H 400.196 -2.72122 1.73636 0
M  V30 4392 H 399.248 -1.19244 3.61227 0
M  V30 4393 H 400.56 -1.77042 4.66323 0
M  V30 4394 H 399.714 -4.11702 4.4563 0
M  V30 4395 H 398.453 -3.58188 3.30988 0
M  V30 4396 H 397.458 -2.10474 5.07918 0
M  V30 4397 H 398.683 -2.66857 6.24471 0
M  V30 4398 H 396.629 -4.42258 4.84504 0
M  V30 4399 H 396.546 -3.87938 6.48876 0
M  V30 4400 H 397.814 -4.96689 6.00766 0
M  V30 4401 N 402.043 -1.548 -0.295768 0
M  V30 4402 C 403.273 -1.78069 -1.04762 0
M  V30 4403 C 403.681 -0.542847 -1.81245 0
M  V30 4404 O 403.024 0.497051 -1.76848 0
M  V30 4405 C 403.086 -2.93881 -2.07061 0
M  V30 4406 C 402.75 -4.31777 -1.49725 0
M  V30 4407 C 403.747 -5.11613 -0.924581 0
M  V30 4408 C 401.432 -4.78389 -1.5313 0
M  V30 4409 C 403.426 -6.36184 -0.393594 0
M  V30 4410 C 401.113 -6.02921 -0.996447 0
M  V30 4411 C 402.111 -6.81654 -0.428569 0
M  V30 4412 O 401.799 -8.0384 0.0981593 0
M  V30 4413 H 401.531 -0.597475 -0.316226 0
M  V30 4414 H 404.085 -2.02584 -0.338973 0
M  V30 4415 H 402.315 -2.65003 -2.81621 0
M  V30 4416 H 404.004 -3.04679 -2.6819 0
M  V30 4417 H 404.77 -4.76743 -0.891136 0
M  V30 4418 H 400.649 -4.17132 -1.9627 0
M  V30 4419 H 404.193 -6.97582 0.0503014 0
M  V30 4420 H 400.09 -6.37277 -1.02706 0
M  V30 4421 H 400.858 -8.18499 -0.0146455 0
M  V30 4422 N 403.521 0.559213 -1.47345 0
M  V30 4423 C 404.746 1.34676 -1.57725 0
M  V30 4424 C 405.171 1.86723 -0.227164 0
M  V30 4425 O 404.529 1.6286 0.796642 0
M  V30 4426 C 404.577 2.49399 -2.60447 0
M  V30 4427 O 403.681 3.51567 -2.15578 0
M  V30 4428 H 403.022 0.400115 -0.52991 0
M  V30 4429 H 405.552 0.676009 -1.93109 0
M  V30 4430 H 405.562 2.95996 -2.80803 0
M  V30 4431 H 404.237 2.10873 -3.58477 0
M  V30 4432 H 402.814 3.11289 -2.05313 0
M  V30 4433 N 404.999 1.35443 0.805782 0
M  V30 4434 C 405.929 1.31095 1.93226 0
M  V30 4435 C 406.91 0.185244 1.69088 0
M  V30 4436 O 408.095 0.380332 1.90439 0
M  V30 4437 C 405.225 1.08299 3.29983 0
M  V30 4438 C 404.179 2.17519 3.68605 0
M  V30 4439 C 403.505 1.79887 5.03532 0
M  V30 4440 C 404.805 3.5949 3.78898 0
M  V30 4441 H 406.499 2.25352 1.97122 0
M  V30 4442 H 404.045 1.0848 0.946996 0
M  V30 4443 H 405.998 1.03897 4.08391 0
M  V30 4444 H 404.722 0.104885 3.26432 0
M  V30 4445 H 403.381 2.2102 2.92482 0
M  V30 4446 H 403.029 0.80693 4.96485 0
M  V30 4447 H 402.729 2.53001 5.30344 0
M  V30 4448 H 404.253 1.77011 5.84379 0
M  V30 4449 H 405.667 3.58307 4.47536 0
M  V30 4450 H 404.064 4.31371 4.1718 0
M  V30 4451 H 405.134 3.95584 2.80431 0
M  V30 4452 N 406.477 -1.02803 1.19454 0
M  V30 4453 C 407.387 -2.14575 0.948408 0
M  V30 4454 C 408.403 -1.73757 -0.091871 0
M  V30 4455 O 409.579 -2.01185 0.0929654 0
M  V30 4456 C 406.644 -3.43202 0.491265 0
M  V30 4457 C 405.705 -3.98328 1.60103 0
M  V30 4458 C 404.938 -5.20816 1.16561 0
M  V30 4459 O 405.161 -5.70392 0.0295238 0
M  V30 4460 O 404.095 -5.68801 1.96849 0
M  V30 4461 H 407.921 -2.38202 1.88397 0
M  V30 4462 H 405.506 -1.12989 0.977433 0
M  V30 4463 H 407.388 -4.20687 0.245015 0
M  V30 4464 H 406.063 -3.21018 -0.415851 0
M  V30 4465 H 404.97 -3.22174 1.90144 0
M  V30 4466 H 406.303 -4.24879 2.48473 0
M  V30 4467 N 407.956 -0.998596 -1.21925 0
M  V30 4468 C 408.888 -0.511879 -2.23411 0
M  V30 4469 C 409.901 0.396094 -1.57908 0
M  V30 4470 O 411.09 0.197316 -1.77406 0
M  V30 4471 C 408.19 0.276802 -3.37768 0
M  V30 4472 C 407.363 -0.628687 -4.32858 0
M  V30 4473 C 406.422 0.109272 -5.26087 0
M  V30 4474 O 405.448 -0.507237 -5.66935 0
M  V30 4475 N 406.65 1.38983 -5.63617 0
M  V30 4476 H 409.415 -1.38457 -2.658 0
M  V30 4477 H 406.976 -0.873981 -1.36283 0
M  V30 4478 H 408.968 0.77928 -3.97126 0
M  V30 4479 H 407.538 1.05063 -2.94415 0
M  V30 4480 H 406.758 -1.31175 -3.71735 0
M  V30 4481 H 408.046 -1.24514 -4.93329 0
M  V30 4482 H 407.444 1.91194 -5.32411 0
M  V30 4483 H 406.001 1.83739 -6.25367 0
M  V30 4484 N 409.434 1.37368 -0.772513 0
M  V30 4485 C 410.85 1.53059 -0.452231 0
M  V30 4486 C 411.05 1.73065 1.03203 0
M  V30 4487 O 410.106 1.75245 1.81784 0
M  V30 4488 C 411.419 2.72659 -1.26797 0
M  V30 4489 C 412.967 2.86521 -1.25995 0
M  V30 4490 C 413.442 4.09105 -2.05905 0
M  V30 4491 N 414.933 4.16219 -2.03263 0
M  V30 4492 C 415.668 5.10107 -2.61875 0
M  V30 4493 N 415.164 6.09547 -3.29278 0
M  V30 4494 N 416.957 5.02596 -2.51701 0
M  V30 4495 H 409.108 1.22634 -1.7342 0
M  V30 4496 H 411.371 0.597206 -0.736239 0
M  V30 4497 H 411.077 2.64343 -2.31982 0
M  V30 4498 H 410.951 3.66363 -0.897672 0
M  V30 4499 H 413.338 2.94308 -0.216081 0
M  V30 4500 H 413.419 1.93774 -1.66989 0
M  V30 4501 H 413.063 4.0208 -3.10313 0
M  V30 4502 H 412.993 5.00968 -1.62292 0
M  V30 4503 H 415.484 3.45012 -1.54192 0
M  V30 4504 H 415.797 6.77718 -3.71374 0
M  V30 4505 H 414.142 6.09824 -3.33377 0
M  V30 4506 H 417.333 4.23855 -1.98657 0
M  V30 4507 H 417.506 5.75582 -2.97673 0
M  V30 4508 N 410.912 0.523116 1.48665 0
M  V30 4509 C 411.842 -0.23231 2.32342 0
M  V30 4510 C 412.823 -0.941637 1.41659 0
M  V30 4511 O 414.008 -0.928751 1.70552 0
M  V30 4512 C 411.138 -1.28387 3.22698 0
M  V30 4513 C 410.092 -0.693098 4.22351 0
M  V30 4514 C 409.418 -1.8468 5.01794 0
M  V30 4515 C 410.718 0.33063 5.21252 0
M  V30 4516 H 412.412 0.466192 2.95748 0
M  V30 4517 H 409.958 0.225643 1.42221 0
M  V30 4518 H 411.911 -1.82024 3.80059 0
M  V30 4519 H 410.635 -2.01186 2.57278 0
M  V30 4520 H 409.294 -0.178299 3.66166 0
M  V30 4521 H 408.942 -2.56301 4.32804 0
M  V30 4522 H 408.642 -1.45747 5.69238 0
M  V30 4523 H 410.166 -2.38709 5.62006 0
M  V30 4524 H 411.58 -0.118407 5.73178 0
M  V30 4525 H 409.977 0.636974 5.9671 0
M  V30 4526 H 411.047 1.23883 4.68808 0
M  V30 4527 N 412.39 -1.55475 0.257931 0
M  V30 4528 C 413.338 -2.23244 -0.653076 0
M  V30 4529 C 414.332 -1.22366 -1.17144 0
M  V30 4530 O 415.538 -1.40347 -1.12706 0
M  V30 4531 H 411.913 -0.716247 -0.229117 0
M  V30 4532 H 413.884 -2.98343 -0.0584788 0
M  V30 4533 C 412.633 -2.95401 -1.83395 0
M  V30 4534 H 411.956 -3.72802 -1.44424 0
M  V30 4535 H 413.396 -3.46165 -2.44838 0
M  V30 4536 C 411.855 -1.99895 -2.71189 0
M  V30 4537 O 412.385 -1.53909 -3.71046 0
M  V30 4538 N 410.591 -1.6676 -2.3799 0
M  V30 4539 H 410.138 -2.04352 -1.56837 0
M  V30 4540 H 410.096 -1.03127 -2.97005 0
M  V30 4541 N 413.868 0.0150385 -1.57593 0
M  V30 4542 C 414.778 1.02791 -2.10882 0
M  V30 4543 C 415.794 1.38702 -1.0506 0
M  V30 4544 O 416.97 1.47739 -1.36877 0
M  V30 4545 C 414.035 2.30568 -2.58919 0
M  V30 4546 C 413.096 2.01108 -3.79281 0
M  V30 4547 C 412.329 3.22794 -4.25018 0
M  V30 4548 O 412.552 4.33959 -3.70183 0
M  V30 4549 O 411.486 3.07672 -5.17322 0
M  V30 4550 H 415.312 0.604973 -2.97613 0
M  V30 4551 H 412.897 0.23292 -1.47573 0
M  V30 4552 H 414.779 3.05662 -2.90084 0
M  V30 4553 H 413.454 2.72129 -1.75293 0
M  V30 4554 H 412.361 1.23537 -3.53114 0
M  V30 4555 H 413.694 1.64394 -4.63935 0
M  V30 4556 N 415.346 1.54954 0.287554 0
M  V30 4557 C 416.592 1.75132 1.02257 0
M  V30 4558 C 416.925 0.542858 1.86458 0
M  V30 4559 O 416.2 -0.459856 1.88986 0
M  V30 4560 C 416.483 3.04812 1.91733 0
M  V30 4561 C 416.336 4.35985 1.10622 0
M  V30 4562 C 417.655 3.30438 2.90687 0
M  V30 4563 H 414.774 0.637194 0.370341 0
M  V30 4564 H 417.416 1.87678 0.296111 0
M  V30 4565 H 415.566 2.94247 2.53675 0
M  V30 4566 H 417.238 4.58487 0.508636 0
M  V30 4567 H 415.481 4.31865 0.409271 0
M  V30 4568 H 416.152 5.23017 1.76513 0
M  V30 4569 H 418.628 3.40701 2.38877 0
M  V30 4570 H 417.504 4.22467 3.50447 0
M  V30 4571 H 417.765 2.49377 3.65053 0
M  V30 4572 N 416.824 -0.551391 1.4764 0
M  V30 4573 C 418.235 -1.13349 1.48354 0
M  V30 4574 C 418.586 -1.94709 0.241432 0
M  V30 4575 O 417.711 -2.06306 -0.653205 0
M  V30 4576 C 418.306 -2.0623 2.68802 0
M  V30 4577 C 416.865 -2.597 2.72457 0
M  V30 4578 C 416.012 -1.36201 2.41546 0
M  V30 4579 H 418.963 -0.337698 1.55065 0
M  V30 4580 H 418.984 -2.90196 2.46103 0
M  V30 4581 H 418.496 -1.46987 3.59188 0
M  V30 4582 H 416.597 -3.22724 1.86225 0
M  V30 4583 H 416.71 -3.00296 3.73308 0
M  V30 4584 H 415.074 -1.67068 1.9225 0
M  V30 4585 H 415.857 -0.787425 3.34147 0
M  V30 4586 N 418.302 -1.35869 -0.798587 0
M  V30 4587 C 419.249 -1.29446 -1.91082 0
M  V30 4588 C 420.219 -0.16487 -1.6528 0
M  V30 4589 O 421.404 -0.349888 -1.87564 0
M  V30 4590 C 418.544 -1.0804 -3.27752 0
M  V30 4591 C 417.657 -2.29993 -3.65687 0
M  V30 4592 C 416.792 -2.01673 -4.91428 0
M  V30 4593 C 415.831 -3.19636 -5.22015 0
M  V30 4594 N 414.968 -2.91039 -6.38937 0
M  V30 4595 H 419.808 -2.24553 -1.95907 0
M  V30 4596 H 417.345 -1.11615 -0.958148 0
M  V30 4597 H 419.303 -0.936586 -4.06551 0
M  V30 4598 H 417.933 -0.16592 -3.22373 0
M  V30 4599 H 416.985 -2.55211 -2.82085 0
M  V30 4600 H 418.297 -3.18052 -3.84245 0
M  V30 4601 H 417.451 -1.84168 -5.78072 0
M  V30 4602 H 416.19 -1.10911 -4.74921 0
M  V30 4603 H 415.195 -3.37709 -4.33858 0
M  V30 4604 H 416.42 -4.11211 -5.40447 0
M  V30 4605 H 414.366 -2.0288 -6.2384 0
M  V30 4606 H 414.283 -3.72635 -6.57784 0
M  V30 4607 H 415.551 -2.77093 -7.28587 0
M  V30 4608 N 419.78 1.02168 -1.19998 0
M  V30 4609 C 420.728 2.12717 -0.940967 0
M  V30 4610 C 421.722 1.69069 0.105841 0
M  V30 4611 O 422.928 1.79946 -0.0440583 0
M  V30 4612 H 419.303 0.695108 -0.28693 0
M  V30 4613 H 421.274 2.3175 -1.87975 0
M  V30 4614 C 420.023 3.44027 -0.504049 0
M  V30 4615 H 419.346 3.78036 -1.30112 0
M  V30 4616 H 420.786 4.22452 -0.361991 0
M  V30 4617 C 419.245 3.27678 0.782878 0
M  V30 4618 O 419.775 3.56949 1.84256 0
M  V30 4619 N 417.981 2.80943 0.742921 0
M  V30 4620 H 417.528 2.57322 -0.119687 0
M  V30 4621 H 417.486 2.70385 1.60435 0
M  V30 4622 N 421.258 1.00505 1.21394 0
M  V30 4623 C 422.208 0.536503 2.21598 0
M  V30 4624 C 423.192 -0.401914 1.55799 0
M  V30 4625 O 424.384 -0.226757 1.75541 0
M  V30 4626 C 421.513 -0.135446 3.43033 0
M  V30 4627 C 420.599 0.823992 4.16018 0
M  V30 4628 N 420.99 1.97683 4.6557 0
M  V30 4629 C 419.288 0.642387 4.4135 0
M  V30 4630 C 419.989 2.58003 5.21354 0
M  V30 4631 N 418.965 1.86162 5.1073 0
M  V30 4632 H 422.767 1.41557 2.57563 0
M  V30 4633 H 420.281 0.868878 1.37202 0
M  V30 4634 H 422.278 -0.488584 4.14027 0
M  V30 4635 H 420.938 -1.01049 3.08576 0
M  V30 4636 H 421.949 2.3572 4.61147 0
M  V30 4637 H 418.626 -0.185578 4.17087 0
M  V30 4638 H 420.016 3.555 5.70149 0
M  V30 4639 N 422.737 -1.36956 0.779787 0
M  V30 4640 C 424.148 -1.82094 0.412156 0
M  V30 4641 C 424.499 -1.64926 -1.06273 0
M  V30 4642 O 423.624 -1.16483 -1.82375 0
M  V30 4643 C 424.219 -3.3059 0.741319 0
M  V30 4644 C 422.778 -3.73974 0.426641 0
M  V30 4645 C 421.925 -2.59368 0.980987 0
M  V30 4646 H 424.876 -1.25314 0.973758 0
M  V30 4647 H 424.897 -3.80489 0.028887 0
M  V30 4648 H 424.409 -3.43054 1.81482 0
M  V30 4649 H 422.51 -3.67076 -0.639215 0
M  V30 4650 H 422.623 -4.69778 0.940515 0
M  V30 4651 H 420.987 -2.51463 0.404757 0
M  V30 4652 H 421.77 -2.74621 2.06005 0
M  V30 4653 N 424.215 -0.530993 -1.48385 0
M  V30 4654 C 425.162 0.231223 -2.29639 0
M  V30 4655 C 426.132 0.932864 -1.37429 0
M  V30 4656 O 427.317 0.933692 -1.66394 0
M  V30 4657 C 424.457 1.27155 -3.2082 0
M  V30 4658 C 423.57 0.578655 -4.28107 0
M  V30 4659 C 422.705 1.602 -5.06467 0
M  V30 4660 C 421.744 0.892625 -6.05556 0
M  V30 4661 N 420.881 1.86157 -6.76971 0
M  V30 4662 H 425.721 -0.467848 -2.94305 0
M  V30 4663 H 423.258 -0.242556 -1.45086 0
M  V30 4664 H 425.216 1.88703 -3.72085 0
M  V30 4665 H 423.846 1.939 -2.58075 0
M  V30 4666 H 422.898 -0.150782 -3.80101 0
M  V30 4667 H 424.21 0.0217065 -4.98795 0
M  V30 4668 H 423.364 2.29173 -5.61751 0
M  V30 4669 H 422.103 2.19285 -4.35621 0
M  V30 4670 H 421.108 0.188829 -5.49476 0
M  V30 4671 H 422.333 0.307878 -6.78402 0
M  V30 4672 H 420.279 2.44147 -6.08875 0
M  V30 4673 H 420.196 1.35608 -7.43738 0
M  V30 4674 H 421.464 2.54325 -7.36844 0
M  V30 4675 N 425.693 1.55336 -0.266172 0
M  V30 4676 C 426.918 2.04258 0.359661 0
M  V30 4677 C 427.343 1.14359 1.49344 0
M  V30 4678 O 426.701 0.140369 1.80756 0
M  V30 4679 C 426.749 3.50997 0.826635 0
M  V30 4680 O 425.853 3.64204 1.93466 0
M  V30 4681 H 425.194 0.659668 0.075727 0
M  V30 4682 H 427.724 2.00694 -0.39786 0
M  V30 4683 H 427.734 3.9219 1.12477 0
M  V30 4684 H 426.409 4.159 -0.00293032 0
M  V30 4685 H 424.986 3.34913 1.63974 0
M  V30 4686 N 427.171 -0.0066808 1.57599 0
M  V30 4687 C 428.587 -0.36267 1.55425 0
M  V30 4688 C 428.787 -1.75209 0.995187 0
M  V30 4689 O 427.843 -2.44616 0.626058 0
M  V30 4690 C 429.156 -0.244017 2.99708 0
M  V30 4691 C 430.704 -0.319451 3.11366 0
M  V30 4692 C 431.179 -0.229998 4.57422 0
M  V30 4693 N 432.67 -0.288105 4.62303 0
M  V30 4694 C 433.405 -0.242127 5.72889 0
M  V30 4695 N 432.901 -0.147133 6.92644 0
M  V30 4696 N 434.694 -0.293502 5.61333 0
M  V30 4697 H 426.845 0.902314 1.92281 0
M  V30 4698 H 429.108 0.34525 0.882896 0
M  V30 4699 H 428.814 0.711678 3.44424 0
M  V30 4700 H 428.688 -1.02877 3.629 0
M  V30 4701 H 431.075 -1.26559 2.66584 0
M  V30 4702 H 431.156 0.495055 2.50964 0
M  V30 4703 H 430.8 0.712566 5.02877 0
M  V30 4704 H 430.73 -1.0629 5.15761 0
M  V30 4705 H 433.221 -0.363126 3.76151 0
M  V30 4706 H 433.534 -0.117763 7.7271 0
M  V30 4707 H 431.879 -0.112857 6.94908 0
M  V30 4708 H 435.07 -0.365864 4.66668 0
M  V30 4709 H 435.243 -0.254204 6.47501 0
M  V30 4710 N 428.649 -1.55105 -0.279332 0
M  V30 4711 C 429.898 -1.74618 -1.00952 0
M  V30 4712 C 430.211 -0.551096 -1.87676 0
M  V30 4713 O 431.417 -0.628507 -2.64125 0
M  V30 4714 C 429.873 -3.09025 -1.84476 0
M  V30 4715 C 429.481 -4.36081 -1.0265 0
M  V30 4716 C 431.225 -3.37891 -2.56963 0
M  V30 4717 C 429.132 -5.6153 -1.85576 0
M  V30 4718 H 428.062 -0.650868 -0.38064 0
M  V30 4719 H 430.713 -1.81569 -0.265475 0
M  V30 4720 H 429.095 -2.96095 -2.62952 0
M  V30 4721 H 430.269 -4.59909 -0.286354 0
M  V30 4722 H 428.584 -4.14312 -0.416464 0
M  V30 4723 H 431.181 -4.28822 -3.19399 0
M  V30 4724 H 431.524 -2.57737 -3.26921 0
M  V30 4725 H 432.057 -3.5189 -1.85522 0
M  V30 4726 H 428.796 -6.44413 -1.2005 0
M  V30 4727 H 428.316 -5.41854 -2.57204 0
M  V30 4728 H 429.995 -5.99594 -2.43096 0
M  V30 4729 N 430.127 0.543554 -1.4793 0
M  V30 4730 C 431.376 1.29649 -1.54512 0
M  V30 4731 C 431.689 1.94382 -0.217973 0
M  V30 4732 O 432.895 2.71017 -0.161908 0
M  V30 4733 C 431.351 2.35175 -2.72435 0
M  V30 4734 C 430.959 1.76572 -4.11736 0
M  V30 4735 C 432.703 3.11564 -2.8832 0
M  V30 4736 C 430.61 2.79958 -5.20939 0
M  V30 4737 H 429.54 0.487541 -0.57517 0
M  V30 4738 H 432.191 0.575708 -1.74235 0
M  V30 4739 H 430.573 3.10229 -2.46118 0
M  V30 4740 H 431.747 1.07799 -4.48013 0
M  V30 4741 H 430.062 1.12722 -4.00852 0
M  V30 4742 H 432.659 3.88794 -3.67074 0
M  V30 4743 H 433.002 3.66594 -1.97268 0
M  V30 4744 H 433.535 2.43623 -3.14472 0
M  V30 4745 H 430.274 2.29766 -6.13912 0
M  V30 4746 H 429.794 3.47101 -4.89164 0
M  V30 4747 H 431.473 3.43198 -5.48474 0
M  V30 4748 N 431.605 1.3629 0.791371 0
M  V30 4749 C 432.854 1.29742 1.54434 0
M  V30 4750 C 433.167 -0.121729 1.95221 0
M  V30 4751 O 434.373 -0.309579 2.69729 0
M  V30 4752 C 432.829 2.27623 2.78776 0
M  V30 4753 C 432.437 3.74963 2.45166 0
M  V30 4754 C 434.181 2.30047 3.56761 0
M  V30 4755 C 432.088 4.64626 3.65891 0
M  V30 4756 H 431.018 0.482113 0.579727 0
M  V30 4757 H 433.669 1.61642 0.868565 0
M  V30 4758 H 432.051 1.88714 3.48142 0
M  V30 4759 H 433.225 4.22596 1.83709 0
M  V30 4760 H 431.54 3.75295 1.80396 0
M  V30 4761 H 434.137 2.94247 4.46456 0
M  V30 4762 H 434.48 1.30846 3.95203 0
M  V30 4763 H 435.013 2.67563 2.94372 0
M  V30 4764 H 431.752 5.64883 3.32547 0
M  V30 4765 H 431.272 4.2171 4.26521 0
M  V30 4766 H 432.951 4.80801 4.32943 0
M  V30 4767 N 433.083 -1.0153 1.20538 0
M  V30 4768 C 433.993 -2.13557 0.971113 0
M  V30 4769 C 435.009 -1.73845 -0.0734366 0
M  V30 4770 O 436.185 -2.01075 0.114299 0
M  V30 4771 C 433.25 -3.42661 0.527639 0
M  V30 4772 C 432.311 -3.96608 1.64319 0
M  V30 4773 C 431.544 -5.1955 1.22078 0
M  V30 4774 O 431.767 -5.70329 0.0900198 0
M  V30 4775 O 430.701 -5.66681 2.02871 0
M  V30 4776 H 434.527 -2.3619 1.90913 0
M  V30 4777 H 432.112 -1.11946 0.989362 0
M  V30 4778 H 433.994 -4.20404 0.289621 0
M  V30 4779 H 432.669 -3.21441 -0.381779 0
M  V30 4780 H 431.576 -3.20139 1.93551 0
M  V30 4781 H 432.909 -4.22219 2.52966 0
M  V30 4782 N 434.561 -1.01147 -1.20859 0
M  V30 4783 C 435.471 -0.58686 -2.27141 0
M  V30 4784 C 436.487 0.373198 -1.69951 0
M  V30 4785 O 437.663 0.235423 -2.00019 0
M  V30 4786 C 434.728 0.0733602 -3.46622 0
M  V30 4787 C 433.789 -0.931995 -4.19061 0
M  V30 4788 C 433.022 -0.303186 -5.32838 0
M  V30 4789 O 433.245 0.898395 -5.63281 0
M  V30 4790 O 432.179 -1.01735 -5.9324 0
M  V30 4791 H 436.005 -1.47155 -2.65667 0
M  V30 4792 H 433.59 -0.780689 -1.2738 0
M  V30 4793 H 435.472 0.442333 -4.19072 0
M  V30 4794 H 434.147 0.932329 -3.09983 0
M  V30 4795 H 433.054 -1.35224 -3.48805 0
M  V30 4796 H 434.387 -1.76076 -4.59628 0
M  V30 4797 N 436.039 1.36541 -0.78704 0
M  V30 4798 C 436.969 2.32659 -0.197992 0
M  V30 4799 C 437.95 1.56533 0.665697 0
M  V30 4800 O 439.135 1.84698 0.60001 0
M  V30 4801 C 436.265 3.40778 0.669901 0
M  V30 4802 C 435.219 4.27897 -0.0937039 0
M  V30 4803 C 434.545 5.27163 0.894629 0
M  V30 4804 C 435.845 5.06334 -1.28154 0
M  V30 4805 H 437.539 2.82171 -1.00099 0
M  V30 4806 H 435.085 1.35665 -0.482793 0
M  V30 4807 H 437.038 4.07008 1.09191 0
M  V30 4808 H 435.762 2.89827 1.50558 0
M  V30 4809 H 434.421 3.6322 -0.49666 0
M  V30 4810 H 434.069 4.72486 1.72527 0
M  V30 4811 H 433.769 5.86317 0.388149 0
M  V30 4812 H 435.293 5.96266 1.31525 0
M  V30 4813 H 436.707 5.65617 -0.93541 0
M  V30 4814 H 435.104 5.74888 -1.72115 0
M  V30 4815 H 436.174 4.38114 -2.07807 0
M  V30 4816 N 437.518 0.538854 1.48102 0
M  V30 4817 C 438.743 0.0102694 2.07397 0
M  V30 4818 C 439.168 -1.26562 1.39153 0
M  V30 4819 O 438.526 -1.75357 0.460387 0
M  V30 4820 C 438.574 -0.187602 3.60112 0
M  V30 4821 O 437.678 -1.25432 3.92862 0
M  V30 4822 H 437.019 0.0430975 0.6626 0
M  V30 4823 H 439.549 0.749301 1.90385 0
M  V30 4824 H 439.559 -0.407517 4.0596 0
M  V30 4825 H 438.234 0.744386 4.09184 0
M  V30 4826 H 436.811 -1.01636 3.58782 0
M  V30 4827 N 438.996 -1.55193 0.274407 0
M  V30 4828 C 439.926 -2.25471 -0.607032 0
M  V30 4829 C 440.907 -1.24461 -1.15946 0
M  V30 4830 O 442.092 -1.53179 -1.19373 0
M  V30 4831 C 439.222 -2.97526 -1.79153 0
M  V30 4832 C 438.176 -4.05459 -1.37067 0
M  V30 4833 C 437.502 -4.65084 -2.6382 0
M  V30 4834 C 438.802 -5.19691 -0.521389 0
M  V30 4835 H 440.496 -2.99393 -0.0209343 0
M  V30 4836 H 438.042 -1.43997 -0.00862866 0
M  V30 4837 H 439.995 -3.45402 -2.41404 0
M  V30 4838 H 438.719 -2.21138 -2.40344 0
M  V30 4839 H 437.378 -3.58393 -0.771355 0
M  V30 4840 H 437.026 -3.85365 -3.23268 0
M  V30 4841 H 436.726 -5.37961 -2.36372 0
M  V30 4842 H 438.25 -5.15708 -3.26921 0
M  V30 4843 H 439.664 -5.63623 -1.04889 0
M  V30 4844 H 438.061 -5.99126 -0.341825 0
M  V30 4845 H 439.131 -4.82713 0.46 0
M  V30 4846 N 440.474 -0.00167713 -1.576 0
M  V30 4847 C 441.72 0.683832 -1.90923 0
M  V30 4848 C 442.053 1.7333 -0.875799 0
M  V30 4849 O 441.328 1.94215 0.10525 0
M  V30 4850 C 441.611 1.32543 -3.3482 0
M  V30 4851 C 441.464 0.287387 -4.48881 0
M  V30 4852 C 442.783 2.25114 -3.78169 0
M  V30 4853 H 439.902 0.247125 -0.694333 0
M  V30 4854 H 442.544 -0.0533149 -1.89925 0
M  V30 4855 H 440.694 1.95372 -3.35801 0
M  V30 4856 H 442.366 -0.341346 -4.60035 0
M  V30 4857 H 440.609 -0.39017 -4.32042 0
M  V30 4858 H 441.28 0.775393 -5.46527 0
M  V30 4859 H 443.756 1.723 -3.7875 0
M  V30 4860 H 442.632 2.66971 -4.79602 0
M  V30 4861 H 442.893 3.13092 -3.12131 0
M  V30 4862 N 441.952 1.55251 0.271103 0
M  V30 4863 C 442.915 1.87484 1.31842 0
M  V30 4864 C 443.915 0.749545 1.42262 0
M  V30 4865 O 445.105 1.01771 1.4138 0
M  V30 4866 C 442.237 2.0818 2.69951 0
M  V30 4867 H 443.43 2.81108 1.0449 0
M  V30 4868 H 440.983 1.47771 0.509258 0
M  V30 4869 H 441.718 1.16944 3.02481 0
M  V30 4870 H 441.503 2.90114 2.63774 0
M  V30 4871 H 442.993 2.34385 3.4562 0
M  V30 4872 N 443.43 -0.535701 1.48216 0
M  V30 4873 C 444.393 -1.623 1.61838 0
M  V30 4874 C 445.393 -1.53087 0.492024 0
M  V30 4875 O 446.583 -1.5686 0.757668 0
M  V30 4876 C 443.715 -3.01907 1.58319 0
M  V30 4877 H 444.908 -1.51564 2.58783 0
M  V30 4878 H 442.461 -0.757317 1.36727 0
M  V30 4879 H 443.196 -3.18155 0.628299 0
M  V30 4880 H 442.981 -3.10003 2.40085 0
M  V30 4881 H 444.471 -3.80969 1.71033 0
M  V30 4882 N 444.908 -1.36708 -0.784132 0
M  V30 4883 C 446.133 -1.34565 -1.5782 0
M  V30 4884 C 446.558 0.0695257 -1.87971 0
M  V30 4885 O 445.916 1.04302 -1.48293 0
M  V30 4886 C 445.964 -2.17952 -2.87279 0
M  V30 4887 O 445.068 -1.57563 -3.81114 0
M  V30 4888 H 444.409 -0.460337 -0.478524 0
M  V30 4889 H 446.939 -1.80064 -0.971495 0
M  V30 4890 H 446.949 -2.30721 -3.365 0
M  V30 4891 H 445.624 -3.20823 -2.64661 0
M  V30 4892 H 444.201 -1.53764 -3.39722 0
M  V30 4893 N 446.386 1.0089 -1.21074 0
M  V30 4894 C 447.797 1.56056 -1.02486 0
M  V30 4895 C 448.148 1.91728 0.416506 0
M  V30 4896 O 447.273 1.73066 1.29912 0
M  V30 4897 C 447.868 2.83563 -1.85411 0
M  V30 4898 C 446.427 3.3523 -1.71166 0
M  V30 4899 C 445.574 2.0846 -1.82865 0
M  V30 4900 H 448.525 0.831818 -1.35154 0
M  V30 4901 H 448.546 3.55286 -1.36205 0
M  V30 4902 H 448.058 2.57569 -2.9031 0
M  V30 4903 H 446.159 3.66167 -0.689361 0
M  V30 4904 H 446.272 4.06913 -2.52901 0
M  V30 4905 H 444.636 2.21275 -1.26132 0
M  V30 4906 H 445.419 1.84883 -2.89263 0
M  V30 4907 N 447.864 1.01787 1.20321 0
M  V30 4908 C 449.092 0.727194 1.937 0
M  V30 4909 C 449.507 -0.712305 1.74848 0
M  V30 4910 O 448.864 -1.48327 1.06327 0
M  V30 4911 C 448.915 1.05497 3.45764 0
M  V30 4912 O 448.636 2.43794 3.64 0
M  V30 4913 C 450.137 0.785534 4.36285 0
M  V30 4914 H 447.357 0.266939 0.615617 0
M  V30 4915 H 449.901 1.35939 1.52777 0
M  V30 4916 H 448.056 0.468158 3.84561 0
M  V30 4917 H 448.47 2.55656 4.57974 0
M  V30 4918 H 449.944 1.06495 5.4163 0
M  V30 4919 H 450.421 -0.280273 4.38305 0
M  V30 4920 H 451.027 1.35456 4.03152 0
M  V30 4921 N 449.342 -1.36122 0.79427 0
M  V30 4922 C 450.272 -2.32551 0.210328 0
M  V30 4923 C 451.253 -1.56884 -0.657386 0
M  V30 4924 O 452.438 -1.85014 -0.590207 0
M  V30 4925 C 449.568 -3.41128 -0.651819 0
M  V30 4926 C 448.522 -4.27842 0.116395 0
M  V30 4927 C 447.848 -5.2763 -0.86666 0
M  V30 4928 C 449.148 -5.05647 1.30837 0
M  V30 4929 H 450.842 -2.81636 1.01594 0
M  V30 4930 H 448.388 -1.35407 0.489981 0
M  V30 4931 H 450.341 -4.07581 -1.07031 0
M  V30 4932 H 449.065 -2.90622 -1.49019 0
M  V30 4933 H 447.724 -3.62952 0.515915 0
M  V30 4934 H 447.372 -4.73395 -1.70019 0
M  V30 4935 H 447.072 -5.86514 -0.35705 0
M  V30 4936 H 448.596 -5.96955 -1.28361 0
M  V30 4937 H 450.01 -5.65113 0.965393 0
M  V30 4938 H 448.407 -5.73967 1.75161 0
M  V30 4939 H 449.477 -4.37006 2.10128 0
M  V30 4940 N 450.82 -0.546701 -1.47814 0
M  V30 4941 C 452.045 -0.021268 -2.07389 0
M  V30 4942 C 452.47 1.25822 -1.39822 0
M  V30 4943 O 451.828 1.75111 -0.46968 0
M  V30 4944 C 451.876 0.168502 -3.60206 0
M  V30 4945 O 450.98 1.23347 -3.93522 0
M  V30 4946 H 450.321 -0.0466108 -0.662362 0
M  V30 4947 H 452.851 -0.759387 -1.89985 0
M  V30 4948 H 452.861 0.385982 -4.0617 0
M  V30 4949 H 451.536 -0.766075 -4.08784 0
M  V30 4950 H 450.113 0.997319 -3.59316 0
M  V30 4951 N 452.299 1.55045 -0.282633 0
M  V30 4952 C 453.71 1.85473 0.213655 0
M  V30 4953 C 454.061 1.20465 1.54863 0
M  V30 4954 O 453.186 0.495676 2.10647 0
M  V30 4955 C 453.781 3.36496 0.394445 0
M  V30 4956 C 452.34 3.67022 0.834961 0
M  V30 4957 C 451.487 2.77218 -0.0674081 0
M  V30 4958 H 454.438 1.50478 -0.504202 0
M  V30 4959 H 454.459 3.60007 1.23186 0
M  V30 4960 H 453.971 3.83782 -0.577326 0
M  V30 4961 H 452.072 3.25241 1.81794 0
M  V30 4962 H 452.185 4.74433 0.667075 0
M  V30 4963 H 450.549 2.5069 0.450196 0
M  V30 4964 H 451.332 3.2732 -1.0352 0
M  V30 4965 N 453.777 0.010035 1.57597 0
M  V30 4966 C 455.193 -0.346164 1.55801 0
M  V30 4967 C 455.393 -1.74144 1.01371 0
M  V30 4968 O 454.449 -2.43938 0.651968 0
M  V30 4969 C 455.762 -0.212216 2.9995 0
M  V30 4970 C 457.31 -0.286409 3.11687 0
M  V30 4971 C 457.785 -0.18147 4.5764 0
M  V30 4972 N 459.276 -0.239056 4.62583 0
M  V30 4973 C 460.011 -0.181351 5.73113 0
M  V30 4974 N 459.507 -0.073661 6.92761 0
M  V30 4975 N 461.3 -0.233949 5.61613 0
M  V30 4976 H 453.451 0.922657 1.91313 0
M  V30 4977 H 455.714 0.354595 0.879185 0
M  V30 4978 H 455.42 0.748169 3.4365 0
M  V30 4979 H 455.294 -0.990224 3.6397 0
M  V30 4980 H 457.681 -1.23724 2.67911 0
M  V30 4981 H 457.762 0.521645 2.50425 0
M  V30 4982 H 457.406 0.765863 5.02093 0
M  V30 4983 H 457.336 -1.00814 5.1686 0
M  V30 4984 H 459.827 -0.32321 3.76515 0
M  V30 4985 H 460.14 -0.0358003 7.72792 0
M  V30 4986 H 458.485 -0.0391461 6.94989 0
M  V30 4987 H 461.676 -0.316347 4.6703 0
M  V30 4988 H 461.849 -0.185514 6.47734 0
M  V30 4989 N 455.255 -1.55392 -0.262866 0
M  V30 4990 C 456.187 -1.85392 -1.34768 0
M  V30 4991 C 457.2 -0.739069 -1.45057 0
M  V30 4992 O 458.389 -1.01703 -1.46693 0
M  V30 4993 C 455.489 -2.01088 -2.72795 0
M  V30 4994 C 454.662 -3.31828 -2.84972 0
M  V30 4995 C 453.721 -3.37464 -4.03738 0
M  V30 4996 O 452.747 -4.10778 -3.94018 0
M  V30 4997 N 453.949 -2.65599 -5.16176 0
M  V30 4998 H 456.714 -2.79029 -1.09375 0
M  V30 4999 H 454.275 -1.55434 -0.452981 0
M  V30 5000 H 456.267 -2.02217 -3.50557 0
M  V30 5001 H 454.837 -1.1427 -2.90966 0
M  V30 5002 H 454.057 -3.43152 -1.94012 0
M  V30 5003 H 455.345 -4.18032 -2.90045 0
M  V30 5004 H 454.743 -2.05736 -5.26962 0
M  V30 5005 H 453.3 -2.72439 -5.92132 0
M  V30 5006 N 456.733 0.527833 -1.48498 0
M  V30 5007 C 457.958 1.313 -1.60546 0
M  V30 5008 C 458.383 1.86199 -0.26672 0
M  V30 5009 O 457.741 1.64513 0.761918 0
M  V30 5010 C 457.789 2.43818 -2.65678 0
M  V30 5011 O 456.893 3.46916 -2.22987 0
M  V30 5012 H 456.234 0.388784 -0.538277 0
M  V30 5013 H 458.764 0.634896 -1.945 0
M  V30 5014 H 458.774 2.89973 -2.87018 0
M  V30 5015 H 457.449 2.03222 -3.62869 0
M  V30 5016 H 456.026 3.06864 -2.11869 0
M  V30 5017 N 458.211 1.37122 0.776871 0
M  V30 5018 C 459.144 1.26835 1.89705 0
M  V30 5019 C 460.122 0.14992 1.61907 0
M  V30 5020 O 461.306 0.323242 1.85708 0
M  V30 5021 C 458.433 0.95986 3.24814 0
M  V30 5022 C 457.479 2.09447 3.7153 0
M  V30 5023 S 458.312 3.71368 3.85806 0
M  V30 5024 C 459.468 3.42659 5.23771 0
M  V30 5025 H 459.701 2.21647 1.98141 0
M  V30 5026 H 457.234 1.22685 0.937433 0
M  V30 5027 H 459.192 0.788696 4.02852 0
M  V30 5028 H 457.853 0.0293137 3.14086 0
M  V30 5029 H 457.046 1.8335 4.69467 0
M  V30 5030 H 456.648 2.2255 3.00578 0
M  V30 5031 H 458.94 2.9733 6.0877 0
M  V30 5032 H 459.883 4.39905 5.54878 0
M  V30 5033 H 460.291 2.77708 4.91466 0
M  V30 5034 N 459.689 -1.00246 1.21608 0
M  V30 5035 C 460.938 -1.73476 1.02902 0
M  V30 5036 C 461.251 -1.90643 -0.437561 0
M  V30 5037 O 462.457 -2.61105 -0.74407 0
M  V30 5038 C 460.913 -3.12079 1.79261 0
M  V30 5039 C 460.521 -3.02877 3.30106 0
M  V30 5040 C 462.265 -3.89421 1.68972 0
M  V30 5041 C 460.172 -4.36575 3.98944 0
M  V30 5042 H 459.102 -0.650408 0.381425 0
M  V30 5043 H 461.753 -1.11985 1.45367 0
M  V30 5044 H 460.135 -3.74196 1.2959 0
M  V30 5045 H 461.309 -2.49983 3.87098 0
M  V30 5046 H 459.624 -2.39022 3.40965 0
M  V30 5047 H 462.221 -4.88362 2.17731 0
M  V30 5048 H 462.564 -4.1122 0.648397 0
M  V30 5049 H 463.097 -3.33963 2.16133 0
M  V30 5050 H 459.836 -4.19978 5.03288 0
M  V30 5051 H 459.356 -4.8942 3.4674 0
M  V30 5052 H 461.035 -5.05364 4.04 0
M  V30 5053 N 461.167 -1.02423 -1.1978 0
M  V30 5054 C 462.392 -0.7373 -1.93852 0
M  V30 5055 C 462.817 0.696923 -1.74713 0
M  V30 5056 O 462.175 1.48056 -1.04638 0
M  V30 5057 C 462.223 -1.08783 -3.438 0
M  V30 5058 O 461.327 -0.20383 -4.11896 0
M  V30 5059 H 460.668 -0.27284 -0.605355 0
M  V30 5060 H 463.198 -1.36966 -1.51992 0
M  V30 5061 H 463.208 -1.04276 -3.9445 0
M  V30 5062 H 461.883 -2.13274 -3.57053 0
M  V30 5063 H 460.46 -0.307091 -3.71633 0
M  V30 5064 N 462.645 1.35699 -0.801477 0
M  V30 5065 C 463.873 2.03157 -0.391768 0
M  V30 5066 C 464.288 1.60412 0.995668 0
M  V30 5067 O 463.645 0.799228 1.64069 0
M  V30 5068 C 463.696 3.58566 -0.459671 0
M  V30 5069 O 463.417 3.99756 -1.7924 0
M  V30 5070 C 464.918 4.4328 -0.0421205 0
M  V30 5071 H 462.138 0.651688 -0.159825 0
M  V30 5072 H 464.682 1.73426 -1.08368 0
M  V30 5073 H 462.837 3.86963 0.183939 0
M  V30 5074 H 463.251 4.94387 -1.75162 0
M  V30 5075 H 464.725 5.51821 -0.140754 0
M  V30 5076 H 465.202 4.27383 1.01196 0
M  V30 5077 H 465.808 4.20168 -0.658687 0
M  V30 5078 N 464.123 0.554532 1.47522 0
M  V30 5079 C 465.055 -0.232106 2.28022 0
M  V30 5080 C 466.068 -0.881865 1.36847 0
M  V30 5081 O 467.257 -0.756168 1.61692 0
M  V30 5082 C 464.357 -1.34604 3.11022 0
M  V30 5083 C 463.53 -0.793582 4.30141 0
M  V30 5084 C 462.589 -1.79168 4.94758 0
M  V30 5085 O 461.615 -1.33886 5.5323 0
M  V30 5086 N 462.817 -3.12495 4.89211 0
M  V30 5087 H 465.582 0.458407 2.96173 0
M  V30 5088 H 463.143 0.390433 1.57122 0
M  V30 5089 H 465.135 -2.01243 3.51118 0
M  V30 5090 H 463.705 -1.93983 2.45131 0
M  V30 5091 H 462.925 0.0495025 3.94169 0
M  V30 5092 H 464.213 -0.403776 5.07195 0
M  V30 5093 H 463.611 -3.51931 4.42901 0
M  V30 5094 H 462.168 -3.74698 5.33333 0
M  V30 5095 N 465.601 -1.54893 0.290851 0
M  V30 5096 C 466.549 -2.24579 -0.605576 0
M  V30 5097 C 467.543 -1.24824 -1.14522 0
M  V30 5098 O 468.749 -1.42706 -1.09704 0
M  V30 5099 H 465.124 -0.720946 -0.213872 0
M  V30 5100 H 467.095 -2.984 0.0048173 0
M  V30 5101 C 465.844 -2.99224 -1.77088 0
M  V30 5102 H 465.167 -3.75782 -1.36484 0
M  V30 5103 H 466.607 -3.51281 -2.3744 0
M  V30 5104 C 465.066 -2.05602 -2.66888 0
M  V30 5105 O 465.596 -1.61745 -3.67698 0
M  V30 5106 N 463.802 -1.71771 -2.34399 0
M  V30 5107 H 463.349 -2.07633 -1.52468 0
M  V30 5108 H 463.307 -1.09403 -2.94751 0
M  V30 5109 N 467.08 -0.0183926 -1.57589 0
M  V30 5110 C 468.012 0.995557 -2.06449 0
M  V30 5111 C 469.025 1.29556 -0.985849 0
M  V30 5112 O 470.214 1.2621 -1.26227 0
M  V30 5113 C 467.314 2.32572 -2.46502 0
M  V30 5114 C 466.487 2.21245 -3.77319 0
M  V30 5115 C 465.546 3.37104 -4.04039 0
M  V30 5116 O 464.572 3.14468 -4.74445 0
M  V30 5117 N 465.774 4.60553 -3.53372 0
M  V30 5118 H 468.539 0.578746 -2.94059 0
M  V30 5119 H 466.1 0.168603 -1.6102 0
M  V30 5120 H 468.092 3.08887 -2.61478 0
M  V30 5121 H 466.662 2.65931 -1.64315 0
M  V30 5122 H 465.882 1.29723 -3.72244 0
M  V30 5123 H 467.17 2.10868 -4.63047 0
M  V30 5124 H 466.568 4.81839 -2.96391 0
M  V30 5125 H 465.125 5.34072 -3.73644 0
M  V30 5126 N 468.558 1.5553 0.254621 0
M  V30 5127 C 469.788 1.80784 1.00004 0
M  V30 5128 C 470.196 0.59071 1.79742 0
M  V30 5129 O 469.539 -0.449988 1.78103 0
M  V30 5130 C 469.601 2.99268 1.99196 0
M  V30 5131 C 469.265 4.35595 1.38224 0
M  V30 5132 C 470.262 5.13884 0.788611 0
M  V30 5133 C 467.947 4.82281 1.40393 0
M  V30 5134 C 469.941 6.37004 0.224783 0
M  V30 5135 C 467.628 6.05351 0.836243 0
M  V30 5136 C 468.626 6.82551 0.24769 0
M  V30 5137 O 468.314 8.03297 -0.311249 0
M  V30 5138 H 468.046 0.60565 0.300274 0
M  V30 5139 H 470.6 2.03411 0.285143 0
M  V30 5140 H 468.83 2.72377 2.74496 0
M  V30 5141 H 470.519 3.11682 2.60018 0
M  V30 5142 H 471.285 4.78938 0.764423 0
M  V30 5143 H 467.164 4.22189 1.85142 0
M  V30 5144 H 470.708 6.97203 -0.235235 0
M  V30 5145 H 466.605 6.39776 0.857733 0
M  V30 5146 H 467.373 8.1825 -0.20237 0
M  V30 5147 N 470.036 -0.519951 1.48776 0
M  V30 5148 C 471.261 -1.30447 1.6124 0
M  V30 5149 C 471.686 -1.86055 0.276591 0
M  V30 5150 O 471.044 -1.64915 -0.753183 0
M  V30 5151 C 471.092 -2.42406 2.66967 0
M  V30 5152 O 470.196 -3.45728 2.24824 0
M  V30 5153 H 469.537 -0.385924 0.540332 0
M  V30 5154 H 472.067 -0.624572 1.94834 0
M  V30 5155 H 472.077 -2.88447 2.88552 0
M  V30 5156 H 470.752 -2.01294 3.63941 0
M  V30 5157 H 469.329 -3.05737 2.13494 0
M  V30 5158 N 471.514 -1.37532 -0.769588 0
M  V30 5159 C 472.742 -1.36059 -1.55871 0
M  V30 5160 C 473.157 0.053544 -1.88724 0
M  V30 5161 O 472.514 1.01591 -1.5161 0
M  V30 5162 C 472.565 -2.20107 -2.86767 0
M  V30 5163 O 472.286 -3.56009 -2.55321 0
M  V30 5164 C 473.787 -2.26636 -3.80987 0
M  V30 5165 H 471.007 -0.465967 -0.482821 0
M  V30 5166 H 473.551 -1.80901 -0.953686 0
M  V30 5167 H 471.706 -1.78768 -3.43687 0
M  V30 5168 H 472.12 -4.0009 -3.39158 0
M  V30 5169 H 473.594 -2.89763 -4.69831 0
M  V30 5170 H 474.071 -1.2754 -4.20274 0
M  V30 5171 H 474.677 -2.68296 -3.29996 0
M  V30 5172 N 472.992 0.995999 -1.22138 0
M  V30 5173 C 473.922 2.10387 -1.01289 0
M  V30 5174 C 474.903 1.69975 0.0651454 0
M  V30 5175 O 476.088 1.9396 -0.0964628 0
M  V30 5176 C 473.218 3.42312 -0.586517 0
M  V30 5177 C 472.172 3.96558 -1.61014 0
M  V30 5178 C 471.498 5.24494 -1.0397 0
M  V30 5179 C 472.798 4.27595 -2.99933 0
M  V30 5180 H 474.492 2.28086 -1.93951 0
M  V30 5181 H 472.038 1.09607 -0.933928 0
M  V30 5182 H 473.991 4.19223 -0.427793 0
M  V30 5183 H 472.715 3.24431 0.375761 0
M  V30 5184 H 471.374 3.21776 -1.75658 0
M  V30 5185 H 471.022 5.02953 -0.0688703 0
M  V30 5186 H 470.722 5.61755 -1.72352 0
M  V30 5187 H 472.246 6.04042 -0.892494 0
M  V30 5188 H 473.66 4.95315 -2.8868 0
M  V30 5189 H 472.057 4.76021 -3.6541 0
M  V30 5190 H 473.127 3.35498 -3.50099 0
M  V30 5191 N 474.47 1.03057 1.19235 0
M  V30 5192 C 475.695 0.74757 1.93458 0
M  V30 5193 C 476.12 -0.687648 1.7508 0
M  V30 5194 O 475.478 -1.47499 1.05422 0
M  V30 5195 C 475.526 1.10604 3.43219 0
M  V30 5196 O 474.63 0.225671 4.11782 0
M  V30 5197 H 473.971 0.276047 0.603899 0
M  V30 5198 H 476.501 1.3777 1.51263 0
M  V30 5199 H 476.511 1.06366 3.93891 0
M  V30 5200 H 475.186 2.15165 3.55917 0
M  V30 5201 H 473.763 0.326795 3.71465 0
M  V30 5202 N 475.948 -1.35272 0.808662 0
M  V30 5203 C 476.895 -2.29764 0.218482 0
M  V30 5204 C 477.865 -1.52911 -0.648652 0
M  V30 5205 O 479.05 -1.81341 -0.593297 0
M  V30 5206 C 476.19 -3.39388 -0.625282 0
M  V30 5207 C 475.303 -4.31202 0.262516 0
M  V30 5208 C 474.438 -5.27919 -0.589451 0
M  V30 5209 C 473.477 -6.11371 0.298617 0
M  V30 5210 N 472.614 -7.0022 -0.513443 0
M  V30 5211 H 477.454 -2.79645 1.02968 0
M  V30 5212 H 474.991 -1.37629 0.519303 0
M  V30 5213 H 476.949 -4.01615 -1.12966 0
M  V30 5214 H 475.579 -2.90777 -1.40173 0
M  V30 5215 H 474.631 -3.69962 0.885013 0
M  V30 5216 H 475.943 -4.89748 0.945971 0
M  V30 5217 H 475.097 -5.95529 -1.15888 0
M  V30 5218 H 473.836 -4.69875 -1.30647 0
M  V30 5219 H 472.841 -5.42707 0.880301 0
M  V30 5220 H 474.066 -6.71494 1.01352 0
M  V30 5221 H 472.012 -6.44662 -1.21439 0
M  V30 5222 H 471.929 -7.55917 0.111922 0
M  V30 5223 H 473.197 -7.72175 -1.06608 0
M  V30 5224 N 477.426 -0.562348 -1.47226 0
M  V30 5225 C 478.837 -0.130325 -1.86245 0
M  V30 5226 C 479.188 1.30128 -1.46838 0
M  V30 5227 O 478.313 1.97974 -0.873805 0
M  V30 5228 C 478.908 -0.229738 -3.3802 0
M  V30 5229 C 477.467 0.14728 -3.76112 0
M  V30 5230 C 476.614 -0.574971 -2.71274 0
M  V30 5231 H 479.565 -0.771773 -1.3867 0
M  V30 5232 H 479.586 0.550316 -3.76499 0
M  V30 5233 H 479.098 -1.27178 -3.66671 0
M  V30 5234 H 477.199 1.19023 -3.53078 0
M  V30 5235 H 477.312 -0.214858 -4.78618 0
M  V30 5236 H 475.676 -0.0174756 -2.54694 0
M  V30 5237 H 476.459 -1.61827 -3.02766 0
M  V30 5238 N 478.904 1.54736 -0.299062 0
M  V30 5239 C 479.867 2.22127 0.565012 0
M  V30 5240 C 480.867 1.20669 1.06281 0
M  V30 5241 O 482.057 1.45417 0.959145 0
M  V30 5242 C 479.189 2.90611 1.78208 0
M  V30 5243 H 480.382 2.99891 -0.0237448 0
M  V30 5244 H 477.935 1.5622 -0.0498788 0
M  V30 5245 H 478.67 2.16921 2.41072 0
M  V30 5246 H 478.455 3.64984 1.43281 0
M  V30 5247 H 479.945 3.42026 2.396 0
M  V30 5248 N 480.382 0.0267497 1.57577 0
M  V30 5249 C 481.345 -0.940916 2.08996 0
M  V30 5250 C 482.345 -1.25561 1.00455 0
M  V30 5251 O 483.535 -1.19634 1.26623 0
M  V30 5252 C 480.667 -2.25814 2.55384 0
M  V30 5253 H 481.86 -0.495628 2.95776 0
M  V30 5254 H 479.413 -0.221241 1.54726 0
M  V30 5255 H 480.148 -2.74976 1.71926 0
M  V30 5256 H 479.933 -2.04285 3.34679 0
M  V30 5257 H 481.423 -2.95178 2.95398 0
M  V30 5258 N 481.861 -1.55662 -0.24637 0
M  V30 5259 C 482.791 -1.93377 -1.30873 0
M  V30 5260 C 483.772 -0.798773 -1.50179 0
M  V30 5261 O 484.957 -1.0591 -1.62778 0
M  V30 5262 C 482.087 -2.22893 -2.66338 0
M  V30 5263 C 481.041 -3.38649 -2.61727 0
M  V30 5264 C 480.367 -3.53708 -4.00992 0
M  V30 5265 C 481.667 -4.74323 -2.18666 0
M  V30 5266 H 483.361 -2.82363 -0.995552 0
M  V30 5267 H 480.907 -1.35854 -0.477464 0
M  V30 5268 H 482.86 -2.47866 -3.40794 0
M  V30 5269 H 481.584 -1.30733 -2.99293 0
M  V30 5270 H 480.243 -3.13685 -1.89729 0
M  V30 5271 H 479.891 -2.58967 -4.31214 0
M  V30 5272 H 479.591 -4.31551 -3.98795 0
M  V30 5273 H 481.115 -3.81003 -4.77147 0
M  V30 5274 H 482.529 -4.98665 -2.82854 0
M  V30 5275 H 480.926 -5.55273 -2.27579 0
M  V30 5276 H 481.996 -4.71349 -1.13834 0
M  V30 5277 N 483.339 0.512053 -1.4905 0
M  V30 5278 C 484.567 1.29116 -1.61669 0
M  V30 5279 C 484.982 1.86655 -0.283787 0
M  V30 5280 O 484.339 1.67293 0.729331 0
M  V30 5281 C 484.39 2.4293 -2.67707 0
M  V30 5282 O 484.111 1.87758 -3.95826 0
M  V30 5283 C 485.612 3.34476 -2.90931 0
M  V30 5284 H 482.832 0.392009 -0.544583 0
M  V30 5285 H 485.376 0.615881 -1.95006 0
M  V30 5286 H 483.531 3.06308 -2.37179 0
M  V30 5287 H 483.945 2.62393 -4.54148 0
M  V30 5288 H 485.419 4.10642 -3.68886 0
M  V30 5289 H 485.896 3.90801 -2.00427 0
M  V30 5290 H 486.502 2.76874 -3.22832 0
M  V30 5291 N 484.817 1.37938 0.762283 0
M  V30 5292 C 486.065 1.33404 1.51815 0
M  V30 5293 C 486.386 -0.0780975 1.94844 0
M  V30 5294 O 485.656 -1.02405 1.67003 0
M  V30 5295 H 484.236 0.490839 0.563104 0
M  V30 5296 H 486.898 1.72527 0.906669 0
M  V30 5297 H 485.994 1.97926 2.41313 0
M  V30 5298 N 486.295 -0.989507 1.22664 0
M  V30 5299 C 487.523 -1.76496 1.07967 0
M  V30 5300 C 487.938 -1.85148 -0.369543 0
M  V30 5301 O 487.295 -1.32408 -1.25596 0
M  V30 5302 C 487.346 -3.19642 1.68853 0
M  V30 5303 O 487.067 -3.11453 3.08105 0
M  V30 5304 C 488.568 -4.13621 1.59475 0
M  V30 5305 H 485.788 -0.55418 0.378319 0
M  V30 5306 H 488.332 -1.24378 1.62328 0
M  V30 5307 H 486.487 -3.68816 1.18547 0
M  V30 5308 H 486.901 -4.01499 3.37489 0
M  V30 5309 H 488.375 -5.11801 2.06795 0
M  V30 5310 H 488.852 -4.35718 0.55191 0
M  V30 5311 H 489.458 -3.70346 2.09103 0
M  V30 5312 N 487.773 -1.03688 -1.18687 0
M  V30 5313 C 488.703 -0.645407 -2.24403 0
M  V30 5314 C 489.684 0.349511 -1.66471 0
M  V30 5315 O 490.869 0.230453 -1.92828 0
M  V30 5316 C 487.999 -0.00365337 -3.473 0
M  V30 5317 C 486.953 -0.921705 -4.17958 0
M  V30 5318 C 486.279 -0.144629 -5.34504 0
M  V30 5319 C 487.579 -2.23909 -4.71871 0
M  V30 5320 H 489.273 -1.52917 -2.57404 0
M  V30 5321 H 486.819 -0.736711 -1.23728 0
M  V30 5322 H 488.772 0.281908 -4.20456 0
M  V30 5323 H 487.496 0.914963 -3.13522 0
M  V30 5324 H 486.155 -1.19159 -3.46694 0
M  V30 5325 H 485.803 0.776274 -4.96974 0
M  V30 5326 H 485.503 -0.756206 -5.82714 0
M  V30 5327 H 487.027 0.134004 -6.10453 0
M  V30 5328 H 488.441 -2.0145 -5.36741 0
M  V30 5329 H 486.838 -2.8033 -5.30599 0
M  V30 5330 H 487.908 -2.88822 -3.895 0
M  V30 5331 N 489.251 1.34841 -0.815825 0
M  V30 5332 C 490.161 2.33425 -0.234462 0
M  V30 5333 C 491.177 1.62295 0.627413 0
M  V30 5334 O 492.353 1.94109 0.536987 0
M  V30 5335 C 489.418 3.41471 0.599849 0
M  V30 5336 C 488.479 4.28362 -0.283596 0
M  V30 5337 C 487.712 5.31248 0.51099 0
M  V30 5338 O 487.935 5.43056 1.7449 0
M  V30 5339 O 486.869 6.01812 -0.10297 0
M  V30 5340 H 490.695 2.84962 -1.05024 0
M  V30 5341 H 488.28 1.37774 -0.577809 0
M  V30 5342 H 490.162 4.07464 1.07475 0
M  V30 5343 H 488.837 2.9219 1.39308 0
M  V30 5344 H 487.744 3.65318 -0.805836 0
M  V30 5345 H 489.077 4.81066 -1.041 0
M  V30 5346 N 490.729 0.570148 1.46925 0
M  V30 5347 C 491.975 0.0510284 2.02736 0
M  V30 5348 C 492.308 -1.3006 1.44215 0
M  V30 5349 O 491.583 -1.84932 0.602521 0
M  V30 5350 C 491.866 -0.028215 3.60089 0
M  V30 5351 C 491.719 1.35142 4.29018 0
M  V30 5352 C 493.038 -0.735181 4.33916 0
M  V30 5353 H 490.157 0.0200178 0.736728 0
M  V30 5354 H 492.799 0.73493 1.75211 0
M  V30 5355 H 490.949 -0.610648 3.83671 0
M  V30 5356 H 492.621 1.97806 4.16738 0
M  V30 5357 H 490.864 1.9226 3.88868 0
M  V30 5358 H 491.535 1.24857 5.37694 0
M  V30 5359 H 494.011 -0.240519 4.15404 0
M  V30 5360 H 492.887 -0.759622 5.43618 0
M  V30 5361 H 493.148 -1.79397 4.04066 0
M  V30 5362 N 492.207 -1.54576 0.307264 0
M  V30 5363 C 493.623 -1.59534 -0.0459251 0
M  V30 5364 C 493.823 -1.32414 -1.51884 0
M  V30 5365 O 492.879 -1.1006 -2.27251 0
M  V30 5366 C 494.192 -2.98566 0.357649 0
M  V30 5367 C 495.74 -3.11491 0.306937 0
M  V30 5368 C 496.215 -4.52842 0.685427 0
M  V30 5369 N 497.706 -4.58782 0.638203 0
M  V30 5370 C 498.441 -5.66238 0.903458 0
M  V30 5371 N 497.937 -6.81703 1.23501 0
M  V30 5372 N 499.73 -5.55937 0.830102 0
M  V30 5373 H 491.881 -1.70464 1.26712 0
M  V30 5374 H 494.144 -0.79647 0.514139 0
M  V30 5375 H 493.85 -3.23356 1.38325 0
M  V30 5376 H 493.724 -3.76117 -0.285565 0
M  V30 5377 H 496.111 -2.86446 -0.709424 0
M  V30 5378 H 496.192 -2.36081 0.984861 0
M  V30 5379 H 495.836 -4.78618 1.69963 0
M  V30 5380 H 495.766 -5.26598 -0.0146346 0
M  V30 5381 H 498.257 -3.75849 0.393138 0
M  V30 5382 H 498.57 -7.59582 1.42322 0
M  V30 5383 H 496.915 -6.8324 1.27311 0
M  V30 5384 H 500.106 -4.64608 0.570693 0
M  V30 5385 H 500.279 -6.39597 1.04019 0
M  V30 5386 N 493.685 -0.035106 -1.57561 0
M  V30 5387 C 494.615 0.942993 -2.13612 0
M  V30 5388 C 495.596 1.33531 -1.05373 0
M  V30 5389 O 496.781 1.41287 -1.33235 0
M  V30 5390 C 493.911 2.22332 -2.66807 0
M  V30 5391 C 492.865 1.97156 -3.79886 0
M  V30 5392 C 492.191 3.31506 -4.19533 0
M  V30 5393 C 493.491 1.30596 -5.05709 0
M  V30 5394 H 495.185 0.476179 -2.95589 0
M  V30 5395 H 492.731 0.227602 -1.4219 0
M  V30 5396 H 494.684 2.91142 -3.04654 0
M  V30 5397 H 493.408 2.7119 -1.81999 0
M  V30 5398 H 492.067 1.30763 -3.42486 0
M  V30 5399 H 491.715 3.78134 -3.31698 0
M  V30 5400 H 491.415 3.15465 -4.95738 0
M  V30 5401 H 492.939 4.01574 -4.59968 0
M  V30 5402 H 494.353 1.89416 -5.41105 0
M  V30 5403 H 492.75 1.24934 -5.86951 0
M  V30 5404 H 493.82 0.279742 -4.84092 0
M  V30 5405 N 495.163 1.55791 0.238111 0
M  V30 5406 C 496.096 1.86036 1.32158 0
M  V30 5407 C 497.074 0.716216 1.45976 0
M  V30 5408 O 498.258 0.962882 1.62052 0
M  V30 5409 C 495.385 2.05281 2.69402 0
M  V30 5410 C 494.431 3.27939 2.72687 0
M  V30 5411 S 495.264 4.84342 2.28413 0
M  V30 5412 C 496.42 5.06604 3.67565 0
M  V30 5413 H 496.653 2.77644 1.06306 0
M  V30 5414 H 494.186 1.48012 0.439537 0
M  V30 5415 H 496.144 2.17053 3.48423 0
M  V30 5416 H 494.805 1.14499 2.92487 0
M  V30 5417 H 493.998 3.38398 3.73501 0
M  V30 5418 H 493.6 3.14938 2.01717 0
M  V30 5419 H 495.892 4.94486 4.6313 0
M  V30 5420 H 496.835 6.08554 3.62033 0
M  V30 5421 H 497.243 4.34409 3.60485 0
M  V30 5422 N 496.642 -0.504142 1.49319 0
M  V30 5423 C 497.89 -1.25598 1.58334 0
M  V30 5424 C 498.211 -1.93114 0.270538 0
M  V30 5425 O 497.481 -1.82585 -0.709891 0
M  V30 5426 H 496.061 -0.466571 0.58337 0
M  V30 5427 H 498.723 -0.584547 1.85928 0
M  V30 5428 H 497.819 -2.02159 2.37778 0
M  V30 5429 N 498.12 -1.38341 -0.754957 0
M  V30 5430 C 499.36 -1.35888 -1.52689 0
M  V30 5431 C 499.724 0.0513682 -1.91931 0
M  V30 5432 O 500.925 0.200761 -2.68049 0
M  V30 5433 C 499.196 -2.28666 -2.74676 0
M  V30 5434 S 500.755 -2.4422 -3.64558 0
M  V30 5435 H 497.573 -0.482165 -0.522531 0
M  V30 5436 H 500.175 -1.74253 -0.886358 0
M  V30 5437 H 498.879 -3.30023 -2.43953 0
M  V30 5438 H 498.41 -1.91445 -3.43675 0
M  V30 5439 H 500.425 -1.66525 -4.67423 0
M  V30 5440 N 499.598 0.982988 -1.23187 0
M  V30 5441 C 500.53 2.07729 -0.968572 0
M  V30 5442 C 501.543 1.62702 0.0564821 0
M  V30 5443 O 502.732 1.77603 -0.178733 0
M  V30 5444 C 499.832 3.36071 -0.436974 0
M  V30 5445 C 499.005 4.10081 -1.52159 0
M  V30 5446 C 498.064 5.16701 -0.99532 0
M  V30 5447 O 497.09 5.43727 -1.68373 0
M  V30 5448 N 498.292 5.80226 0.178192 0
M  V30 5449 H 501.057 2.30894 -1.9107 0
M  V30 5450 H 498.618 1.14949 -1.1401 0
M  V30 5451 H 500.61 4.04639 -0.0700051 0
M  V30 5452 H 499.18 3.09893 0.410509 0
M  V30 5453 H 498.4 3.36004 -2.06144 0
M  V30 5454 H 499.688 4.56295 -2.25105 0
M  V30 5455 H 499.086 5.60651 0.754096 0
M  V30 5456 H 497.643 6.49982 0.486449 0
M  V30 5457 N 501.076 1.04316 1.18135 0
M  V30 5458 C 502.353 0.662166 1.84051 0
M  V30 5459 C 502.733 -0.858169 1.9287 0
M  V30 5460 O 502.081 -1.76062 1.45652 0
M  V30 5461 C 502.291 1.3409 3.22212 0
M  V30 5462 C 503.639 1.4733 3.9822 0
M  V30 5463 O 504.663 1.29921 3.31661 0
M  V30 5464 O 503.522 1.75722 5.17479 0
M  V30 5465 H 500.616 0.232005 0.79379 0
M  V30 5466 H 503.162 1.1422 1.25506 0
M  V30 5467 H 501.934 2.37853 3.10711 0
M  V30 5468 H 501.557 0.849649 3.88416 0
M  V30 5469 N 502.554 -1.34406 0.822964 0
M  V30 5470 C 503.803 -1.97542 0.407458 0
M  V30 5471 C 504.116 -1.65973 -1.035 0
M  V30 5472 O 505.322 -2.22598 -1.55442 0
M  V30 5473 C 503.778 -3.53463 0.677623 0
M  V30 5474 C 503.386 -3.93925 2.1337 0
M  V30 5475 C 505.13 -4.23229 0.328284 0
M  V30 5476 C 503.037 -5.42759 2.34876 0
M  V30 5477 H 501.967 -0.739207 0.148623 0
M  V30 5478 H 504.618 -1.53248 1.00932 0
M  V30 5479 H 503 -3.96 0.00558965 0
M  V30 5480 H 504.174 -3.62494 2.8449 0
M  V30 5481 H 502.489 -3.37097 2.44448 0
M  V30 5482 H 505.086 -5.32659 0.466794 0
M  V30 5483 H 505.429 -4.09899 -0.727224 0
M  V30 5484 H 505.962 -3.86169 0.954896 0
M  V30 5485 H 502.701 -5.61075 3.38932 0
M  V30 5486 H 502.221 -5.75704 1.68299 0
M  V30 5487 H 503.9 -6.0944 2.17236 0
M  V30 5488 N 504.032 -0.577932 -1.46621 0
M  V30 5489 C 504.962 0.145917 -2.33044 0
M  V30 5490 C 505.943 0.888412 -1.45056 0
M  V30 5491 O 507.128 0.864812 -1.73881 0
M  V30 5492 C 504.258 1.16322 -3.27241 0
M  V30 5493 C 503.212 0.535868 -4.24632 0
M  V30 5494 C 502.538 1.65929 -5.08303 0
M  V30 5495 C 503.838 -0.523861 -5.19666 0
M  V30 5496 H 505.532 -0.575636 -2.93814 0
M  V30 5497 H 503.078 -0.278272 -1.41286 0
M  V30 5498 H 505.031 1.67793 -3.86553 0
M  V30 5499 H 503.755 1.91498 -2.64567 0
M  V30 5500 H 502.414 0.0422759 -3.66576 0
M  V30 5501 H 502.062 2.40061 -4.42018 0
M  V30 5502 H 501.762 1.2452 -5.74255 0
M  V30 5503 H 503.286 2.17686 -5.70478 0
M  V30 5504 H 504.7 -0.0944059 -5.73222 0
M  V30 5505 H 503.097 -0.858 -5.93935 0
M  V30 5506 H 504.167 -1.41197 -4.63887 0
M  V30 5507 N 505.51 1.54411 -0.315457 0
M  V30 5508 C 506.42 2.27737 0.56329 0
M  V30 5509 C 507.436 1.31787 1.13614 0
M  V30 5510 O 508.612 1.64791 1.15784 0
M  V30 5511 C 505.677 3.01478 1.71207 0
M  V30 5512 C 504.738 4.12997 1.17185 0
M  V30 5513 C 503.971 4.83212 2.26588 0
M  V30 5514 O 504.194 4.52884 3.46775 0
M  V30 5515 O 503.128 5.70299 1.92463 0
M  V30 5516 H 506.954 3.03683 -0.0319614 0
M  V30 5517 H 504.539 1.49178 -0.0814188 0
M  V30 5518 H 506.421 3.47683 2.38106 0
M  V30 5519 H 505.096 2.28414 2.29366 0
M  V30 5520 H 504.003 3.71159 0.468174 0
M  V30 5521 H 505.336 4.8808 0.635501 0
M  V30 5522 N 506.988 0.0434614 1.5754 0
M  V30 5523 C 507.936 -0.951465 2.1225 0
M  V30 5524 C 508.93 -1.3274 1.05245 0
M  V30 5525 O 510.136 -1.30795 1.23663 0
M  V30 5526 H 506.511 -0.324667 0.678303 0
M  V30 5527 H 508.482 -0.464855 2.94757 0
M  V30 5528 C 507.231 -2.21972 2.67626 0
M  V30 5529 H 506.554 -1.93923 3.4962 0
M  V30 5530 H 507.994 -2.89765 3.09536 0
M  V30 5531 C 506.453 -2.95919 1.61038 0
M  V30 5532 O 506.983 -3.8857 1.01862 0
M  V30 5533 N 505.189 -2.58511 1.32741 0
M  V30 5534 H 504.736 -1.83244 1.81051 0
M  V30 5535 H 504.694 -3.08296 0.616531 0
M  V30 5536 N 508.466 -1.55915 -0.229846 0
M  V30 5537 C 509.712 -1.78807 -0.956868 0
M  V30 5538 C 510.045 -0.611687 -1.84315 0
M  V30 5539 O 509.32 0.389398 -1.90562 0
M  V30 5540 C 509.603 -3.11718 -1.80288 0
M  V30 5541 C 509.456 -4.3979 -0.943649 0
M  V30 5542 C 510.775 -3.40999 -2.78222 0
M  V30 5543 H 507.894 -0.6505 -0.346437 0
M  V30 5544 H 510.536 -1.88648 -0.226252 0
M  V30 5545 H 508.686 -3.03459 -2.42579 0
M  V30 5546 H 510.358 -4.60059 -0.338121 0
M  V30 5547 H 508.601 -4.33086 -0.248705 0
M  V30 5548 H 509.272 -5.29208 -1.5698 0
M  V30 5549 H 511.748 -3.49332 -2.26067 0
M  V30 5550 H 510.624 -4.35183 -3.34526 0
M  V30 5551 H 510.885 -2.62754 -3.55546 0
M  V30 5552 N 509.944 0.496216 -1.49584 0
M  V30 5553 C 511.355 1.07765 -1.52459 0
M  V30 5554 C 511.706 1.93679 -0.31353 0
M  V30 5555 O 510.831 2.08588 0.576186 0
M  V30 5556 C 511.426 1.96111 -2.76271 0
M  V30 5557 C 509.985 2.49409 -2.81908 0
M  V30 5558 C 509.132 1.27142 -2.46435 0
M  V30 5559 H 512.083 0.279914 -1.56212 0
M  V30 5560 H 512.104 2.80862 -2.56704 0
M  V30 5561 H 511.616 1.33555 -3.64396 0
M  V30 5562 H 509.717 3.1559 -1.98074 0
M  V30 5563 H 509.83 2.86234 -3.84196 0
M  V30 5564 H 508.194 1.59818 -1.98319 0
M  V30 5565 H 508.977 0.662866 -3.3684 0
M  V30 5566 N 511.423 1.38739 0.74761 0
M  V30 5567 C 512.671 1.35007 1.50391 0
M  V30 5568 C 512.992 -0.0574274 1.94915 0
M  V30 5569 O 512.262 -1.00628 1.6808 0
M  V30 5570 H 510.842 0.496784 0.557866 0
M  V30 5571 H 513.504 1.73479 0.888319 0
M  V30 5572 H 512.6 2.00474 2.392 0
M  V30 5573 N 512.901 -0.976442 1.23707 0
M  V30 5574 C 514.317 -1.24341 1.00058 0
M  V30 5575 C 514.517 -1.99315 -0.295932 0
M  V30 5576 O 513.573 -2.3123 -1.01435 0
M  V30 5577 C 514.886 -2.03909 2.21001 0
M  V30 5578 C 516.434 -2.17034 2.25534 0
M  V30 5579 C 516.909 -2.99994 3.46075 0
M  V30 5580 N 518.4 -3.07578 3.46338 0
M  V30 5581 C 519.135 -3.72104 4.36264 0
M  V30 5582 N 518.631 -4.3842 5.36432 0
M  V30 5583 N 520.424 -3.69029 4.23998 0
M  V30 5584 H 512.575 -0.47428 2.07037 0
M  V30 5585 H 514.838 -0.272167 0.908091 0
M  V30 5586 H 514.544 -1.56198 3.15111 0
M  V30 5587 H 514.418 -3.04654 2.22409 0
M  V30 5588 H 516.805 -2.63951 1.31961 0
M  V30 5589 H 516.886 -1.15664 2.28156 0
M  V30 5590 H 516.53 -2.53772 4.39957 0
M  V30 5591 H 516.46 -4.01541 3.40694 0
M  V30 5592 H 518.951 -2.60397 2.73865 0
M  V30 5593 H 519.264 -4.85447 6.013 0
M  V30 5594 H 517.609 -4.37116 5.40328 0
M  V30 5595 H 520.8 -3.16392 3.44984 0
M  V30 5596 H 520.973 -4.19034 4.94282 0
M  V30 5597 N 514.379 -1.04941 -1.1758 0
M  V30 5598 C 515.604 -0.778253 -1.92245 0
M  V30 5599 C 516.029 0.659707 -1.76152 0
M  V30 5600 O 515.387 1.45803 -1.07755 0
M  V30 5601 C 515.435 -1.16051 -3.41416 0
M  V30 5602 O 514.539 -0.291153 -4.11371 0
M  V30 5603 H 513.88 -0.285619 -0.599431 0
M  V30 5604 H 516.41 -1.40159 -1.49052 0
M  V30 5605 H 516.42 -1.12619 -3.92149 0
M  V30 5606 H 515.095 -2.208 -3.52449 0
M  V30 5607 H 513.672 -0.385851 -3.70898 0
M  V30 5608 N 515.857 1.33968 -0.830081 0
M  V30 5609 C 516.804 2.29387 -0.255008 0
M  V30 5610 C 517.774 1.53923 0.624243 0
M  V30 5611 O 518.959 1.82262 0.564372 0
M  V30 5612 C 516.099 3.4034 0.571209 0
M  V30 5613 C 515.212 4.30729 -0.331083 0
M  V30 5614 C 514.347 5.2879 0.505389 0
M  V30 5615 C 513.386 6.10819 -0.395843 0
M  V30 5616 N 512.523 7.00948 0.401979 0
M  V30 5617 H 517.363 2.77972 -1.07404 0
M  V30 5618 H 514.9 1.36785 -0.541133 0
M  V30 5619 H 516.858 4.03361 1.06562 0
M  V30 5620 H 515.488 2.9297 1.35529 0
M  V30 5621 H 514.54 3.68507 -0.943759 0
M  V30 5622 H 515.852 4.88181 -1.02377 0
M  V30 5623 H 515.006 5.97297 1.06399 0
M  V30 5624 H 513.745 4.71894 1.23155 0
M  V30 5625 H 512.75 5.41238 -0.966529 0
M  V30 5626 H 513.975 6.69797 -1.12023 0
M  V30 5627 H 511.921 6.46512 1.11168 0
M  V30 5628 H 511.838 7.55643 -0.232167 0
M  V30 5629 H 513.106 7.73774 0.943102 0
M  V30 5630 N 517.335 0.585699 1.46312 0
M  V30 5631 C 518.298 -0.135673 2.28798 0
M  V30 5632 C 519.298 -0.815988 1.38558 0
M  V30 5633 O 520.488 -0.667487 1.60904 0
M  V30 5634 C 517.62 -1.20163 3.1902 0
M  V30 5635 H 518.813 0.589257 2.94054 0
M  V30 5636 H 516.366 0.343794 1.52472 0
M  V30 5637 H 517.101 -1.95804 2.58517 0
M  V30 5638 H 516.886 -0.718282 3.85465 0
M  V30 5639 H 518.376 -1.70749 3.81096 0
M  V30 5640 N 518.813 -1.54241 0.323641 0
M  V30 5641 C 520.041 -2.04985 -0.280871 0
M  V30 5642 C 520.456 -1.19978 -1.45777 0
M  V30 5643 O 519.813 -0.230471 -1.81039 0
M  V30 5644 C 519.864 -3.54353 -0.715258 0
M  V30 5645 O 519.585 -4.36132 0.414817 0
M  V30 5646 C 521.086 -4.21189 -1.38257 0
M  V30 5647 H 518.306 -0.66851 -0.0577502 0
M  V30 5648 H 520.85 -1.99029 0.469852 0
M  V30 5649 H 519.005 -3.60596 -1.41596 0
M  V30 5650 H 519.419 -5.2445 0.0725227 0
M  V30 5651 H 520.893 -5.27154 -1.63745 0
M  V30 5652 H 521.37 -3.72307 -2.32989 0
M  V30 5653 H 521.976 -4.19085 -0.724447 0
M  V30 5654 N 520.291 -0.0518155 -1.57515 0
M  V30 5655 C 521.516 0.634896 -1.97443 0
M  V30 5656 C 521.941 1.63546 -0.929207 0
M  V30 5657 O 521.299 1.80981 0.107484 0
M  V30 5658 C 521.347 1.29765 -3.36442 0
M  V30 5659 O 520.451 2.41333 -3.34413 0
M  V30 5660 H 519.792 0.164994 -0.643174 0
M  V30 5661 H 522.322 -0.120407 -2.04245 0
M  V30 5662 H 522.332 1.64918 -3.73184 0
M  V30 5663 H 521.007 0.564361 -4.12053 0
M  V30 5664 H 519.584 2.08122 -3.09418 0
M  V30 5665 N 521.769 1.56035 0.221574 0
M  V30 5666 C 523.015 1.79312 0.947372 0
M  V30 5667 C 523.348 0.621453 1.83988 0
M  V30 5668 O 522.623 -0.379287 1.90766 0
M  V30 5669 C 522.906 3.1267 1.78633 0
M  V30 5670 C 522.759 4.40284 0.920312 0
M  V30 5671 C 524.078 3.4247 2.7641 0
M  V30 5672 H 521.197 0.652328 0.342982 0
M  V30 5673 H 523.839 1.88765 0.216244 0
M  V30 5674 H 521.989 3.04741 2.40967 0
M  V30 5675 H 523.661 4.60232 0.313718 0
M  V30 5676 H 521.904 4.33212 0.225734 0
M  V30 5677 H 522.575 5.30033 1.54171 0
M  V30 5678 H 525.051 3.50526 2.24211 0
M  V30 5679 H 523.927 4.3695 3.32213 0
M  V30 5680 H 524.188 2.64635 3.54148 0
M  V30 5681 N 523.247 -0.488276 1.49845 0
M  V30 5682 C 524.21 -1.57069 1.66919 0
M  V30 5683 C 525.21 -1.51445 0.540479 0
M  V30 5684 O 526.4 -1.5437 0.807188 0
M  V30 5685 C 523.532 -2.96718 1.67844 0
M  V30 5686 H 524.725 -1.43254 2.63474 0
M  V30 5687 H 522.278 -0.713435 1.39068 0
M  V30 5688 H 523.013 -3.15996 0.7292 0
M  V30 5689 H 522.798 -3.02208 2.49826 0
M  V30 5690 H 524.288 -3.75335 1.83066 0
M  V30 5691 N 524.725 -1.39134 -0.740242 0
M  V30 5692 C 525.655 -1.40165 -1.86751 0
M  V30 5693 C 526.636 -0.265708 -1.68012 0
M  V30 5694 O 527.821 -0.47076 -1.88408 0
M  V30 5695 C 524.951 -1.2392 -3.2444 0
M  V30 5696 C 523.905 -2.34858 -3.57807 0
M  V30 5697 C 523.231 -2.03707 -4.94376 0
M  V30 5698 C 524.531 -3.77159 -3.61315 0
M  V30 5699 H 526.225 -2.345 -1.86145 0
M  V30 5700 H 523.771 -1.12875 -0.89416 0
M  V30 5701 H 525.724 -1.23263 -4.02969 0
M  V30 5702 H 524.448 -0.26051 -3.25559 0
M  V30 5703 H 523.107 -2.34723 -2.81604 0
M  V30 5704 H 522.755 -1.04289 -4.9207 0
M  V30 5705 H 522.455 -2.78016 -5.17669 0
M  V30 5706 H 523.979 -2.04691 -5.75268 0
M  V30 5707 H 525.393 -3.79252 -4.29931 0
M  V30 5708 H 523.79 -4.50784 -3.96124 0
M  V30 5709 H 524.86 -4.08513 -2.61238 0
M  V30 5710 N 526.204 0.969867 -1.24223 0
M  V30 5711 C 527.615 1.52717 -1.07399 0
M  V30 5712 C 527.966 1.92956 0.355298 0
M  V30 5713 O 527.091 1.77112 1.2434 0
M  V30 5714 C 527.686 2.77521 -1.94339 0
M  V30 5715 C 526.245 3.29615 -1.81744 0
M  V30 5716 C 525.392 2.02537 -1.89405 0
M  V30 5717 H 528.343 0.788399 -1.37732 0
M  V30 5718 H 528.364 3.50773 -1.47439 0
M  V30 5719 H 527.876 2.48203 -2.98357 0
M  V30 5720 H 525.977 3.63789 -0.805505 0
M  V30 5721 H 526.09 3.98661 -2.65718 0
M  V30 5722 H 524.454 2.17151 -1.33108 0
M  V30 5723 H 525.237 1.75587 -2.94999 0
M  V30 5724 N 527.682 1.05563 1.17022 0
M  V30 5725 C 528.93 0.76642 1.87004 0
M  V30 5726 C 529.251 -0.708854 1.8166 0
M  V30 5727 O 528.521 -1.51242 1.2451 0
M  V30 5728 H 527.101 0.280516 0.692329 0
M  V30 5729 H 529.763 1.33557 1.41945 0
M  V30 5730 H 528.859 1.08472 2.92644 0
M  V30 5731 N 529.16 -1.33526 0.837174 0
M  V30 5732 C 530.406 -1.98541 0.44193 0
M  V30 5733 C 530.761 -1.65124 -0.987517 0
M  V30 5734 O 530.054 -0.919948 -1.6807 0
M  V30 5735 C 530.248 -3.52367 0.597675 0
M  V30 5736 C 530.077 -4.00731 2.04071 0
M  V30 5737 C 528.847 -4.28649 2.67559 0
M  V30 5738 C 531.045 -4.17073 3.00923 0
M  V30 5739 N 529.027 -4.63142 4.02955 0
M  V30 5740 C 530.398 -4.54905 4.21261 0
M  V30 5741 C 532.453 -3.99358 2.97351 0
M  V30 5742 C 531.156 -4.76874 5.38501 0
M  V30 5743 C 533.182 -4.22501 4.1382 0
M  V30 5744 C 532.544 -4.60634 5.32912 0
M  V30 5745 H 528.643 -0.753246 0.210105 0
M  V30 5746 H 531.227 -1.61674 1.08488 0
M  V30 5747 H 529.398 -3.88397 -0.0154658 0
M  V30 5748 H 531.13 -4.04326 0.17404 0
M  V30 5749 H 527.885 -4.20077 2.18706 0
M  V30 5750 H 528.309 -4.84601 4.72748 0
M  V30 5751 H 532.951 -3.68993 2.06408 0
M  V30 5752 H 530.669 -5.06101 6.2999 0
M  V30 5753 H 534.255 -4.10316 4.12471 0
M  V30 5754 H 533.135 -4.78187 6.21536 0
M  V30 5755 N 530.638 -0.59345 -1.46 0
M  V30 5756 C 531.863 -0.0872365 -2.07216 0
M  V30 5757 C 532.288 1.2131 -1.43755 0
M  V30 5758 O 531.646 1.73528 -0.525152 0
M  V30 5759 C 531.694 0.0538197 -3.6056 0
M  V30 5760 O 530.798 1.10765 -3.97247 0
M  V30 5761 H 530.139 -0.0676598 -0.660544 0
M  V30 5762 H 532.669 -0.819445 -1.87473 0
M  V30 5763 H 532.679 0.256567 -4.07193 0
M  V30 5764 H 531.354 -0.895739 -4.0614 0
M  V30 5765 H 529.931 0.882501 -3.62307 0
M  V30 5766 N 532.116 1.54067 -0.331816 0
M  V30 5767 C 533.527 1.86059 0.15454 0
M  V30 5768 C 533.878 1.25331 1.50952 0
M  V30 5769 O 533.003 0.562441 2.08963 0
M  V30 5770 C 533.598 3.37581 0.287192 0
M  V30 5771 C 532.157 3.69493 0.717773 0
M  V30 5772 C 531.304 2.76863 -0.155569 0
M  V30 5773 H 534.255 1.48797 -0.55182 0
M  V30 5774 H 534.276 3.63744 1.11671 0
M  V30 5775 H 533.788 3.81751 -0.699131 0
M  V30 5776 H 531.889 3.3086 1.71354 0
M  V30 5777 H 532.002 4.76315 0.5158 0
M  V30 5778 H 530.366 2.51995 0.370213 0
M  V30 5779 H 531.149 3.23861 -1.13881 0
M  V30 5780 N 533.594 0.0601682 1.57485 0
M  V30 5781 C 534.819 -0.624416 1.97777 0
M  V30 5782 C 535.244 -1.63051 0.937867 0
M  V30 5783 O 534.602 -1.81036 -0.0978845 0
M  V30 5784 C 534.65 -1.27979 3.37126 0
M  V30 5785 O 533.754 -2.39556 3.35688 0
M  V30 5786 H 533.095 -0.161581 0.64404 0
M  V30 5787 H 535.625 0.131237 2.04179 0
M  V30 5788 H 535.635 -1.62937 3.74053 0
M  V30 5789 H 534.31 -0.542501 4.12347 0
M  V30 5790 H 532.887 -2.06478 3.10517 0
M  V30 5791 N 535.072 -1.5615 -0.213296 0
M  V30 5792 C 535.982 -1.96265 -1.28519 0
M  V30 5793 C 536.998 -0.86765 -1.50824 0
M  V30 5794 O 538.174 -1.17191 -1.63793 0
M  V30 5795 C 535.239 -2.27836 -2.61327 0
M  V30 5796 C 534.3 -3.50949 -2.47252 0
M  V30 5797 C 533.533 -3.81004 -3.73727 0
M  V30 5798 O 533.756 -3.12612 -4.77106 0
M  V30 5799 O 532.69 -4.74477 -3.70344 0
M  V30 5800 H 536.516 -2.87631 -0.974795 0
M  V30 5801 H 534.101 -1.43467 -0.416832 0
M  V30 5802 H 535.983 -2.49299 -3.39747 0
M  V30 5803 H 534.658 -1.39643 -2.9203 0
M  V30 5804 H 533.565 -3.34754 -1.67004 0
M  V30 5805 H 534.898 -4.39551 -2.21486 0
M  V30 5806 N 536.55 0.480323 -1.50102 0
M  V30 5807 C 537.778 1.25657 -1.64371 0
M  V30 5808 C 538.193 1.86011 -0.323316 0
M  V30 5809 O 537.55 1.68803 0.693682 0
M  V30 5810 C 537.601 2.37197 -2.728 0
M  V30 5811 O 537.322 1.7932 -3.9972 0
M  V30 5812 C 538.823 3.2823 -2.9796 0
M  V30 5813 H 536.043 0.380369 -0.552775 0
M  V30 5814 H 538.587 0.574379 -1.96268 0
M  V30 5815 H 536.742 3.01208 -2.43623 0
M  V30 5816 H 537.156 2.52701 -4.59611 0
M  V30 5817 H 538.63 4.02725 -3.77513 0
M  V30 5818 H 539.107 3.86462 -2.08671 0
M  V30 5819 H 539.713 2.69964 -3.28633 0
M  V30 5820 N 538.028 1.39524 0.732853 0
M  V30 5821 C 539.444 1.21176 1.03868 0
M  V30 5822 C 539.644 0.0748448 2.01361 0
M  V30 5823 O 538.7 -0.57281 2.45917 0
M  V30 5824 C 540.013 2.54667 1.59892 0
M  V30 5825 C 541.561 2.6153 1.71962 0
M  V30 5826 C 542.036 3.95248 2.31394 0
M  V30 5827 N 543.527 3.96899 2.38801 0
M  V30 5828 C 544.262 4.97138 2.85729 0
M  V30 5829 N 543.758 6.07775 3.32537 0
M  V30 5830 N 545.551 4.84516 2.84957 0
M  V30 5831 H 537.702 2.12225 0.086304 0
M  V30 5832 H 539.965 0.942614 0.100907 0
M  V30 5833 H 539.671 3.38423 0.95721 0
M  V30 5834 H 539.545 2.74538 2.58668 0
M  V30 5835 H 541.932 1.78156 2.35254 0
M  V30 5836 H 542.013 2.45507 0.718327 0
M  V30 5837 H 541.657 4.79054 1.68729 0
M  V30 5838 H 541.587 4.08593 3.32204 0
M  V30 5839 H 544.078 3.16998 2.05719 0
M  V30 5840 H 544.391 6.8017 3.66862 0
M  V30 5841 H 542.736 6.11366 3.30541 0
M  V30 5842 H 545.927 3.97185 2.47713 0
M  V30 5843 H 546.1 5.62783 3.21215 0
M  V30 5844 N 539.506 -0.963266 1.24736 0
M  V30 5845 C 540.731 -1.74699 1.11781 0
M  V30 5846 C 541.156 -1.85267 -0.325258 0
M  V30 5847 O 540.514 -1.32681 -1.23553 0
M  V30 5848 C 540.562 -3.14322 1.76731 0
M  V30 5849 O 539.666 -3.99043 1.04109 0
M  V30 5850 H 539.007 -0.53684 0.390767 0
M  V30 5851 H 541.537 -1.20801 1.65131 0
M  V30 5852 H 541.547 -3.64824 1.82668 0
M  V30 5853 H 540.222 -3.05946 2.81726 0
M  V30 5854 H 538.799 -3.5752 1.05991 0
M  V30 5855 N 540.985 -1.06182 -1.16461 0
M  V30 5856 C 542.21 -0.798599 -1.91408 0
M  V30 5857 C 542.635 0.640987 -1.76842 0
M  V30 5858 O 541.993 1.44652 -1.09296 0
M  V30 5859 C 542.041 -1.19665 -3.40165 0
M  V30 5860 O 541.145 -0.334768 -4.11039 0
M  V30 5861 H 540.486 -0.291961 -0.596368 0
M  V30 5862 H 543.016 -1.41732 -1.47557 0
M  V30 5863 H 543.026 -1.16772 -3.90933 0
M  V30 5864 H 541.701 -2.24526 -3.50087 0
M  V30 5865 H 540.278 -0.425168 -3.70468 0
M  V30 5866 N 542.463 1.3308 -0.844243 0
M  V30 5867 C 543.71 1.97605 -0.44255 0
M  V30 5868 C 544.038 1.66856 0.999458 0
M  V30 5869 O 543.293 0.943586 1.7145 0
M  V30 5870 C 543.592 3.52045 -0.616354 0
M  V30 5871 C 543.258 4.02757 -2.02726 0
M  V30 5872 C 541.92 4.16316 -2.41317 0
M  V30 5873 C 544.272 4.29776 -2.9486 0
M  V30 5874 C 541.6 4.54232 -3.71335 0
M  V30 5875 C 543.952 4.69146 -4.24364 0
M  V30 5876 C 542.616 4.80911 -4.62904 0
M  V30 5877 H 541.886 0.723088 -0.161941 0
M  V30 5878 H 544.533 1.58663 -1.0723 0
M  V30 5879 H 542.838 3.91681 0.0966812 0
M  V30 5880 H 544.535 3.99981 -0.285756 0
M  V30 5881 H 541.125 3.9268 -1.71756 0
M  V30 5882 H 545.309 4.18818 -2.6628 0
M  V30 5883 H 540.565 4.61535 -4.00993 0
M  V30 5884 H 544.739 4.89008 -4.95827 0
M  V30 5885 H 542.366 5.10048 -5.63698 0
M  V30 5886 N 543.941 0.601185 1.45683 0
M  V30 5887 C 544.874 -0.17013 2.27565 0
M  V30 5888 C 545.852 -0.879661 1.36751 0
M  V30 5889 O 547.036 -0.889827 1.66176 0
M  V30 5890 C 544.163 -1.24568 3.14961 0
M  V30 5891 C 543.209 -0.639978 4.21671 0
M  V30 5892 S 544.042 0.547275 5.32696 0
M  V30 5893 C 545.198 -0.529019 6.2366 0
M  V30 5894 H 545.431 0.524583 2.92635 0
M  V30 5895 H 542.964 0.388537 1.49431 0
M  V30 5896 H 544.922 -1.86138 3.65873 0
M  V30 5897 H 543.583 -1.91243 2.49169 0
M  V30 5898 H 542.776 -1.44903 4.8272 0
M  V30 5899 H 542.378 -0.0995558 3.73867 0
M  V30 5900 H 544.67 -1.40981 6.62669 0
M  V30 5901 H 545.613 0.0451599 7.08086 0
M  V30 5902 H 546.021 -0.84147 5.58193 0
M  V30 5903 N 545.419 -1.53889 0.339982 0
M  V30 5904 C 546.644 -2.05741 -0.261798 0
M  V30 5905 C 547.069 -1.21354 -1.43718 0
M  V30 5906 O 546.427 -0.22645 -1.7988 0
M  V30 5907 C 546.475 -3.54542 -0.658228 0
M  V30 5908 O 545.579 -3.7302 -1.75869 0
M  V30 5909 H 544.92 -0.662529 -0.0441672 0
M  V30 5910 H 547.45 -1.98568 0.493161 0
M  V30 5911 H 547.46 -3.9711 -0.936368 0
M  V30 5912 H 546.135 -4.15412 0.201358 0
M  V30 5913 H 544.712 -3.42355 -1.47809 0
M  V30 5914 N 546.897 -0.0685191 -1.57451 0
M  V30 5915 C 548.313 0.288101 -1.56978 0
M  V30 5916 C 548.513 1.70262 -1.07765 0
M  V30 5917 O 547.569 2.4135 -0.742054 0
M  V30 5918 C 548.882 0.100745 -3.00531 0
M  V30 5919 C 550.43 0.170531 -3.12535 0
M  V30 5920 C 550.905 0.0114944 -4.57999 0
M  V30 5921 N 552.396 0.0672065 -4.63151 0
M  V30 5922 C 553.131 -0.0314813 -5.73391 0
M  V30 5923 N 552.627 -0.183503 -6.92557 0
M  V30 5924 N 554.42 0.0253489 -5.62094 0
M  V30 5925 H 546.571 -0.993026 -1.87757 0
M  V30 5926 H 548.834 -0.386981 -0.865419 0
M  V30 5927 H 548.54 -0.875197 -3.40636 0
M  V30 5928 H 548.414 0.854457 -3.67395 0
M  V30 5929 H 550.801 1.13696 -2.72318 0
M  V30 5930 H 550.882 -0.614229 -2.48316 0
M  V30 5931 H 550.526 -0.951684 -4.98904 0
M  V30 5932 H 550.456 0.815617 -5.20245 0
M  V30 5933 H 552.947 0.183246 -3.77455 0
M  V30 5934 H 553.26 -0.251041 -7.72392 0
M  V30 5935 H 551.605 -0.218822 -6.94655 0
M  V30 5936 H 554.796 0.142794 -4.67882 0
M  V30 5937 H 554.969 -0.0550166 -6.47977 0
M  V30 5938 N 548.375 1.56261 0.205012 0
M  V30 5939 C 549.603 1.84141 0.943386 0
M  V30 5940 C 550.018 0.649772 1.77266 0
M  V30 5941 O 549.375 -0.381612 1.78466 0
M  V30 5942 C 549.426 3.10719 1.84759 0
M  V30 5943 O 549.147 4.25286 1.05181 0
M  V30 5944 C 550.648 3.51706 2.69848 0
M  V30 5945 H 547.868 0.611734 0.275721 0
M  V30 5946 H 550.412 2.03364 0.215253 0
M  V30 5947 H 548.567 2.93422 2.52947 0
M  V30 5948 H 548.981 4.97301 1.66709 0
M  V30 5949 H 550.455 4.43266 3.28967 0
M  V30 5950 H 550.932 2.7423 3.43067 0
M  V30 5951 H 551.538 3.71499 2.07047 0
M  V30 5952 N 549.853 -0.472356 1.50355 0
M  V30 5953 C 551.078 -1.25251 1.65309 0
M  V30 5954 C 551.503 -1.85081 0.335643 0
M  V30 5955 O 550.861 -1.67227 -0.700335 0
M  V30 5956 C 550.909 -2.3379 2.74544 0
M  V30 5957 O 550.013 -3.38401 2.35709 0
M  V30 5958 H 549.354 -0.368539 0.552336 0
M  V30 5959 H 551.884 -0.562271 1.96722 0
M  V30 5960 H 551.894 -2.79121 2.97583 0
M  V30 5961 H 550.569 -1.89614 3.70161 0
M  V30 5962 H 549.146 -2.9879 2.23112 0
M  V30 5963 N 551.331 -1.39911 -0.725443 0
M  V30 5964 C 552.278 -1.39393 -1.83952 0
M  V30 5965 C 553.248 -0.252249 -1.64173 0
M  V30 5966 O 554.433 -0.44882 -1.85446 0
M  V30 5967 C 551.573 -1.25262 -3.21564 0
M  V30 5968 C 550.686 -2.49054 -3.52982 0
M  V30 5969 C 549.821 -2.27439 -4.80047 0
M  V30 5970 C 548.86 -3.46857 -5.04338 0
M  V30 5971 N 547.997 -3.24499 -6.22611 0
M  V30 5972 H 552.837 -2.34622 -1.83729 0
M  V30 5973 H 550.374 -1.16537 -0.897636 0
M  V30 5974 H 552.332 -1.15077 -4.01015 0
M  V30 5975 H 550.962 -0.33657 -3.21041 0
M  V30 5976 H 550.014 -2.69805 -2.6816 0
M  V30 5977 H 551.326 -3.37973 -3.66846 0
M  V30 5978 H 550.48 -2.14551 -5.67497 0
M  V30 5979 H 549.219 -1.35929 -4.68374 0
M  V30 5980 H 548.224 -3.60232 -4.15346 0
M  V30 5981 H 549.449 -4.3928 -5.17889 0
M  V30 5982 H 547.395 -2.35663 -6.12208 0
M  V30 5983 H 547.312 -4.06978 -6.37106 0
M  V30 5984 H 548.58 -3.15325 -7.12875 0
M  V30 5985 N 552.809 0.956637 -1.25245 0
M  V30 5986 C 554.034 1.74104 -1.12706 0
M  V30 5987 C 554.459 1.85436 0.315429 0
M  V30 5988 O 553.817 1.33334 1.22848 0
M  V30 5989 C 553.865 3.1338 -1.78396 0
M  V30 5990 O 552.969 3.98485 -1.06224 0
M  V30 5991 H 552.31 0.53476 -0.393609 0
M  V30 5992 H 554.84 1.19924 -1.65769 0
M  V30 5993 H 554.85 3.6385 -1.846 0
M  V30 5994 H 553.525 3.04448 -2.83345 0
M  V30 5995 H 552.102 3.56952 -1.07886 0
M  V30 5996 N 554.287 1.06798 1.15896 0
M  V30 5997 C 555.234 0.683314 2.20453 0
M  V30 5998 C 556.204 -0.32255 1.62938 0
M  V30 5999 O 557.389 -0.210276 1.89638 0
M  V30 6000 C 554.529 0.0813266 3.45004 0
M  V30 6001 C 553.642 1.13799 4.16742 0
M  V30 6002 C 552.777 0.501598 5.28826 0
M  V30 6003 C 551.816 1.54144 5.92373 0
M  V30 6004 N 550.953 0.928038 6.9594 0
M  V30 6005 H 555.793 1.57932 2.52708 0
M  V30 6006 H 553.33 0.789544 1.24115 0
M  V30 6007 H 555.288 -0.285274 4.16224 0
M  V30 6008 H 553.918 -0.77806 3.13283 0
M  V30 6009 H 552.97 1.62223 3.44075 0
M  V30 6010 H 554.282 1.92664 4.60089 0
M  V30 6011 H 553.436 0.0823162 6.06644 0
M  V30 6012 H 552.175 -0.318883 4.86656 0
M  V30 6013 H 551.18 1.97056 5.13273 0
M  V30 6014 H 552.405 2.3641 6.36621 0
M  V30 6015 H 550.351 0.12836 6.55874 0
M  V30 6016 H 550.268 1.65401 7.37685 0
M  V30 6017 H 551.536 0.534071 7.77668 0
M  V30 6018 N 555.766 -1.3263 0.851289 0
M  V30 6019 C 556.991 -2.02097 0.466006 0
M  V30 6020 C 557.416 -1.63574 -0.928709 0
M  V30 6021 O 556.774 -0.834665 -1.60944 0
M  V30 6022 C 556.822 -3.55425 0.608737 0
M  V30 6023 O 555.926 -4.10827 -0.359878 0
M  V30 6024 H 555.267 -0.636911 0.187724 0
M  V30 6025 H 557.797 -1.69253 1.14955 0
M  V30 6026 H 557.807 -4.04986 0.495006 0
M  V30 6027 H 556.482 -3.82806 1.62581 0
M  V30 6028 H 555.059 -3.72349 -0.202666 0
M  V30 6029 N 557.244 -0.608902 -1.45362 0
M  V30 6030 C 558.492 -0.104401 -2.0183 0
M  V30 6031 C 558.813 1.27007 -1.47967 0
M  V30 6032 O 558.083 1.83924 -0.674455 0
M  V30 6033 H 556.663 -0.0356042 -0.746151 0
M  V30 6034 H 559.325 -0.790596 -1.78145 0
M  V30 6035 H 558.421 -0.0551793 -3.12051 0
M  V30 6036 N 558.722 1.53707 -0.348139 0
M  V30 6037 C 559.947 2.05877 0.250883 0
M  V30 6038 C 560.372 1.22115 1.43072 0
M  V30 6039 O 559.73 0.235986 1.79758 0
M  V30 6040 C 559.778 3.54886 0.639416 0
M  V30 6041 O 558.882 3.73948 1.73888 0
M  V30 6042 H 558.223 0.662754 0.040653 0
M  V30 6043 H 560.753 1.98303 -0.503685 0
M  V30 6044 H 560.763 3.97601 0.915295 0
M  V30 6045 H 559.438 4.153 -0.223386 0
M  V30 6046 H 558.015 3.43134 1.45991 0
M  V30 6047 N 560.2 0.0768682 1.57412 0
M  V30 6048 C 561.425 -0.603404 1.98428 0
M  V30 6049 C 561.85 -1.62047 0.955108 0
M  V30 6050 O 561.208 -1.81129 -0.0786778 0
M  V30 6051 C 561.256 -1.24396 3.38464 0
M  V30 6052 O 560.36 -2.35982 3.3821 0
M  V30 6053 H 559.701 -0.154741 0.645718 0
M  V30 6054 H 562.231 0.152885 2.04028 0
M  V30 6055 H 562.241 -1.5896 3.7576 0
M  V30 6056 H 560.916 -0.498735 4.12899 0
M  V30 6057 H 559.493 -2.03173 3.1269 0
M  V30 6058 N 561.678 -1.56367 -0.196722 0
M  V30 6059 C 563.094 -1.49916 -0.54749 0
M  V30 6060 C 563.294 -0.77659 -1.85934 0
M  V30 6061 O 562.35 -0.32644 -2.50381 0
M  V30 6062 C 563.663 -2.94577 -0.603734 0
M  V30 6063 C 565.211 -3.05239 -0.692677 0
M  V30 6064 C 565.686 -4.51308 -0.780046 0
M  V30 6065 N 567.177 -4.55453 -0.843616 0
M  V30 6066 C 567.912 -5.65786 -0.931358 0
M  V30 6067 N 567.408 -6.85812 -0.981503 0
M  V30 6068 N 569.201 -5.53695 -0.968421 0
M  V30 6069 H 561.352 -2.01761 0.663803 0
M  V30 6070 H 563.615 -0.918094 0.236238 0
M  V30 6071 H 563.321 -3.50494 0.29105 0
M  V30 6072 H 563.195 -3.47841 -1.45898 0
M  V30 6073 H 565.582 -2.49372 -1.57789 0
M  V30 6074 H 565.663 -2.55103 0.188736 0
M  V30 6075 H 565.307 -5.078 0.100811 0
M  V30 6076 H 565.237 -4.99176 -1.67724 0
M  V30 6077 H 567.728 -3.69025 -0.814176 0
M  V30 6078 H 568.041 -7.65648 -1.04892 0
M  V30 6079 H 566.386 -6.88474 -0.950208 0
M  V30 6080 H 569.577 -4.58848 -0.926072 0
M  V30 6081 H 569.75 -6.39708 -1.03334 0
M  V30 6082 N 563.156 0.464375 -1.50603 0
M  V30 6083 C 564.104 1.58224 -1.70493 0
M  V30 6084 C 565.098 1.59492 -0.570836 0
M  V30 6085 O 566.304 1.63561 -0.751517 0
M  V30 6086 H 562.679 0.525161 -0.538247 0
M  V30 6087 H 564.65 1.38613 -2.64252 0
M  V30 6088 C 563.399 2.96113 -1.82243 0
M  V30 6089 H 562.722 2.95858 -2.68901 0
M  V30 6090 H 564.162 3.73769 -2.00182 0
M  V30 6091 C 562.621 3.31946 -0.575628 0
M  V30 6092 O 563.151 4.00708 0.282152 0
M  V30 6093 N 561.357 2.87436 -0.427665 0
M  V30 6094 H 560.904 2.31652 -1.12674 0
M  V30 6095 H 560.862 3.11776 0.405379 0
M  V30 6096 N 564.634 1.40294 0.718013 0
M  V30 6097 C 565.564 1.43118 1.84498 0
M  V30 6098 C 566.545 0.292403 1.67568 0
M  V30 6099 O 567.73 0.500675 1.87635 0
M  V30 6100 C 564.86 1.29065 3.22427 0
M  V30 6101 C 563.814 2.40521 3.54025 0
M  V30 6102 C 563.14 2.11546 4.91073 0
M  V30 6103 C 564.44 3.82859 3.55269 0
M  V30 6104 H 566.134 2.37432 1.82391 0
M  V30 6105 H 563.68 1.14283 0.87609 0
M  V30 6106 H 565.633 1.29658 4.00957 0
M  V30 6107 H 564.357 0.312271 3.25104 0
M  V30 6108 H 563.016 2.39173 2.77834 0
M  V30 6109 H 562.664 1.12104 4.90348 0
M  V30 6110 H 562.364 2.86216 5.1318 0
M  V30 6111 H 563.888 2.13817 5.71939 0
M  V30 6112 H 565.302 3.86044 4.23843 0
M  V30 6113 H 563.699 4.57029 3.88902 0
M  V30 6114 H 564.769 4.12617 2.54706 0
M  V30 6115 N 566.112 -0.949982 1.2575 0
M  V30 6116 C 567.042 -2.06483 1.09028 0
M  V30 6117 C 568.023 -1.701 -0.00201532 0
M  V30 6118 O 569.208 -1.93469 0.168383 0
M  V30 6119 C 566.338 -3.39899 0.71316 0
M  V30 6120 C 565.292 -3.90309 1.75621 0
M  V30 6121 C 564.618 -5.20274 1.23365 0
M  V30 6122 C 565.918 -4.16169 3.15596 0
M  V30 6123 H 567.612 -2.20731 2.02283 0
M  V30 6124 H 565.158 -1.06066 0.973964 0
M  V30 6125 H 567.111 -4.17346 0.58309 0
M  V30 6126 H 565.835 -3.25602 -0.255091 0
M  V30 6127 H 564.494 -3.15035 1.8748 0
M  V30 6128 H 564.142 -5.02351 0.255491 0
M  V30 6129 H 563.842 -5.54971 1.93082 0
M  V30 6130 H 565.366 -6.00314 1.11607 0
M  V30 6131 H 566.78 -4.84259 3.06864 0
M  V30 6132 H 565.177 -4.62131 3.82825 0
M  V30 6133 H 566.247 -3.22273 3.6231 0
M  V30 6134 N 567.59 -1.07411 -1.15328 0
M  V30 6135 C 568.537 -0.694995 -2.20087 0
M  V30 6136 C 569.507 0.313904 -1.63107 0
M  V30 6137 O 570.692 0.200216 -1.89747 0
M  V30 6138 C 567.832 -0.0996218 -3.44956 0
M  V30 6139 C 566.945 -1.16007 -4.16133 0
M  V30 6140 C 566.08 -0.529636 -5.28553 0
M  V30 6141 C 565.119 -1.57283 -5.91548 0
M  V30 6142 N 564.256 -0.964932 -6.95438 0
M  V30 6143 H 569.096 -1.5927 -2.51867 0
M  V30 6144 H 566.633 -0.796115 -1.23695 0
M  V30 6145 H 568.591 0.263197 -4.16369 0
M  V30 6146 H 567.221 0.761435 -3.13691 0
M  V30 6147 H 566.273 -1.64045 -3.4321 0
M  V30 6148 H 567.585 -1.95101 -4.59061 0
M  V30 6149 H 566.739 -0.114487 -6.06592 0
M  V30 6150 H 565.478 0.29307 -4.86819 0
M  V30 6151 H 564.483 -1.99775 -5.12221 0
M  V30 6152 H 565.708 -2.39783 -6.35359 0
M  V30 6153 H 563.654 -0.16314 -6.55797 0
M  V30 6154 H 563.571 -1.69311 -7.36797 0
M  V30 6155 H 564.839 -0.575305 -7.77374 0
M  V30 6156 N 569.068 1.32177 -0.85831 0
M  V30 6157 C 570.296 2.01313 -0.477582 0
M  V30 6158 C 570.711 1.6449 0.926736 0
M  V30 6159 O 570.068 0.868096 1.60531 0
M  V30 6160 C 570.119 3.56293 -0.611337 0
M  V30 6161 O 569.84 3.91794 -1.96034 0
M  V30 6162 C 571.341 4.42702 -0.230093 0
M  V30 6163 H 568.561 0.644323 -0.187322 0
M  V30 6164 H 571.105 1.68674 -1.15626 0
M  V30 6165 H 569.26 3.87395 0.0196494 0
M  V30 6166 H 569.674 4.86513 -1.95973 0
M  V30 6167 H 571.148 5.50727 -0.374674 0
M  V30 6168 H 571.625 4.3129 0.829779 0
M  V30 6169 H 572.231 4.16997 -0.836302 0
M  V30 6170 N 570.547 0.616602 1.45037 0
M  V30 6171 C 571.824 0.0469086 1.95544 0
M  V30 6172 C 572.204 -1.42345 1.55888 0
M  V30 6173 O 571.552 -2.13055 0.825824 0
M  V30 6174 C 571.762 0.254489 3.48071 0
M  V30 6175 C 573.11 0.140025 4.24369 0
M  V30 6176 O 574.134 0.185084 3.55719 0
M  V30 6177 O 572.993 0.0327034 5.4649 0
M  V30 6178 H 570.087 -0.0306051 0.826433 0
M  V30 6179 H 572.633 0.687293 1.55159 0
M  V30 6180 H 571.405 1.27532 3.69934 0
M  V30 6181 H 571.028 -0.42073 3.95368 0
M  V30 6182 N 572.025 -1.5352 0.356285 0
M  V30 6183 C 573.302 -1.93405 -0.292223 0
M  V30 6184 C 573.682 -1.28901 -1.67176 0
M  V30 6185 O 573.03 -0.444632 -2.24132 0
M  V30 6186 C 573.24 -3.47223 -0.35175 0
M  V30 6187 C 574.588 -4.20389 -0.596534 0
M  V30 6188 O 575.612 -3.53554 -0.433344 0
M  V30 6189 O 574.471 -5.3881 -0.913589 0
M  V30 6190 H 571.565 -0.808666 -0.173172 0
M  V30 6191 H 574.111 -1.64713 0.408391 0
M  V30 6192 H 572.883 -3.86423 0.615841 0
M  V30 6193 H 572.506 -3.8212 -1.09864 0
M  V30 6194 N 573.503 -0.0852151 -1.57369 0
M  V30 6195 C 574.433 0.874556 -2.16503 0
M  V30 6196 C 575.414 1.30111 -1.09568 0
M  V30 6197 O 576.599 1.36977 -1.37662 0
M  V30 6198 C 573.729 2.13731 -2.73745 0
M  V30 6199 C 572.683 1.84971 -3.85966 0
M  V30 6200 C 572.009 3.17991 -4.29867 0
M  V30 6201 C 573.309 1.14442 -5.09608 0
M  V30 6202 H 575.003 0.381899 -2.96954 0
M  V30 6203 H 572.549 0.18225 -1.42842 0
M  V30 6204 H 574.502 2.81302 -3.13763 0
M  V30 6205 H 573.226 2.65263 -1.90534 0
M  V30 6206 H 571.885 1.19801 -3.46473 0
M  V30 6207 H 571.533 3.6739 -3.4356 0
M  V30 6208 H 571.233 2.99534 -5.05523 0
M  V30 6209 H 572.757 3.86737 -4.72511 0
M  V30 6210 H 574.171 1.72105 -5.46857 0
M  V30 6211 H 572.568 1.06197 -5.90629 0
M  V30 6212 H 573.638 0.12559 -4.84737 0
M  V30 6213 N 574.981 1.5647 0.188427 0
M  V30 6214 C 576.206 1.85486 0.927891 0
M  V30 6215 C 576.631 0.669575 1.75779 0
M  V30 6216 O 575.989 -0.381573 1.77239 0
M  V30 6217 C 576.037 3.12784 1.7944 0
M  V30 6218 O 575.141 2.93805 2.894 0
M  V30 6219 H 574.482 0.610585 0.260925 0
M  V30 6220 H 577.012 2.037 0.191729 0
M  V30 6221 H 577.022 3.43749 2.19774 0
M  V30 6222 H 575.697 3.98671 1.18468 0
M  V30 6223 H 574.274 2.74153 2.52774 0
M  V30 6224 N 576.459 -0.456382 1.50847 0
M  V30 6225 C 577.407 -1.57318 1.71329 0
M  V30 6226 C 578.401 -1.59187 0.579287 0
M  V30 6227 O 579.607 -1.6316 0.76018 0
M  V30 6228 H 575.982 -0.5223 0.541024 0
M  V30 6229 H 577.953 -1.3721 2.64983 0
M  V30 6230 C 576.702 -2.95142 1.83811 0
M  V30 6231 H 576.025 -2.94428 2.70467 0
M  V30 6232 H 577.465 -3.72702 2.02161 0
M  V30 6233 C 575.924 -3.31636 0.593224 0
M  V30 6234 O 576.454 -4.00852 -0.260898 0
M  V30 6235 N 574.66 -2.87205 0.442902 0
M  V30 6236 H 574.207 -2.31051 1.13901 0
M  V30 6237 H 574.165 -3.11986 -0.38884 0
M  V30 6238 N 577.937 -1.40673 -0.710563 0
M  V30 6239 C 579.214 -1.29718 -1.46398 0
M  V30 6240 C 579.594 0.082177 -2.1094 0
M  V30 6241 O 578.942 1.09536 -2.00534 0
M  V30 6242 C 579.152 -2.43967 -2.49562 0
M  V30 6243 C 580.5 -2.84436 -3.15248 0
M  V30 6244 O 581.524 -2.43597 -2.59883 0
M  V30 6245 O 580.383 -3.55008 -4.1549 0
M  V30 6246 H 577.477 -0.509697 -0.651258 0
M  V30 6247 H 580.023 -1.52603 -0.742312 0
M  V30 6248 H 578.795 -3.36076 -2.0042 0
M  V30 6249 H 578.418 -2.22879 -3.29258 0
M  V30 6250 N 579.415 0.9433 -1.26252 0
M  V30 6251 C 580.661 1.69175 -1.11837 0
M  V30 6252 C 580.994 1.91238 0.337891 0
M  V30 6253 O 580.269 1.49152 1.24836 0
M  V30 6254 C 580.552 3.06783 -1.88563 0
M  V30 6255 C 580.405 2.9206 -3.42083 0
M  V30 6256 C 581.724 4.06865 -1.67776 0
M  V30 6257 H 578.843 0.61399 -0.407658 0
M  V30 6258 H 581.485 1.09572 -1.55222 0
M  V30 6259 H 579.635 3.57663 -1.51689 0
M  V30 6260 H 581.307 2.48419 -3.88698 0
M  V30 6261 H 579.55 2.27731 -3.69217 0
M  V30 6262 H 580.221 3.89651 -3.90994 0
M  V30 6263 H 582.697 3.64939 -1.99897 0
M  V30 6264 H 581.573 5.01168 -2.23879 0
M  V30 6265 H 581.834 4.37705 -0.621816 0
M  V30 6266 N 580.893 1.08022 1.14757 0
M  V30 6267 C 582.133 0.816959 1.87364 0
M  V30 6268 C 582.497 -0.645407 1.80827 0
M  V30 6269 O 583.698 -1.024 2.48531 0
M  V30 6270 C 581.969 1.31961 3.32146 0
M  V30 6271 S 583.528 1.18806 4.2241 0
M  V30 6272 H 580.346 0.295862 0.646519 0
M  V30 6273 H 582.948 1.3807 1.38408 0
M  V30 6274 H 581.652 2.37847 3.3445 0
M  V30 6275 H 581.183 0.751371 3.86158 0
M  V30 6276 H 583.198 0.129865 4.9603 0
M  V30 6277 N 582.371 -1.3172 0.865308 0
M  V30 6278 C 583.334 -2.26918 0.322627 0
M  V30 6279 C 584.334 -1.52031 -0.523751 0
M  V30 6280 O 585.524 -1.70973 -0.333727 0
M  V30 6281 C 582.656 -3.36558 -0.542338 0
M  V30 6282 H 583.849 -2.76432 1.16298 0
M  V30 6283 H 581.402 -1.42573 0.640512 0
M  V30 6284 H 582.137 -2.92329 -1.40407 0
M  V30 6285 H 581.922 -3.92048 0.0636395 0
M  V30 6286 H 583.412 -4.07465 -0.91446 0
M  V30 6287 N 583.85 -0.624285 -1.44708 0
M  V30 6288 C 585.096 -0.126237 -2.02407 0
M  V30 6289 C 585.428 1.24618 -1.48943 0
M  V30 6290 O 584.704 1.82569 -0.670742 0
M  V30 6291 C 584.986 -0.105449 -3.59946 0
M  V30 6292 C 584.84 -1.50972 -4.23707 0
M  V30 6293 C 586.159 0.573629 -4.36346 0
M  V30 6294 H 583.278 -0.0473472 -0.735478 0
M  V30 6295 H 585.92 -0.799452 -1.72362 0
M  V30 6296 H 584.07 0.46783 -3.85673 0
M  V30 6297 H 585.742 -2.13136 -4.0911 0
M  V30 6298 H 583.985 -2.0656 -3.81465 0
M  V30 6299 H 584.656 -1.44727 -5.32689 0
M  V30 6300 H 587.132 0.0861787 -4.16011 0
M  V30 6301 H 586.008 0.557338 -5.46063 0
M  V30 6302 H 586.269 1.64276 -4.10446 0
M  V30 6303 N 585.328 1.53329 -0.364422 0
M  V30 6304 C 586.258 2.28627 0.474543 0
M  V30 6305 C 587.239 1.31009 1.08492 0
M  V30 6306 O 588.424 1.59878 1.10239 0
M  V30 6307 C 585.554 3.07465 1.61501 0
M  V30 6308 C 584.508 4.1276 1.13194 0
M  V30 6309 C 583.834 4.79674 2.36255 0
M  V30 6310 C 585.134 5.21847 0.217507 0
M  V30 6311 H 586.828 2.99005 -0.153656 0
M  V30 6312 H 584.374 1.43803 -0.0753406 0
M  V30 6313 H 586.327 3.58889 2.20855 0
M  V30 6314 H 585.051 2.34775 2.27042 0
M  V30 6315 H 583.71 3.62281 0.56109 0
M  V30 6316 H 583.358 4.03557 3.00251 0
M  V30 6317 H 583.058 5.50827 2.04606 0
M  V30 6318 H 584.582 5.33892 2.96297 0
M  V30 6319 H 585.996 5.6878 0.718493 0
M  V30 6320 H 584.393 6.00099 -0.00806408 0
M  V30 6321 H 585.463 4.7921 -0.740653 0
M  V30 6322 N 586.806 0.0935595 1.57322 0
M  V30 6323 C 587.753 -0.865935 2.1394 0
M  V30 6324 C 588.723 -1.28083 1.05754 0
M  V30 6325 O 589.908 -1.36285 1.33533 0
M  V30 6326 C 587.048 -2.12023 2.72287 0
M  V30 6327 C 586.161 -1.756 3.94701 0
M  V30 6328 C 585.296 -2.95804 4.41218 0
M  V30 6329 C 584.335 -2.555 5.56225 0
M  V30 6330 N 583.472 -3.68534 5.97601 0
M  V30 6331 H 588.312 -0.376261 2.95615 0
M  V30 6332 H 585.849 -0.174052 1.46067 0
M  V30 6333 H 587.807 -2.85477 3.04235 0
M  V30 6334 H 586.437 -2.58492 1.93343 0
M  V30 6335 H 585.489 -0.921208 3.69077 0
M  V30 6336 H 586.801 -1.41964 4.78171 0
M  V30 6337 H 585.955 -3.77513 4.74941 0
M  V30 6338 H 584.694 -3.32649 3.56645 0
M  V30 6339 H 583.699 -1.72218 5.22131 0
M  V30 6340 H 584.924 -2.19801 6.42545 0
M  V30 6341 H 582.87 -4.051 5.15974 0
M  V30 6342 H 582.787 -3.38737 6.75865 0
M  V30 6343 H 584.055 -4.50757 6.35955 0
M  V30 6344 N 588.284 -1.56567 -0.180126 0
M  V30 6345 C 589.214 -1.98753 -1.22553 0
M  V30 6346 C 590.195 -0.86175 -1.46656 0
M  V30 6347 O 591.38 -1.12719 -1.58139 0
M  V30 6348 C 588.51 -2.33988 -2.56645 0
M  V30 6349 C 587.464 -3.49445 -2.47128 0
M  V30 6350 C 586.79 -3.70397 -3.8563 0
M  V30 6351 C 588.09 -4.83171 -1.98352 0
M  V30 6352 H 589.784 -2.86332 -0.874896 0
M  V30 6353 H 587.33 -1.37757 -0.419414 0
M  V30 6354 H 589.283 -2.62097 -3.29974 0
M  V30 6355 H 588.007 -1.43309 -2.93479 0
M  V30 6356 H 586.666 -3.2145 -1.76254 0
M  V30 6357 H 586.314 -2.77023 -4.19842 0
M  V30 6358 H 586.014 -4.48077 -3.80132 0
M  V30 6359 H 587.538 -4.00897 -4.60558 0
M  V30 6360 H 588.952 -5.10213 -2.61449 0
M  V30 6361 H 587.349 -5.64425 -2.03823 0
M  V30 6362 H 588.419 -4.75753 -0.937402 0
M  V30 6363 N 589.762 0.448376 -1.51087 0
M  V30 6364 C 591.039 1.20926 -1.53741 0
M  V30 6365 C 591.419 2.09025 -0.295222 0
M  V30 6366 O 590.767 2.16851 0.720283 0
M  V30 6367 C 590.977 2.02067 -2.84552 0
M  V30 6368 C 592.325 2.59486 -3.36084 0
M  V30 6369 O 593.349 2.12289 -2.86028 0
M  V30 6370 O 592.208 3.45539 -4.23397 0
M  V30 6371 H 589.302 0.549951 -0.617643 0
M  V30 6372 H 591.848 0.458344 -1.63393 0
M  V30 6373 H 590.62 1.37291 -3.66425 0
M  V30 6374 H 590.243 2.84246 -2.78011 0
M  V30 6375 N 591.24 1.41047 0.703093 0
M  V30 6376 C 592.188 1.42494 1.83843 0
M  V30 6377 C 593.182 0.303885 1.66652 0
M  V30 6378 O 594.388 0.475544 1.73605 0
M  V30 6379 H 590.763 0.445685 0.605697 0
M  V30 6380 H 592.734 2.38194 1.79739 0
M  V30 6381 C 591.483 1.31666 3.21807 0
M  V30 6382 H 590.806 2.17212 3.35647 0
M  V30 6383 H 592.246 1.36738 4.01346 0
M  V30 6384 C 590.705 0.0281828 3.36888 0
M  V30 6385 O 591.235 -0.929995 3.90786 0
M  V30 6386 N 589.441 -0.0454322 2.90564 0
M  V30 6387 H 588.988 0.735046 2.4689 0
M  V30 6388 H 588.946 -0.906968 3.01034 0
M  V30 6389 N 592.718 -0.936591 1.26751 0
M  V30 6390 C 593.946 -1.71758 1.15355 0
M  V30 6391 C 594.361 -1.86549 -0.290683 0
M  V30 6392 O 593.718 -1.37616 -1.19868 0
M  V30 6393 C 593.769 -3.12193 1.82258 0
M  V30 6394 O 593.49 -2.98105 3.21038 0
M  V30 6395 C 594.991 -4.06485 1.76875 0
M  V30 6396 H 592.211 -0.537636 0.401483 0
M  V30 6397 H 594.755 -1.17382 1.67457 0
M  V30 6398 H 592.91 -3.63456 1.34083 0
M  V30 6399 H 593.324 -3.86824 3.54214 0
M  V30 6400 H 594.798 -5.02569 2.28316 0
M  V30 6401 H 595.275 -4.32986 0.736216 0
M  V30 6402 H 595.881 -3.61144 2.24623 0
M  V30 6403 N 594.196 -1.08629 -1.14182 0
M  V30 6404 C 595.442 -0.818556 -1.85546 0
M  V30 6405 C 595.775 0.654076 -1.82854 0
M  V30 6406 O 595.05 1.48099 -1.26083 0
M  V30 6407 C 595.333 -1.34397 -3.3408 0
M  V30 6408 C 595.186 -2.8821 -3.45333 0
M  V30 6409 C 596.505 -0.971069 -4.29253 0
M  V30 6410 H 593.624 -0.298821 -0.673702 0
M  V30 6411 H 596.266 -1.34629 -1.34071 0
M  V30 6412 H 594.416 -0.895064 -3.78049 0
M  V30 6413 H 596.088 -3.41488 -3.10134 0
M  V30 6414 H 594.331 -3.25756 -2.86471 0
M  V30 6415 H 595.002 -3.20047 -4.49749 0
M  V30 6416 H 597.478 -1.35809 -3.93313 0
M  V30 6417 H 596.354 -1.36586 -5.31635 0
M  V30 6418 H 596.615 0.121659 -4.41933 0
M  V30 6419 N 595.674 1.31259 -0.872281 0
M  V30 6420 C 596.92 1.96913 -0.485083 0
M  V30 6421 C 597.253 1.68774 0.960667 0
M  V30 6422 O 596.528 0.985495 1.67685 0
M  V30 6423 C 596.811 3.52299 -0.745502 0
M  V30 6424 C 596.664 3.90002 -2.24095 0
M  V30 6425 C 597.983 4.39582 -0.213516 0
M  V30 6426 H 595.102 0.715252 -0.177716 0
M  V30 6427 H 597.744 1.55347 -1.09395 0
M  V30 6428 H 595.894 3.87835 -0.227276 0
M  V30 6429 H 597.566 3.64555 -2.82661 0
M  V30 6430 H 595.809 3.38526 -2.71261 0
M  V30 6431 H 596.48 4.98352 -2.37381 0
M  V30 6432 H 598.956 4.10882 -0.656902 0
M  V30 6433 H 597.832 5.47251 -0.42516 0
M  V30 6434 H 598.093 4.33158 0.884666 0
M  V30 6435 N 597.152 0.631951 1.44375 0
M  V30 6436 C 598.4 0.136497 2.01639 0
M  V30 6437 C 598.721 -1.24637 1.49969 0
M  V30 6438 O 597.991 -1.82827 0.70363 0
M  V30 6439 H 596.571 0.0474703 0.74549 0
M  V30 6440 H 599.233 0.818837 1.76865 0
M  V30 6441 H 598.329 0.104817 3.11924 0
M  V30 6442 N 598.631 -1.53133 0.372548 0
M  V30 6443 C 599.563 -2.23557 -0.505444 0
M  V30 6444 C 600.576 -1.25211 -1.04049 0
M  V30 6445 O 601.765 -1.51391 -0.945675 0
M  V30 6446 C 598.865 -2.92516 -1.71136 0
M  V30 6447 C 598.038 -4.17428 -1.30661 0
M  V30 6448 C 597.097 -4.69535 -2.37536 0
M  V30 6449 O 596.123 -5.33042 -1.99637 0
M  V30 6450 N 597.325 -4.47947 -3.6922 0
M  V30 6451 H 600.09 -2.9954 0.0978259 0
M  V30 6452 H 597.651 -1.60684 0.198068 0
M  V30 6453 H 599.643 -3.24281 -2.42124 0
M  V30 6454 H 598.213 -2.19944 -2.22134 0
M  V30 6455 H 597.433 -3.91888 -0.426292 0
M  V30 6456 H 598.721 -4.98622 -1.01259 0
M  V30 6457 H 598.119 -3.97219 -4.02783 0
M  V30 6458 H 596.676 -4.84245 -4.36292 0
M  V30 6459 N 600.109 -0.101901 -1.5727 0
M  V30 6460 C 601.337 0.568392 -1.98939 0
M  V30 6461 C 601.752 1.61301 -0.981194 0
M  V30 6462 O 601.109 1.82478 0.0282869 0
M  V30 6463 C 601.16 1.20997 -3.40649 0
M  V30 6464 O 600.881 0.207129 -4.3761 0
M  V30 6465 C 602.382 1.96523 -3.97358 0
M  V30 6466 H 599.602 0.15186 -0.65359 0
M  V30 6467 H 602.146 -0.183198 -2.03678 0
M  V30 6468 H 600.301 1.91245 -3.36904 0
M  V30 6469 H 600.715 0.671071 -5.20189 0
M  V30 6470 H 602.189 2.36764 -4.98645 0
M  V30 6471 H 602.666 2.83376 -3.35552 0
M  V30 6472 H 603.272 1.31076 -4.04598 0
M  V30 6473 N 601.587 1.56661 0.17182 0
M  V30 6474 C 602.812 1.86459 0.908165 0
M  V30 6475 C 603.237 0.688181 1.75059 0
M  V30 6476 O 602.595 -0.362753 1.77634 0
M  V30 6477 C 602.643 3.14669 1.76112 0
M  V30 6478 O 601.747 2.96858 2.86268 0
M  V30 6479 H 601.088 0.613318 0.254434 0
M  V30 6480 H 603.618 2.03892 0.170113 0
M  V30 6481 H 603.628 3.46061 2.16115 0
M  V30 6482 H 602.303 3.99905 1.14233 0
M  V30 6483 H 600.88 2.76819 2.49852 0
M  V30 6484 N 603.065 -0.440357 1.51323 0
M  V30 6485 C 604.311 -1.18874 1.65047 0
M  V30 6486 C 604.666 -1.88988 0.360742 0
M  V30 6487 O 603.959 -1.80479 -0.643272 0
M  V30 6488 C 604.153 -2.2339 2.78984 0
M  V30 6489 C 603.982 -1.63534 4.18911 0
M  V30 6490 C 602.752 -1.42158 4.84891 0
M  V30 6491 C 604.95 -1.11324 5.02107 0
M  V30 6492 N 602.932 -0.778679 6.08942 0
M  V30 6493 C 604.303 -0.595421 6.17134 0
M  V30 6494 C 606.358 -1.00471 4.87658 0
M  V30 6495 C 605.061 0.0202557 7.19297 0
M  V30 6496 C 607.087 -0.402928 5.90026 0
M  V30 6497 C 606.449 0.10436 7.04323 0
M  V30 6498 H 602.548 -0.422771 0.657866 0
M  V30 6499 H 605.132 -0.485814 1.88542 0
M  V30 6500 H 603.303 -2.91074 2.57158 0
M  V30 6501 H 605.035 -2.90366 2.81904 0
M  V30 6502 H 601.79 -1.68247 4.42707 0
M  V30 6503 H 602.214 -0.474755 6.75333 0
M  V30 6504 H 606.856 -1.38278 3.99548 0
M  V30 6505 H 604.574 0.410468 8.07057 0
M  V30 6506 H 608.16 -0.320897 5.80914 0
M  V30 6507 H 607.04 0.562697 7.82179 0
M  V30 6508 N 604.543 -1.41418 -0.695603 0
M  V30 6509 C 605.49 -1.43264 -1.80954 0
M  V30 6510 C 606.46 -0.287016 -1.63601 0
M  V30 6511 O 607.645 -0.488054 -1.84452 0
M  V30 6512 C 604.785 -1.32054 -3.18835 0
M  V30 6513 C 603.898 -2.56485 -3.4762 0
M  V30 6514 C 603.033 -2.3757 -4.75115 0
M  V30 6515 C 602.072 -3.57477 -4.96867 0
M  V30 6516 N 601.209 -3.37632 -6.15588 0
M  V30 6517 H 606.049 -2.38467 -1.78711 0
M  V30 6518 H 603.586 -1.18415 -0.872715 0
M  V30 6519 H 605.544 -1.23558 -3.98484 0
M  V30 6520 H 604.174 -0.404592 -3.20254 0
M  V30 6521 H 603.226 -2.75432 -2.62376 0
M  V30 6522 H 604.538 -3.45678 -3.59594 0
M  V30 6523 H 603.692 -2.2654 -5.62818 0
M  V30 6524 H 602.431 -1.45834 -4.65386 0
M  V30 6525 H 601.436 -3.68961 -4.07612 0
M  V30 6526 H 602.661 -4.50167 -5.08455 0
M  V30 6527 H 600.607 -2.48596 -6.07072 0
M  V30 6528 H 600.524 -4.20401 -6.2833 0
M  V30 6529 H 601.792 -3.30375 -7.06026 0
M  V30 6530 N 606.021 0.929856 -1.27246 0
M  V30 6531 C 607.432 1.49223 -1.12203 0
M  V30 6532 C 607.783 1.93989 0.293731 0
M  V30 6533 O 606.908 1.80978 1.18642 0
M  V30 6534 C 607.503 2.71198 -2.0307 0
M  V30 6535 C 606.062 3.23666 -1.92139 0
M  V30 6536 C 605.209 1.96409 -1.95752 0
M  V30 6537 H 608.16 0.744181 -1.4017 0
M  V30 6538 H 608.181 3.45905 -1.58524 0
M  V30 6539 H 607.693 2.38585 -3.06102 0
M  V30 6540 H 605.794 3.61042 -0.920834 0
M  V30 6541 H 605.907 3.90006 -2.78267 0
M  V30 6542 H 604.271 2.12806 -1.39949 0
M  V30 6543 H 605.054 1.66113 -3.00436 0
M  V30 6544 N 607.499 1.09233 1.13605 0
M  V30 6545 C 608.748 0.82205 1.84188 0
M  V30 6546 C 609.061 -0.654548 1.84323 0
M  V30 6547 O 610.267 -1.04029 2.50779 0
M  V30 6548 C 608.723 1.42066 3.30674 0
M  V30 6549 C 608.331 2.92965 3.38933 0
M  V30 6550 C 610.075 1.22924 4.06313 0
M  V30 6551 C 607.982 3.45922 4.79679 0
M  V30 6552 H 606.912 0.303854 0.690064 0
M  V30 6553 H 609.563 1.31479 1.28006 0
M  V30 6554 H 607.945 0.855613 3.86646 0
M  V30 6555 H 609.119 3.55679 2.92966 0
M  V30 6556 H 607.434 3.11118 2.76757 0
M  V30 6557 H 610.031 1.59945 5.10217 0
M  V30 6558 H 610.374 0.169726 4.15954 0
M  V30 6559 H 610.907 1.76168 3.56665 0
M  V30 6560 H 607.646 4.51484 4.75229 0
M  V30 6561 H 607.166 2.87971 5.26149 0
M  V30 6562 H 608.845 3.43009 5.48592 0
M  V30 6563 N 608.977 -1.30795 0.87923 0
M  V30 6564 C 610.202 -2.01063 0.508769 0
M  V30 6565 C 610.627 -1.65508 -0.893803 0
M  V30 6566 O 609.985 -0.868616 -1.59138 0
M  V30 6567 C 610.033 -3.54054 0.683991 0
M  V30 6568 O 609.137 -4.11498 -0.272654 0
M  V30 6569 H 608.478 -0.632786 0.201191 0
M  V30 6570 H 611.008 -1.66776 1.18519 0
M  V30 6571 H 611.018 -4.03845 0.580798 0
M  V30 6572 H 609.693 -3.79271 1.70665 0
M  V30 6573 H 608.27 -3.72695 -0.12364 0
M  V30 6574 N 610.455 -0.639598 -1.44038 0
M  V30 6575 C 611.403 0.0723409 -2.32487 0
M  V30 6576 C 612.397 0.827129 -1.47834 0
M  V30 6577 O 613.603 0.73907 -1.64127 0
M  V30 6578 H 609.978 0.0421696 -0.750817 0
M  V30 6579 H 611.949 -0.691593 -2.90275 0
M  V30 6580 C 610.698 1.03452 -3.31953 0
M  V30 6581 H 610.021 0.46315 -3.97108 0
M  V30 6582 H 611.461 1.502 -3.96505 0
M  V30 6583 C 609.92 2.12392 -2.61518 0
M  V30 6584 O 610.45 3.2059 -2.42044 0
M  V30 6585 N 608.656 1.88563 -2.21116 0
M  V30 6586 H 608.203 1.00577 -2.37154 0
M  V30 6587 H 608.161 2.61651 -1.74316 0
M  V30 6588 N 611.933 1.52934 -0.380664 0
M  V30 6589 C 612.865 2.23822 0.493581 0
M  V30 6590 C 613.878 1.25761 1.03383 0
M  V30 6591 O 615.067 1.5189 0.937633 0
M  V30 6592 C 612.167 2.9342 1.69582 0
M  V30 6593 C 611.34 4.18115 1.28445 0
M  V30 6594 C 610.399 4.70788 2.35042 0
M  V30 6595 O 609.425 5.34093 1.96807 0
M  V30 6596 N 610.627 4.49899 3.66839 0
M  V30 6597 H 613.392 2.99484 -0.11371 0
M  V30 6598 H 610.953 1.60577 -0.206587 0
M  V30 6599 H 612.945 3.2556 2.40401 0
M  V30 6600 H 611.515 2.21119 2.20965 0
M  V30 6601 H 610.735 3.92109 0.405503 0
M  V30 6602 H 612.023 4.99152 0.986132 0
M  V30 6603 H 611.421 3.99349 4.0067 0
M  V30 6604 H 609.978 4.86551 4.33718 0
M  V30 6605 N 613.412 0.11024 1.57214 0
M  V30 6606 C 614.637 -0.561179 1.99664 0
M  V30 6607 C 615.062 -1.59985 0.989266 0
M  V30 6608 O 614.42 -1.81255 -0.0402399 0
M  V30 6609 C 614.468 -1.17189 3.41027 0
M  V30 6610 O 613.572 -2.28755 3.4314 0
M  V30 6611 H 612.913 -0.14101 0.648855 0
M  V30 6612 H 615.443 0.196128 2.03658 0
M  V30 6613 H 615.453 -1.50954 3.79047 0
M  V30 6614 H 614.128 -0.411041 4.13864 0
M  V30 6615 H 612.705 -1.96495 3.16929 0
M  V30 6616 N 614.89 -1.56749 -0.16351 0
M  V30 6617 C 616.136 -1.83597 -0.875436 0
M  V30 6618 C 616.491 -0.691907 -1.79528 0
M  V30 6619 O 615.784 0.311193 -1.89056 0
M  V30 6620 C 615.978 -3.14342 -1.70071 0
M  V30 6621 C 615.807 -4.41356 -0.862265 0
M  V30 6622 C 614.577 -5.02467 -0.534299 0
M  V30 6623 C 616.775 -5.1391 -0.200203 0
M  V30 6624 N 614.757 -6.13068 0.31947 0
M  V30 6625 C 616.128 -6.17862 0.514398 0
M  V30 6626 C 618.183 -4.97757 -0.119171 0
M  V30 6627 C 616.886 -7.07412 1.30236 0
M  V30 6628 C 618.912 -5.87756 0.655477 0
M  V30 6629 C 618.274 -6.91178 1.35842 0
M  V30 6630 H 614.373 -0.722702 -0.298708 0
M  V30 6631 H 616.957 -1.94182 -0.141883 0
M  V30 6632 H 615.128 -3.04933 -2.40562 0
M  V30 6633 H 616.86 -3.29156 -2.35453 0
M  V30 6634 H 613.615 -4.65611 -0.866222 0
M  V30 6635 H 614.039 -6.72978 0.736893 0
M  V30 6636 H 618.681 -4.178 -0.648278 0
M  V30 6637 H 616.399 -7.86808 1.84278 0
M  V30 6638 H 619.985 -5.77328 0.719948 0
M  V30 6639 H 618.865 -7.59614 1.94822 0
M  V30 6640 N 616.368 0.432326 -1.51554 0
M  V30 6641 C 617.645 1.19288 -1.55015 0
M  V30 6642 C 618.025 2.08701 -0.317375 0
M  V30 6643 O 617.373 2.17602 0.697243 0
M  V30 6644 C 617.583 1.99037 -2.86679 0
M  V30 6645 C 618.931 2.55907 -3.38817 0
M  V30 6646 O 619.955 2.09243 -2.88263 0
M  V30 6647 O 618.814 3.41029 -4.27038 0
M  V30 6648 H 615.908 0.543369 -0.623441 0
M  V30 6649 H 618.454 0.440988 -1.6387 0
M  V30 6650 H 617.226 1.33397 -3.6786 0
M  V30 6651 H 616.849 2.81281 -2.8101 0
M  V30 6652 N 617.846 1.41785 0.688094 0
M  V30 6653 C 618.778 1.40159 1.81351 0
M  V30 6654 C 619.791 0.30262 1.59963 0
M  V30 6655 O 620.98 0.564841 1.69327 0
M  V30 6656 C 618.08 1.16517 3.1824 0
M  V30 6657 C 617.253 2.38597 3.66593 0
M  V30 6658 C 616.312 2.10699 4.82174 0
M  V30 6659 O 615.338 2.83798 4.93404 0
M  V30 6660 N 616.54 1.10187 5.69947 0
M  V30 6661 H 619.305 2.3716 1.83236 0
M  V30 6662 H 616.866 1.36494 0.870697 0
M  V30 6663 H 618.858 0.957941 3.93199 0
M  V30 6664 H 617.428 0.280873 3.11336 0
M  V30 6665 H 616.648 2.74974 2.82459 0
M  V30 6666 H 617.936 3.19919 3.95638 0
M  V30 6667 H 617.334 0.497016 5.63512 0
M  V30 6668 H 615.891 0.954518 6.44773 0
M  V30 6669 N 619.324 -0.923095 1.27737 0
M  V30 6670 C 620.271 -2.02432 1.1086 0
M  V30 6671 C 621.241 -1.66098 0.00835195 0
M  V30 6672 O 622.426 -1.90027 0.171542 0
M  V30 6673 C 619.566 -3.36476 0.766671 0
M  V30 6674 C 618.679 -3.85737 1.94501 0
M  V30 6675 C 617.814 -5.08249 1.54455 0
M  V30 6676 C 616.853 -5.49818 2.6901 0
M  V30 6677 N 615.99 -6.63524 2.29521 0
M  V30 6678 H 620.83 -2.16201 2.05089 0
M  V30 6679 H 618.367 -1.05909 1.02087 0
M  V30 6680 H 620.325 -4.13569 0.549223 0
M  V30 6681 H 618.955 -3.22502 -0.13867 0
M  V30 6682 H 618.007 -3.04883 2.27487 0
M  V30 6683 H 619.319 -4.12513 2.80419 0
M  V30 6684 H 618.473 -5.92857 1.28862 0
M  V30 6685 H 617.212 -4.83261 0.656534 0
M  V30 6686 H 616.217 -4.63757 2.95313 0
M  V30 6687 H 617.442 -5.76799 3.5844 0
M  V30 6688 H 615.388 -6.40185 1.43177 0
M  V30 6689 H 615.305 -6.89978 3.08977 0
M  V30 6690 H 616.573 -7.51461 2.07187 0
M  V30 6691 N 620.802 -1.09834 -1.13024 0
M  V30 6692 C 622.049 -0.83695 -1.84395 0
M  V30 6693 C 622.377 0.637463 -1.83757 0
M  V30 6694 O 621.632 1.48554 -1.27398 0
M  V30 6695 C 621.931 -1.32263 -3.32026 0
M  V30 6696 C 621.597 -2.80739 -3.52841 0
M  V30 6697 C 620.259 -3.21286 -3.5823 0
M  V30 6698 C 622.611 -3.76449 -3.60466 0
M  V30 6699 C 619.939 -4.56308 -3.68781 0
M  V30 6700 C 622.291 -5.11266 -3.72546 0
M  V30 6701 C 620.955 -5.51397 -3.76189 0
M  V30 6702 H 620.225 -0.306262 -0.674748 0
M  V30 6703 H 622.872 -1.37385 -1.33408 0
M  V30 6704 H 621.177 -0.705618 -3.85394 0
M  V30 6705 H 622.874 -1.09695 -3.85705 0
M  V30 6706 H 619.464 -2.48363 -3.49305 0
M  V30 6707 H 623.648 -3.46234 -3.55578 0
M  V30 6708 H 618.904 -4.86832 -3.69871 0
M  V30 6709 H 623.078 -5.85279 -3.77388 0
M  V30 6710 H 620.705 -6.56017 -3.84117 0
M  V30 6711 N 622.28 1.30327 -0.886154 0
M  V30 6712 C 623.508 2.00254 -0.520176 0
M  V30 6713 C 623.923 1.66419 0.891637 0
M  V30 6714 O 623.28 0.901951 1.58654 0
M  V30 6715 C 623.331 3.54916 -0.686775 0
M  V30 6716 O 623.052 3.87547 -2.04301 0
M  V30 6717 C 624.553 4.42115 -0.323945 0
M  V30 6718 H 621.773 0.640204 -0.200947 0
M  V30 6719 H 624.317 1.66183 -1.19178 0
M  V30 6720 H 622.472 3.8735 -0.0625273 0
M  V30 6721 H 622.886 4.82247 -2.06249 0
M  V30 6722 H 624.36 5.49808 -0.491407 0
M  V30 6723 H 624.837 4.32953 0.73811 0
M  V30 6724 H 625.443 4.15129 -0.924565 0
M  V30 6725 N 623.758 0.647228 1.43697 0
M  V30 6726 C 624.688 -0.0345631 2.33474 0
M  V30 6727 C 625.669 -0.818193 1.4913 0
M  V30 6728 O 626.854 -0.780867 1.77809 0
M  V30 6729 C 623.984 -1.00576 3.32418 0
M  V30 6730 C 622.938 -0.33266 4.26705 0
M  V30 6731 C 622.264 -1.41489 5.1564 0
M  V30 6732 C 623.564 0.771204 5.16575 0
M  V30 6733 H 625.258 0.715163 2.90733 0
M  V30 6734 H 622.804 0.345364 1.39797 0
M  V30 6735 H 624.757 -1.49159 3.94119 0
M  V30 6736 H 623.481 -1.78657 2.73403 0
M  V30 6737 H 622.14 0.13267 3.6636 0
M  V30 6738 H 621.788 -2.18698 4.52968 0
M  V30 6739 H 621.488 -0.969799 5.79542 0
M  V30 6740 H 623.012 -1.9022 5.80214 0
M  V30 6741 H 624.426 0.36779 5.72119 0
M  V30 6742 H 622.823 1.1404 5.89165 0
M  V30 6743 H 623.893 1.63169 4.56622 0
M  V30 6744 N 625.236 -1.5273 0.388769 0
M  V30 6745 C 626.146 -2.30165 -0.453993 0
M  V30 6746 C 627.162 -1.37058 -1.07197 0
M  V30 6747 O 628.338 -1.70127 -1.0779 0
M  V30 6748 C 625.403 -3.09303 -1.56628 0
M  V30 6749 C 624.464 -4.18117 -0.973467 0
M  V30 6750 C 623.697 -4.93472 -2.03275 0
M  V30 6751 O 623.92 -4.68913 -3.24772 0
M  V30 6752 O 622.854 -5.78833 -1.65034 0
M  V30 6753 H 626.68 -3.03185 0.176816 0
M  V30 6754 H 624.265 -1.4862 0.152501 0
M  V30 6755 H 626.147 -3.58648 -2.21246 0
M  V30 6756 H 624.822 -2.39098 -2.18206 0
M  V30 6757 H 623.729 -3.7297 -0.290556 0
M  V30 6758 H 625.062 -4.90556 -0.401908 0
M  V30 6759 N 626.714 -0.118576 -1.57153 0
M  V30 6760 C 627.644 0.828436 -2.1831 0
M  V30 6761 C 628.625 1.27758 -1.12303 0
M  V30 6762 O 629.81 1.34026 -1.40537 0
M  V30 6763 C 626.94 2.07876 -2.78217 0
M  V30 6764 C 625.894 1.76742 -3.89803 0
M  V30 6765 C 625.22 3.08801 -4.36516 0
M  V30 6766 C 626.52 1.03606 -5.11921 0
M  V30 6767 H 628.214 0.318824 -2.97698 0
M  V30 6768 H 625.76 0.151911 -1.43196 0
M  V30 6769 H 627.713 2.74584 -3.19659 0
M  V30 6770 H 626.437 2.61161 -1.96118 0
M  V30 6771 H 625.096 1.12424 -3.48936 0
M  V30 6772 H 624.744 3.6002 -3.51276 0
M  V30 6773 H 624.444 2.88743 -5.11763 0
M  V30 6774 H 625.968 3.76627 -4.80608 0
M  V30 6775 H 627.382 1.60467 -5.50385 0
M  V30 6776 H 625.779 0.936454 -5.92748 0
M  V30 6777 H 626.849 0.0227421 -4.84895 0
M  V30 6778 N 628.193 1.56834 0.155195 0
M  V30 6779 C 629.47 1.73799 0.897395 0
M  V30 6780 C 629.85 0.684379 1.99698 0
M  V30 6781 O 629.198 -0.298111 2.26547 0
M  V30 6782 C 629.408 3.17572 1.44737 0
M  V30 6783 C 630.756 3.79014 1.91399 0
M  V30 6784 O 631.78 3.20951 1.54496 0
M  V30 6785 O 630.639 4.80998 2.59429 0
M  V30 6786 H 627.733 0.710329 0.423511 0
M  V30 6787 H 630.279 1.69107 0.141761 0
M  V30 6788 H 629.051 3.85749 0.656741 0
M  V30 6789 H 628.674 3.26657 2.26674 0
M  V30 6790 N 629.671 -0.424282 1.51781 0
M  V30 6791 C 631.087 -0.761768 1.40247 0
M  V30 6792 C 631.287 -1.95324 0.495041 0
M  V30 6793 O 630.343 -2.5246 -0.0448949 0
M  V30 6794 C 631.656 -1.0299 2.82513 0
M  V30 6795 C 633.204 -1.13354 2.91753 0
M  V30 6796 C 633.679 -1.43453 4.34954 0
M  V30 6797 N 635.17 -1.5035 4.3812 0
M  V30 6798 C 635.905 -1.75236 5.45967 0
M  V30 6799 N 635.401 -1.97827 6.63955 0
M  V30 6800 N 637.194 -1.77126 5.33463 0
M  V30 6801 H 629.345 0.360228 2.09323 0
M  V30 6802 H 631.608 0.0988128 0.942836 0
M  V30 6803 H 631.314 -0.226961 3.50967 0
M  V30 6804 H 631.188 -1.95411 3.22637 0
M  V30 6805 H 633.575 -1.92709 2.23489 0
M  V30 6806 H 633.656 -0.188041 2.55108 0
M  V30 6807 H 633.3 -0.646209 5.03772 0
M  V30 6808 H 633.23 -2.3923 4.69123 0
M  V30 6809 H 635.721 -1.34742 3.53062 0
M  V30 6810 H 636.034 -2.16223 7.41935 0
M  V30 6811 H 634.379 -1.95123 6.67047 0
M  V30 6812 H 637.57 -1.59005 4.40267 0
M  V30 6813 H 637.743 -1.96182 6.17589 0
M  V30 6814 N 631.149 -1.42148 -0.680565 0
M  V30 6815 C 632.374 -1.45901 -1.47403 0
M  V30 6816 C 632.799 -0.0700985 -1.87969 0
M  V30 6817 O 632.157 0.930145 -1.55621 0
M  V30 6818 C 632.205 -2.38661 -2.70321 0
M  V30 6819 O 631.309 -1.85399 -3.68376 0
M  V30 6820 H 630.65 -0.494565 -0.443059 0
M  V30 6821 H 633.18 -1.86774 -0.835251 0
M  V30 6822 H 633.19 -2.55046 -3.18458 0
M  V30 6823 H 631.865 -3.39571 -2.40134 0
M  V30 6824 H 630.442 -1.78541 -3.2738 0
M  V30 6825 N 632.627 0.916307 -1.28225 0
M  V30 6826 C 634.043 1.19425 -1.05876 0
M  V30 6827 C 634.243 2.005 0.2005 0
M  V30 6828 O 633.299 2.35806 0.902873 0
M  V30 6829 C 634.612 1.93133 -2.30478 0
M  V30 6830 C 636.16 2.06026 -2.35632 0
M  V30 6831 C 636.635 2.83141 -3.59994 0
M  V30 6832 N 638.126 2.90704 -3.60618 0
M  V30 6833 C 638.861 3.50865 -4.53521 0
M  V30 6834 N 638.357 4.12327 -5.56739 0
M  V30 6835 N 640.15 3.48379 -4.41122 0
M  V30 6836 H 632.301 0.37496 -2.09064 0
M  V30 6837 H 634.564 0.228531 -0.920042 0
M  V30 6838 H 634.27 1.40985 -3.22205 0
M  V30 6839 H 634.144 2.93696 -2.36691 0
M  V30 6840 H 636.531 2.57355 -1.44404 0
M  V30 6841 H 636.612 1.04647 -2.33415 0
M  V30 6842 H 636.256 2.32492 -4.51564 0
M  V30 6843 H 636.186 3.84829 -3.59464 0
M  V30 6844 H 638.677 2.47034 -2.85977 0
M  V30 6845 H 638.99 4.56205 -6.23776 0
M  V30 6846 H 637.335 4.10839 -5.60568 0
M  V30 6847 H 640.526 2.99572 -3.59686 0
M  V30 6848 H 640.699 3.94974 -5.13712 0
M  V30 6849 N 634.105 1.10431 1.1244 0
M  V30 6850 C 635.015 0.765502 2.21759 0
M  V30 6851 C 636.031 -0.236966 1.72379 0
M  V30 6852 O 637.207 -0.0757329 2.01258 0
M  V30 6853 C 634.272 0.202316 3.46109 0
M  V30 6854 C 633.333 1.26205 4.1033 0
M  V30 6855 C 632.566 0.725648 5.28744 0
M  V30 6856 O 632.789 -0.447942 5.68638 0
M  V30 6857 O 631.723 1.48555 5.83279 0
M  V30 6858 H 635.549 1.67801 2.53133 0
M  V30 6859 H 633.134 0.879443 1.20773 0
M  V30 6860 H 635.016 -0.107918 4.21262 0
M  V30 6861 H 633.691 -0.683052 3.16411 0
M  V30 6862 H 632.598 1.62514 3.36957 0
M  V30 6863 H 633.931 2.12044 4.44183 0
M  V30 6864 N 635.583 -1.29855 0.893053 0
M  V30 6865 C 636.513 -2.3035 0.382249 0
M  V30 6866 C 637.494 -1.61328 -0.539203 0
M  V30 6867 O 638.679 -1.88882 -0.451342 0
M  V30 6868 C 635.809 -3.45024 -0.396983 0
M  V30 6869 C 634.763 -4.258 0.433437 0
M  V30 6870 C 634.089 -5.32605 -0.472889 0
M  V30 6871 C 635.389 -4.94549 1.67984 0
M  V30 6872 H 637.083 -2.73325 1.22205 0
M  V30 6873 H 634.629 -1.314 0.589073 0
M  V30 6874 H 636.582 -4.14398 -0.765024 0
M  V30 6875 H 635.306 -3.00875 -1.2705 0
M  V30 6876 H 633.965 -3.58125 0.783723 0
M  V30 6877 H 633.613 -4.84702 -1.34435 0
M  V30 6878 H 633.313 -5.87547 0.0789958 0
M  V30 6879 H 634.837 -6.04832 -0.837269 0
M  V30 6880 H 636.251 -5.56395 1.38192 0
M  V30 6881 H 634.648 -5.59393 2.17254 0
M  V30 6882 H 635.718 -4.20215 2.41965 0
M  V30 6883 N 637.061 -0.65484 -1.43351 0
M  V30 6884 C 637.971 0.0363603 -2.34572 0
M  V30 6885 C 638.987 0.810432 -1.53974 0
M  V30 6886 O 640.163 0.757308 -1.86619 0
M  V30 6887 C 637.228 0.989733 -3.32273 0
M  V30 6888 C 636.289 0.212414 -4.28774 0
M  V30 6889 C 635.522 1.12038 -5.21808 0
M  V30 6890 O 635.745 2.35967 -5.19303 0
M  V30 6891 O 634.679 0.59191 -5.98982 0
M  V30 6892 H 638.505 -0.714527 -2.95175 0
M  V30 6893 H 636.09 -0.415029 -1.4352 0
M  V30 6894 H 637.972 1.53759 -3.92347 0
M  V30 6895 H 636.647 1.72082 -2.74171 0
M  V30 6896 H 635.554 -0.379062 -3.72175 0
M  V30 6897 H 636.887 -0.479138 -4.89862 0
M  V30 6898 N 638.539 1.52521 -0.396863 0
M  V30 6899 C 639.788 2.00857 0.184184 0
M  V30 6900 C 640.101 1.28733 1.47265 0
M  V30 6901 O 641.307 1.67821 2.13421 0
M  V30 6902 C 639.763 3.57901 0.378787 0
M  V30 6903 C 639.371 4.38931 -0.896873 0
M  V30 6904 C 641.115 4.14504 0.915789 0
M  V30 6905 C 639.022 5.87591 -0.670133 0
M  V30 6906 H 637.952 0.750496 0.0726055 0
M  V30 6907 H 640.603 1.75965 -0.520425 0
M  V30 6908 H 638.985 3.79072 1.14543 0
M  V30 6909 H 640.159 4.29524 -1.66872 0
M  V30 6910 H 638.474 3.93586 -1.35938 0
M  V30 6911 H 641.071 5.23236 1.10126 0
M  V30 6912 H 641.414 3.71076 1.88701 0
M  V30 6913 H 641.947 3.97253 0.208523 0
M  V30 6914 H 638.686 6.35355 -1.61257 0
M  V30 6915 H 638.206 5.99767 0.0626368 0
M  V30 6916 H 639.885 6.46268 -0.307577 0
M  V30 6917 N 640.017 0.126909 1.57088 0
M  V30 6918 C 641.242 -0.53997 2.00248 0
M  V30 6919 C 641.667 -1.58927 1.00618 0
M  V30 6920 O 641.025 -1.81288 -0.0210131 0
M  V30 6921 C 641.073 -1.13565 3.4225 0
M  V30 6922 O 640.177 -2.25103 3.45547 0
M  V30 6923 H 639.518 -0.13412 0.650314 0
M  V30 6924 H 642.048 0.217718 2.03438 0
M  V30 6925 H 642.058 -1.46925 3.80627 0
M  V30 6926 H 640.733 -0.367122 4.14277 0
M  V30 6927 H 639.31 -1.93123 3.18995 0
M  V30 6928 N 641.495 -1.56914 -0.146875 0
M  V30 6929 C 642.741 -1.83628 -0.860741 0
M  V30 6930 C 643.074 -0.708528 -1.80813 0
M  V30 6931 O 642.349 0.287838 -1.92358 0
M  V30 6932 C 642.632 -3.20836 -1.63511 0
M  V30 6933 C 642.485 -4.44174 -0.709199 0
M  V30 6934 C 643.804 -3.55268 -2.59756 0
M  V30 6935 H 640.923 -0.667949 -0.311468 0
M  V30 6936 H 643.565 -1.89582 -0.125936 0
M  V30 6937 H 641.715 -3.15891 -2.26153 0
M  V30 6938 H 643.387 -4.61205 -0.0937781 0
M  V30 6939 H 641.63 -4.33796 -0.0187856 0
M  V30 6940 H 642.301 -5.36785 -1.28707 0
M  V30 6941 H 644.777 -3.60824 -2.07232 0
M  V30 6942 H 643.653 -4.52303 -3.10987 0
M  V30 6943 H 643.914 -2.81231 -3.41118 0
M  V30 6944 N 642.974 0.416227 -1.52004 0
M  V30 6945 C 644.204 1.18401 -1.69307 0
M  V30 6946 C 644.612 1.84943 -0.399072 0
M  V30 6947 O 643.955 1.72406 0.634177 0
M  V30 6948 C 644.017 2.29465 -2.76742 0
M  V30 6949 C 643.681 1.83117 -4.18709 0
M  V30 6950 C 644.678 1.32286 -5.02789 0
M  V30 6951 C 642.363 1.90167 -4.64911 0
M  V30 6952 C 644.357 0.891178 -6.31139 0
M  V30 6953 C 642.044 1.4661 -5.93253 0
M  V30 6954 C 643.042 0.961696 -6.76196 0
M  V30 6955 O 642.73 0.532388 -8.02135 0
M  V30 6956 H 642.462 0.362098 -0.570843 0
M  V30 6957 H 645.016 0.496764 -1.99302 0
M  V30 6958 H 643.246 3.01531 -2.42107 0
M  V30 6959 H 644.935 2.91252 -2.82713 0
M  V30 6960 H 645.701 1.26218 -4.68288 0
M  V30 6961 H 641.58 2.28371 -4.00459 0
M  V30 6962 H 645.124 0.496788 -6.95829 0
M  V30 6963 H 641.021 1.52355 -6.27263 0
M  V30 6964 H 641.789 0.656339 -8.15864 0
M  V30 6965 N 644.452 1.42507 0.673017 0
M  V30 6966 C 645.698 1.44282 1.43367 0
M  V30 6967 C 646.053 0.0588239 1.9231 0
M  V30 6968 O 645.346 -0.919288 1.68106 0
M  V30 6969 C 645.54 2.40351 2.64511 0
M  V30 6970 C 645.369 3.87955 2.27423 0
M  V30 6971 C 644.139 4.56476 2.16697 0
M  V30 6972 C 646.337 4.7833 1.88957 0
M  V30 6973 N 644.319 5.89099 1.72731 0
M  V30 6974 C 645.69 6.00073 1.55923 0
M  V30 6975 C 647.745 4.65769 1.75965 0
M  V30 6976 C 646.448 7.10652 1.112 0
M  V30 6977 C 648.474 5.76332 1.32647 0
M  V30 6978 C 647.836 6.97188 1.00538 0
M  V30 6979 H 643.935 0.583134 0.521036 0
M  V30 6980 H 646.519 1.78547 0.776481 0
M  V30 6981 H 644.69 2.08145 3.27918 0
M  V30 6982 H 646.422 2.32694 3.31113 0
M  V30 6983 H 643.177 4.10712 2.35823 0
M  V30 6984 H 643.601 6.59446 1.53166 0
M  V30 6985 H 648.243 3.72808 1.99435 0
M  V30 6986 H 645.961 8.0346 0.864768 0
M  V30 6987 H 649.547 5.68625 1.23112 0
M  V30 6988 H 648.427 7.81287 0.675283 0
M  V30 6989 N 645.93 -0.909495 1.28709 0
M  V30 6990 C 647.346 -1.18862 1.06508 0
M  V30 6991 C 647.546 -2.00604 -0.189864 0
M  V30 6992 O 646.602 -2.36281 -0.890355 0
M  V30 6993 C 647.915 -1.91908 2.31499 0
M  V30 6994 C 649.463 -2.04773 2.36721 0
M  V30 6995 C 649.938 -2.81228 3.6149 0
M  V30 6996 N 651.429 -2.88787 3.62155 0
M  V30 6997 C 652.164 -3.48455 4.55375 0
M  V30 6998 N 651.66 -4.09369 5.58918 0
M  V30 6999 N 653.453 -3.46035 4.42963 0
M  V30 7000 H 645.604 -0.363867 2.0926 0
M  V30 7001 H 647.867 -0.223649 0.921241 0
M  V30 7002 H 647.573 -1.39275 3.22948 0
M  V30 7003 H 647.447 -2.92436 2.38245 0
M  V30 7004 H 649.834 -2.56585 1.45767 0
M  V30 7005 H 649.915 -1.03408 2.33967 0
M  V30 7006 H 649.559 -2.30094 4.5279 0
M  V30 7007 H 649.489 -3.82917 3.61499 0
M  V30 7008 H 651.98 -2.45514 2.87283 0
M  V30 7009 H 652.293 -4.52891 6.26187 0
M  V30 7010 H 650.638 -4.0786 5.62739 0
M  V30 7011 H 653.829 -2.9766 3.6127 0
M  V30 7012 H 654.002 -3.92244 5.15799 0
M  V30 7013 N 647.408 -1.11026 -1.11852 0
M  V30 7014 C 648.685 -0.768347 -1.79877 0
M  V30 7015 C 649.065 0.744261 -1.97545 0
M  V30 7016 O 648.413 1.67271 -1.55669 0
M  V30 7017 C 648.623 -1.52648 -3.13846 0
M  V30 7018 C 649.971 -1.70297 -3.88953 0
M  V30 7019 O 650.995 -1.49037 -3.23522 0
M  V30 7020 O 649.854 -2.05593 -5.06353 0
M  V30 7021 H 646.948 -0.277891 -0.778913 0
M  V30 7022 H 649.494 -1.21343 -1.18633 0
M  V30 7023 H 648.266 -2.55564 -2.96315 0
M  V30 7024 H 647.889 -1.07466 -3.82801 0
M  V30 7025 N 648.886 1.2938 -0.899927 0
M  V30 7026 C 650.132 1.96206 -0.536153 0
M  V30 7027 C 650.487 1.69647 0.90761 0
M  V30 7028 O 649.78 0.999089 1.63489 0
M  V30 7029 C 649.974 3.49114 -0.765113 0
M  V30 7030 C 649.803 3.90538 -2.22958 0
M  V30 7031 C 648.573 4.15395 -2.87706 0
M  V30 7032 C 650.771 4.0224 -3.20479 0
M  V30 7033 N 648.753 4.43389 -4.24593 0
M  V30 7034 C 650.124 4.34288 -4.42486 0
M  V30 7035 C 652.179 3.84716 -3.16066 0
M  V30 7036 C 650.882 4.50638 -5.6064 0
M  V30 7037 C 652.908 4.02276 -4.33507 0
M  V30 7038 C 652.27 4.34684 -5.54283 0
M  V30 7039 H 648.369 0.742364 -0.245804 0
M  V30 7040 H 650.953 1.56314 -1.16078 0
M  V30 7041 H 649.124 3.88028 -0.169861 0
M  V30 7042 H 650.856 4.03035 -0.366751 0
M  V30 7043 H 647.611 4.09164 -2.385 0
M  V30 7044 H 648.035 4.61494 -4.95331 0
M  V30 7045 H 652.677 3.58724 -2.23778 0
M  V30 7046 H 650.395 4.75467 -6.5342 0
M  V30 7047 H 653.981 3.90169 -4.31578 0
M  V30 7048 H 652.861 4.47988 -6.43643 0
M  V30 7049 N 650.364 0.662433 1.43002 0
M  V30 7050 C 651.78 0.330835 1.56133 0
M  V30 7051 C 651.98 -1.16454 1.64441 0
M  V30 7052 O 651.036 -1.94964 1.60453 0
M  V30 7053 C 652.349 1.05029 2.81761 0
M  V30 7054 C 653.897 1.03142 2.95518 0
M  V30 7055 C 654.372 1.73196 4.2399 0
M  V30 7056 N 655.863 1.70004 4.30875 0
M  V30 7057 C 656.598 2.21074 5.29069 0
M  V30 7058 N 656.094 2.80473 6.33488 0
M  V30 7059 N 657.887 2.1152 5.20784 0
M  V30 7060 H 650.038 1.63272 1.35853 0
M  V30 7061 H 652.301 0.687149 0.653092 0
M  V30 7062 H 652.007 2.10542 2.81718 0
M  V30 7063 H 651.881 0.607664 3.72273 0
M  V30 7064 H 654.268 -0.0153339 2.95096 0
M  V30 7065 H 654.349 1.51282 2.0627 0
M  V30 7066 H 653.993 2.77833 4.25172 0
M  V30 7067 H 653.923 1.22515 5.1215 0
M  V30 7068 H 656.414 1.26667 3.56039 0
M  V30 7069 H 656.727 3.17094 7.04749 0
M  V30 7070 H 655.072 2.84538 6.34085 0
M  V30 7071 H 658.263 1.64814 4.38126 0
M  V30 7072 H 658.436 2.51629 5.97149 0
M  V30 7073 N 651.842 -1.52309 0.404946 0
M  V30 7074 C 653.067 -2.06666 -0.1743 0
M  V30 7075 C 653.492 -1.27341 -1.38441 0
M  V30 7076 O 652.85 -0.302539 -1.78758 0
M  V30 7077 C 652.898 -3.57014 -0.507262 0
M  V30 7078 O 652.002 -3.80144 -1.59889 0
M  V30 7079 H 651.343 -0.663807 -0.0160273 0
M  V30 7080 H 653.873 -1.96297 0.576937 0
M  V30 7081 H 653.883 -4.00724 -0.767098 0
M  V30 7082 H 652.558 -4.14184 0.377368 0
M  V30 7083 H 651.135 -3.48316 -1.33155 0
M  V30 7084 N 653.32 -0.135238 -1.57019 0
M  V30 7085 C 654.25 0.805235 -2.19176 0
M  V30 7086 C 655.231 1.2656 -1.13651 0
M  V30 7087 O 656.416 1.32528 -1.4195 0
M  V30 7088 C 653.546 2.04914 -2.80406 0
M  V30 7089 C 652.5 1.72598 -3.91655 0
M  V30 7090 C 651.826 3.04154 -4.39766 0
M  V30 7091 C 653.126 0.981709 -5.12991 0
M  V30 7092 H 654.82 0.287232 -2.98019 0
M  V30 7093 H 652.366 0.136714 -1.4335 0
M  V30 7094 H 654.319 2.71178 -3.22553 0
M  V30 7095 H 653.043 2.59067 -1.98877 0
M  V30 7096 H 651.702 1.08717 -3.50109 0
M  V30 7097 H 651.35 3.56274 -3.55075 0
M  V30 7098 H 651.05 2.83299 -5.14796 0
M  V30 7099 H 652.574 3.71509 -4.84576 0
M  V30 7100 H 653.988 1.5462 -5.52056 0
M  V30 7101 H 652.385 0.873533 -5.93708 0
M  V30 7102 H 653.455 -0.0286887 -4.84892 0
M  V30 7103 N 654.798 1.5699 0.138552 0
M  V30 7104 C 656.038 1.85619 0.855849 0
M  V30 7105 C 656.402 0.720663 1.77962 0
M  V30 7106 O 657.603 0.888221 2.53701 0
M  V30 7107 C 655.874 3.19447 1.60275 0
M  V30 7108 S 657.433 3.69656 2.36431 0
M  V30 7109 H 654.251 0.650926 0.286035 0
M  V30 7110 H 656.853 1.9516 0.115331 0
M  V30 7111 H 655.557 4.00053 0.915737 0
M  V30 7112 H 655.088 3.12935 2.38402 0
M  V30 7113 H 657.103 3.39595 3.61787 0
M  V30 7114 N 656.276 -0.40816 1.52223 0
M  V30 7115 C 657.239 -1.48 1.7501 0
M  V30 7116 C 658.239 -1.48367 0.619996 0
M  V30 7117 O 659.429 -1.49874 0.887881 0
M  V30 7118 C 656.561 -2.87403 1.83336 0
M  V30 7119 H 657.754 -1.29086 2.70697 0
M  V30 7120 H 655.307 -0.638715 1.42654 0
M  V30 7121 H 656.042 -3.11686 0.895677 0
M  V30 7122 H 655.827 -2.8854 2.65494 0
M  V30 7123 H 657.317 -3.65103 2.02705 0
M  V30 7124 N 657.755 -1.42862 -0.66545 0
M  V30 7125 C 659.001 -1.44043 -1.42757 0
M  V30 7126 C 659.334 -0.0599629 -1.94107 0
M  V30 7127 O 658.609 0.917286 -1.71511 0
M  V30 7128 C 658.892 -2.47266 -2.61786 0
M  V30 7129 C 658.745 -3.94539 -2.16007 0
M  V30 7130 C 660.064 -2.47365 -3.64003 0
M  V30 7131 H 657.183 -0.524506 -0.517748 0
M  V30 7132 H 659.825 -1.74335 -0.755466 0
M  V30 7133 H 657.975 -2.21565 -3.19126 0
M  V30 7134 H 659.647 -4.31254 -1.63762 0
M  V30 7135 H 657.89 -4.07957 -1.47491 0
M  V30 7136 H 658.561 -4.62357 -3.01546 0
M  V30 7137 H 661.037 -2.70243 -3.16399 0
M  V30 7138 H 659.913 -3.21552 -4.44854 0
M  V30 7139 H 660.174 -1.50299 -4.15767 0
M  V30 7140 N 659.233 0.902656 -1.29189 0
M  V30 7141 C 660.18 2.00643 -1.14066 0
M  V30 7142 C 661.15 1.66064 -0.0347756 0
M  V30 7143 O 662.335 1.8973 -0.201752 0
M  V30 7144 C 659.475 3.35214 -0.820104 0
M  V30 7145 C 658.588 3.82594 -2.00614 0
M  V30 7146 C 657.723 5.05727 -1.62522 0
M  V30 7147 C 656.762 5.45469 -2.77724 0
M  V30 7148 N 655.899 6.59789 -2.40048 0
M  V30 7149 H 660.739 2.1291 -2.08502 0
M  V30 7150 H 658.276 1.04271 -1.03759 0
M  V30 7151 H 660.234 4.12643 -0.614949 0
M  V30 7152 H 658.864 3.22682 0.0873452 0
M  V30 7153 H 657.916 3.01226 -2.32308 0
M  V30 7154 H 659.228 4.07999 -2.86946 0
M  V30 7155 H 658.382 5.90732 -1.38277 0
M  V30 7156 H 657.121 4.82155 -0.733333 0
M  V30 7157 H 656.126 4.59 -3.02653 0
M  V30 7158 H 657.351 5.71024 -3.67572 0
M  V30 7159 H 655.297 6.37826 -1.53343 0
M  V30 7160 H 655.214 6.84975 -3.19914 0
M  V30 7161 H 656.482 7.4807 -2.19116 0
M  V30 7162 N 660.711 1.11618 1.11262 0
M  V30 7163 C 661.958 0.86618 1.8304 0
M  V30 7164 C 662.286 -0.608149 1.84748 0
M  V30 7165 O 661.541 -1.46508 1.29745 0
M  V30 7166 C 661.84 1.37529 3.2988 0
M  V30 7167 C 661.506 2.86317 3.4833 0
M  V30 7168 C 660.168 3.26945 3.53073 0
M  V30 7169 C 662.52 3.82136 3.54431 0
M  V30 7170 C 659.848 4.62117 3.61475 0
M  V30 7171 C 662.2 5.17128 3.64365 0
M  V30 7172 C 660.864 5.57312 3.67369 0
M  V30 7173 H 660.134 0.316958 0.66979 0
M  V30 7174 H 662.781 1.3949 1.31205 0
M  V30 7175 H 661.086 0.766842 3.84222 0
M  V30 7176 H 662.783 1.15817 3.83911 0
M  V30 7177 H 659.373 2.53889 3.45309 0
M  V30 7178 H 663.557 3.51847 3.50025 0
M  V30 7179 H 658.813 4.92655 3.62079 0
M  V30 7180 H 662.987 5.91208 3.68029 0
M  V30 7181 H 660.614 6.62045 3.73632 0
M  V30 7182 N 662.189 -1.289 0.906776 0
M  V30 7183 C 663.119 -2.29932 0.406659 0
M  V30 7184 C 664.1 -1.6189 -0.522061 0
M  V30 7185 O 665.285 -1.8935 -0.431283 0
M  V30 7186 C 662.415 -3.45425 -0.360366 0
M  V30 7187 C 661.369 -4.25316 0.478574 0
M  V30 7188 C 660.695 -5.33076 -0.416373 0
M  V30 7189 C 661.995 -4.92739 1.7322 0
M  V30 7190 H 663.689 -2.72013 1.25097 0
M  V30 7191 H 661.235 -1.30768 0.602977 0
M  V30 7192 H 663.188 -4.15186 -0.721029 0
M  V30 7193 H 661.912 -3.02206 -1.23852 0
M  V30 7194 H 660.571 -3.57273 0.821662 0
M  V30 7195 H 660.219 -4.86101 -1.29287 0
M  V30 7196 H 659.919 -5.8743 0.141309 0
M  V30 7197 H 661.443 -6.05686 -0.773072 0
M  V30 7198 H 662.857 -5.54898 1.44086 0
M  V30 7199 H 661.254 -5.57057 2.23175 0
M  V30 7200 H 662.324 -4.17625 2.46408 0
M  V30 7201 N 663.667 -0.670007 -1.42649 0
M  V30 7202 C 665.083 -0.33911 -1.55956 0
M  V30 7203 C 665.283 1.1558 -1.65056 0
M  V30 7204 O 664.339 1.94111 -1.61485 0
M  V30 7205 C 665.652 -1.06522 -2.812 0
M  V30 7206 C 667.2 -1.04708 -2.94966 0
M  V30 7207 C 667.675 -1.75442 -4.23065 0
M  V30 7208 N 669.166 -1.72286 -4.29967 0
M  V30 7209 C 669.901 -2.23877 -5.27889 0
M  V30 7210 N 669.397 -2.83829 -6.31991 0
M  V30 7211 N 671.19 -2.14279 -5.19654 0
M  V30 7212 H 663.341 -1.6399 -1.34986 0
M  V30 7213 H 665.604 -0.690603 -0.649439 0
M  V30 7214 H 665.31 -2.12033 -2.80597 0
M  V30 7215 H 665.184 -0.627398 -3.71946 0
M  V30 7216 H 667.571 -0.000315966 -2.951 0
M  V30 7217 H 667.652 -1.52374 -2.05465 0
M  V30 7218 H 667.296 -2.80084 -4.23693 0
M  V30 7219 H 667.226 -1.25229 -5.11493 0
M  V30 7220 H 669.717 -1.28554 -3.55362 0
M  V30 7221 H 670.03 -3.20827 -7.03057 0
M  V30 7222 H 668.375 -2.87896 -6.32567 0
M  V30 7223 H 671.566 -1.67135 -4.37245 0
M  V30 7224 H 671.739 -2.54792 -5.95806 0
M  V30 7225 N 665.145 1.52092 -0.413018 0
M  V30 7226 C 666.075 2.30021 0.401567 0
M  V30 7227 C 667.056 1.34395 1.04269 0
M  V30 7228 O 668.241 1.63304 1.05097 0
M  V30 7229 C 665.371 3.12447 1.51638 0
M  V30 7230 C 664.325 4.16153 1.00005 0
M  V30 7231 C 663.651 4.86948 2.20875 0
M  V30 7232 C 664.951 5.22275 0.0513757 0
M  V30 7233 H 666.645 2.98365 -0.248704 0
M  V30 7234 H 664.191 1.4349 -0.121052 0
M  V30 7235 H 666.144 3.65733 2.09326 0
M  V30 7236 H 664.868 2.41879 2.19458 0
M  V30 7237 H 663.527 3.63882 0.445549 0
M  V30 7238 H 663.175 4.12905 2.8726 0
M  V30 7239 H 662.875 5.57057 1.86978 0
M  V30 7240 H 664.399 5.43048 2.79162 0
M  V30 7241 H 665.813 5.70778 0.537176 0
M  V30 7242 H 664.21 5.9977 -0.198977 0
M  V30 7243 H 665.28 4.76611 -0.892736 0
M  V30 7244 N 666.623 0.143563 1.56945 0
M  V30 7245 C 667.533 -0.810562 2.20152 0
M  V30 7246 C 668.549 -1.27431 1.1848 0
M  V30 7247 O 669.725 -1.33221 1.51044 0
M  V30 7248 C 666.79 -2.03353 2.80799 0
M  V30 7249 C 665.851 -1.61936 3.97587 0
M  V30 7250 C 665.084 -2.78403 4.55332 0
M  V30 7251 O 665.307 -3.94521 4.11958 0
M  V30 7252 O 664.241 -2.54073 5.45647 0
M  V30 7253 H 668.067 -0.30253 3.02189 0
M  V30 7254 H 665.652 -0.0832925 1.49168 0
M  V30 7255 H 667.534 -2.74932 3.19359 0
M  V30 7256 H 666.209 -2.53116 2.01777 0
M  V30 7257 H 665.116 -0.873904 3.6375 0
M  V30 7258 H 666.449 -1.16892 4.78118 0
M  V30 7259 N 668.101 -1.57061 -0.130224 0
M  V30 7260 C 669.378 -1.75205 -0.869631 0
M  V30 7261 C 669.758 -0.716063 -1.98584 0
M  V30 7262 O 669.106 0.262032 -2.26993 0
M  V30 7263 C 669.316 -3.19835 -1.39666 0
M  V30 7264 C 670.664 -3.82011 -1.85345 0
M  V30 7265 O 671.688 -3.23368 -1.49371 0
M  V30 7266 O 670.547 -4.85064 -2.51744 0
M  V30 7267 H 667.641 -0.716977 -0.412157 0
M  V30 7268 H 670.187 -1.69311 -0.11484 0
M  V30 7269 H 668.959 -3.86745 -0.595288 0
M  V30 7270 H 668.582 -3.30222 -2.21448 0
M  V30 7271 N 669.579 0.400081 -1.52437 0
M  V30 7272 C 670.826 1.14619 -1.6694 0
M  V30 7273 C 671.154 1.90262 -0.403797 0
M  V30 7274 O 670.409 1.85835 0.61351 0
M  V30 7275 C 670.708 2.15914 -2.84808 0
M  V30 7276 C 670.374 1.57011 -4.2268 0
M  V30 7277 C 669.036 1.40672 -4.60179 0
M  V30 7278 C 671.388 1.14081 -5.08562 0
M  V30 7279 C 668.716 0.799335 -5.81229 0
M  V30 7280 C 671.068 0.547573 -6.30226 0
M  V30 7281 C 669.732 0.371389 -6.66466 0
M  V30 7282 H 669.002 0.419419 -0.610875 0
M  V30 7283 H 671.649 0.432227 -1.86558 0
M  V30 7284 H 669.954 2.93488 -2.59561 0
M  V30 7285 H 671.651 2.73533 -2.93225 0
M  V30 7286 H 668.241 1.70713 -3.93135 0
M  V30 7287 H 672.425 1.2551 -4.80168 0
M  V30 7288 H 667.681 0.65093 -6.07925 0
M  V30 7289 H 671.855 0.206575 -6.96094 0
M  V30 7290 H 669.482 -0.10135 -7.60132 0
M  V30 7291 N 671.057 1.43213 0.657864 0
M  V30 7292 C 671.987 1.50815 1.78262 0
M  V30 7293 C 672.968 0.363211 1.66177 0
M  V30 7294 O 674.153 0.579806 1.85343 0
M  V30 7295 C 671.283 1.42625 3.16663 0
M  V30 7296 C 670.237 2.5532 3.43505 0
M  V30 7297 C 669.563 2.32184 4.81658 0
M  V30 7298 C 670.863 3.97583 3.38711 0
M  V30 7299 H 672.557 2.44954 1.72157 0
M  V30 7300 H 670.103 1.17896 0.82683 0
M  V30 7301 H 672.056 1.46548 3.95097 0
M  V30 7302 H 670.78 0.449877 3.23487 0
M  V30 7303 H 669.439 2.50742 2.6744 0
M  V30 7304 H 669.087 1.32801 4.85153 0
M  V30 7305 H 668.787 3.07724 5.00579 0
M  V30 7306 H 670.311 2.37883 5.62356 0
M  V30 7307 H 671.725 4.03673 4.07089 0
M  V30 7308 H 670.122 4.73112 3.69168 0
M  V30 7309 H 671.192 4.23049 2.36976 0
M  V30 7310 N 672.536 -0.895792 1.29666 0
M  V30 7311 C 673.813 -1.62723 1.08538 0
M  V30 7312 C 674.193 -2.07848 -0.369119 0
M  V30 7313 O 673.541 -1.8372 -1.35864 0
M  V30 7314 C 673.751 -2.80505 2.07648 0
M  V30 7315 C 675.099 -3.51098 2.3878 0
M  V30 7316 O 676.123 -2.90679 2.05874 0
M  V30 7317 O 674.982 -4.60028 2.9502 0
M  V30 7318 H 672.076 -0.714692 0.416106 0
M  V30 7319 H 674.622 -0.943517 1.41053 0
M  V30 7320 H 673.394 -2.44386 3.05599 0
M  V30 7321 H 673.017 -3.5658 1.75887 0
M  V30 7322 N 674.014 -1.12206 -1.10668 0
M  V30 7323 C 674.962 -0.782918 -2.19028 0
M  V30 7324 C 675.956 0.229175 -1.67843 0
M  V30 7325 O 677.162 0.0876295 -1.79787 0
M  V30 7326 H 673.537 -0.235339 -0.714227 0
M  V30 7327 H 675.508 -1.70527 -2.44874 0
M  V30 7328 C 674.257 -0.25116 -3.46792 0
M  V30 7329 H 673.58 -1.02123 -3.86537 0
M  V30 7330 H 675.02 -0.0521409 -4.23968 0
M  V30 7331 C 673.479 1.02037 -3.21076 0
M  V30 7332 O 674.009 2.09862 -3.42522 0
M  V30 7333 N 672.215 0.946348 -2.74759 0
M  V30 7334 H 671.762 0.068777 -2.57508 0
M  V30 7335 H 671.72 1.79775 -2.57931 0
M  V30 7336 N 675.492 1.28418 -0.913599 0
M  V30 7337 C 676.424 2.26368 -0.359169 0
M  V30 7338 C 677.437 1.54858 0.502285 0
M  V30 7339 O 678.626 1.75659 0.31719 0
M  V30 7340 C 675.726 3.35112 0.50526 0
M  V30 7341 C 674.899 4.36126 -0.333648 0
M  V30 7342 C 673.958 5.24134 0.465845 0
M  V30 7343 O 672.984 5.6907 -0.121538 0
M  V30 7344 N 674.186 5.52892 1.76891 0
M  V30 7345 H 676.951 2.74579 -1.2011 0
M  V30 7346 H 674.512 1.41898 -0.779532 0
M  V30 7347 H 676.504 3.90926 1.04684 0
M  V30 7348 H 675.074 2.86611 1.2479 0
M  V30 7349 H 674.294 3.79776 -1.0566 0
M  V30 7350 H 675.582 5.00638 -0.907669 0
M  V30 7351 H 674.98 5.18217 2.26865 0
M  V30 7352 H 673.537 6.11464 2.25732 0
M  V30 7353 N 676.97 0.677563 1.42291 0
M  V30 7354 C 678.386 0.347376 1.55774 0
M  V30 7355 C 678.586 -1.14703 1.65667 0
M  V30 7356 O 677.642 -1.93252 1.62512 0
M  V30 7357 C 678.955 1.08011 2.80631 0
M  V30 7358 C 680.503 1.06271 2.94407 0
M  V30 7359 C 680.978 1.77683 4.22129 0
M  V30 7360 N 682.469 1.74564 4.29047 0
M  V30 7361 C 683.204 2.26673 5.26694 0
M  V30 7362 N 682.7 2.87176 6.30477 0
M  V30 7363 N 684.493 2.17032 5.18511 0
M  V30 7364 H 676.644 1.64703 1.34114 0
M  V30 7365 H 678.907 0.694038 0.645768 0
M  V30 7366 H 678.613 2.13518 2.79469 0
M  V30 7367 H 678.487 0.647115 3.71608 0
M  V30 7368 H 680.874 0.0159658 2.95096 0
M  V30 7369 H 680.955 1.53461 2.04654 0
M  V30 7370 H 680.599 2.82327 4.22201 0
M  V30 7371 H 680.529 1.2794 5.10822 0
M  V30 7372 H 683.02 1.30436 3.54676 0
M  V30 7373 H 683.333 3.24551 7.01346 0
M  V30 7374 H 681.678 2.91247 6.31031 0
M  V30 7375 H 684.869 1.69451 4.36353 0
M  V30 7376 H 685.042 2.57948 5.94446 0
M  V30 7377 N 678.448 -1.51871 0.421078 0
M  V30 7378 C 679.398 -2.24171 -0.416111 0
M  V30 7379 C 680.382 -1.25763 -1.00362 0
M  V30 7380 O 681.574 -1.5094 -0.924452 0
M  V30 7381 C 678.703 -3.07533 -1.52571 0
M  V30 7382 C 677.789 -4.1336 -0.948399 0
M  V30 7383 N 678.18 -5.05704 -0.0987933 0
M  V30 7384 C 676.478 -4.29055 -1.21768 0
M  V30 7385 C 677.179 -5.8127 0.223705 0
M  V30 7386 N 676.155 -5.4221 -0.388524 0
M  V30 7387 H 679.957 -2.92925 0.239166 0
M  V30 7388 H 677.471 -1.60732 0.232191 0
M  V30 7389 H 679.468 -3.57893 -2.13819 0
M  V30 7390 H 678.128 -2.4032 -2.18349 0
M  V30 7391 H 679.139 -5.17214 0.266428 0
M  V30 7392 H 675.816 -3.73071 -1.87416 0
M  V30 7393 H 677.206 -6.65653 0.914076 0
M  V30 7394 N 679.926 -0.151884 -1.56866 0
M  V30 7395 C 681.174 0.497021 -1.95893 0
M  V30 7396 C 681.495 1.65078 -1.03799 0
M  V30 7397 O 680.765 1.95642 -0.10049 0
M  V30 7398 H 679.345 0.186603 -0.723318 0
M  V30 7399 H 682.007 -0.228525 -1.93556 0
M  V30 7400 H 681.103 0.869933 -2.99731 0
M  V30 7401 N 681.404 1.57128 0.121893 0
M  V30 7402 C 682.337 1.95327 1.17995 0
M  V30 7403 C 683.315 0.822524 1.40262 0
M  V30 7404 O 684.499 1.08044 1.54463 0
M  V30 7405 C 681.626 2.24699 2.53432 0
M  V30 7406 C 680.672 3.47263 2.4761 0
M  V30 7407 S 681.505 4.99951 1.91857 0
M  V30 7408 C 682.661 5.32473 3.28973 0
M  V30 7409 H 682.894 2.84765 0.854182 0
M  V30 7410 H 680.427 1.50864 0.328534 0
M  V30 7411 H 682.385 2.423 3.31362 0
M  V30 7412 H 681.046 1.3588 2.83188 0
M  V30 7413 H 680.239 3.65171 3.4737 0
M  V30 7414 H 679.841 3.29034 1.778 0
M  V30 7415 H 682.133 5.27478 4.25175 0
M  V30 7416 H 683.076 6.33732 3.15895 0
M  V30 7417 H 683.484 4.59952 3.27268 0
M  V30 7418 N 682.882 -0.391992 1.52647 0
M  V30 7419 C 684.122 -1.1463 1.69232 0
M  V30 7420 C 684.486 -1.87312 0.421684 0
M  V30 7421 O 685.687 -2.64768 0.463852 0
M  V30 7422 C 683.958 -2.10088 2.89133 0
M  V30 7423 S 685.517 -2.93395 3.2629 0
M  V30 7424 H 682.335 -0.388076 0.59575 0
M  V30 7425 H 684.937 -0.431149 1.90687 0
M  V30 7426 H 683.641 -1.55408 3.79837 0
M  V30 7427 H 683.172 -2.86116 2.70003 0
M  V30 7428 H 685.187 -4.12193 2.76244 0
M  V30 7429 N 684.36 -1.4356 -0.65026 0
M  V30 7430 C 685.29 -1.51758 -1.77459 0
M  V30 7431 C 686.271 -0.372019 -1.65982 0
M  V30 7432 O 687.456 -0.589627 -1.85033 0
M  V30 7433 C 684.586 -1.44302 -3.15902 0
M  V30 7434 C 683.54 -2.57138 -3.42146 0
M  V30 7435 C 682.866 -2.34735 -4.8042 0
M  V30 7436 C 684.166 -3.99373 -3.36598 0
M  V30 7437 H 685.86 -2.45863 -1.70855 0
M  V30 7438 H 683.406 -1.18333 -0.820566 0
M  V30 7439 H 685.359 -1.48641 -3.94314 0
M  V30 7440 H 684.083 -0.467026 -3.23244 0
M  V30 7441 H 682.742 -2.52157 -2.66106 0
M  V30 7442 H 682.39 -1.35372 -4.84441 0
M  V30 7443 H 682.09 -3.10375 -4.9894 0
M  V30 7444 H 683.614 -2.40862 -5.61086 0
M  V30 7445 H 685.028 -4.05826 -4.04942 0
M  V30 7446 H 683.425 -4.75063 -3.66654 0
M  V30 7447 H 684.495 -4.243 -2.34729 0
M  V30 7448 N 685.838 0.888903 -1.30139 0
M  V30 7449 C 687.068 1.67115 -1.21474 0
M  V30 7450 C 687.476 1.87852 0.225472 0
M  V30 7451 O 686.819 1.42324 1.16145 0
M  V30 7452 C 686.881 3.0713 -1.86846 0
M  V30 7453 C 686.545 3.09582 -3.36167 0
M  V30 7454 C 687.542 2.88929 -4.32222 0
M  V30 7455 C 685.227 3.31304 -3.77549 0
M  V30 7456 C 687.221 2.89949 -5.67634 0
M  V30 7457 C 684.908 3.31954 -5.13079 0
M  V30 7458 C 685.906 3.113 -6.07932 0
M  V30 7459 O 685.594 3.11758 -7.40987 0
M  V30 7460 H 685.326 0.528372 -0.421662 0
M  V30 7461 H 687.88 1.11919 -1.7223 0
M  V30 7462 H 686.11 3.63973 -1.30615 0
M  V30 7463 H 687.799 3.6749 -1.72354 0
M  V30 7464 H 688.565 2.71948 -4.01584 0
M  V30 7465 H 684.444 3.46417 -3.04165 0
M  V30 7466 H 687.988 2.73746 -6.41645 0
M  V30 7467 H 683.885 3.48469 -5.43359 0
M  V30 7468 H 684.653 3.27951 -7.49927 0
M  V30 7469 N 687.317 1.12792 1.10072 0
M  V30 7470 C 688.247 0.821688 2.18565 0
M  V30 7471 C 689.228 -0.21612 1.68721 0
M  V30 7472 O 690.413 -0.0764932 1.94049 0
M  V30 7473 C 687.543 0.279624 3.46172 0
M  V30 7474 C 686.497 1.25092 4.09312 0
M  V30 7475 C 685.823 0.568916 5.31665 0
M  V30 7476 C 687.123 2.60699 4.52585 0
M  V30 7477 H 688.817 1.72888 2.44438 0
M  V30 7478 H 686.363 0.832702 1.17482 0
M  V30 7479 H 688.316 0.053099 4.21367 0
M  V30 7480 H 687.04 -0.662929 3.19801 0
M  V30 7481 H 685.699 1.46332 3.36129 0
M  V30 7482 H 685.347 -0.378898 5.01571 0
M  V30 7483 H 685.047 1.21687 5.74862 0
M  V30 7484 H 686.571 0.351517 6.09587 0
M  V30 7485 H 687.985 2.43465 5.19035 0
M  V30 7486 H 686.382 3.21608 5.06644 0
M  V30 7487 H 687.452 3.1886 3.65317 0
M  V30 7488 N 688.795 -1.27931 0.920396 0
M  V30 7489 C 689.705 -2.30824 0.419212 0
M  V30 7490 C 690.721 -1.66767 -0.496461 0
M  V30 7491 O 691.897 -1.97763 -0.38104 0
M  V30 7492 C 688.962 -3.45158 -0.326601 0
M  V30 7493 C 688.023 -4.24754 0.623098 0
M  V30 7494 C 687.256 -5.33629 -0.0872172 0
M  V30 7495 O 687.479 -5.55204 -1.30784 0
M  V30 7496 O 686.413 -5.99091 0.580875 0
M  V30 7497 H 690.239 -2.75716 1.27337 0
M  V30 7498 H 687.824 -1.32747 0.685465 0
M  V30 7499 H 689.706 -4.14716 -0.747559 0
M  V30 7500 H 688.381 -3.02336 -1.15648 0
M  V30 7501 H 687.288 -3.57759 1.09359 0
M  V30 7502 H 688.621 -4.71272 1.41998 0
M  V30 7503 N 690.273 -0.685099 -1.4193 0
M  V30 7504 C 691.684 -0.287699 -1.8447 0
M  V30 7505 C 692.035 1.17215 -1.57338 0
M  V30 7506 O 691.16 1.89856 -1.03845 0
M  V30 7507 C 691.755 -0.515385 -3.34857 0
M  V30 7508 C 690.314 -0.172006 -3.76007 0
M  V30 7509 C 689.461 -0.802808 -2.65425 0
M  V30 7510 H 692.412 -0.88652 -1.3163 0
M  V30 7511 H 692.433 0.229251 -3.79809 0
M  V30 7512 H 691.945 -1.57796 -3.54573 0
M  V30 7513 H 690.046 0.886716 -3.61895 0
M  V30 7514 H 690.159 -0.619717 -4.75075 0
M  V30 7515 H 688.523 -0.233267 -2.5363 0
M  V30 7516 H 689.306 -1.86904 -2.87961 0
M  V30 7517 N 691.751 1.51645 -0.429126 0
M  V30 7518 C 692.683 2.25279 0.422124 0
M  V30 7519 C 693.696 1.28986 0.993299 0
M  V30 7520 O 694.885 1.54797 0.888836 0
M  V30 7521 C 691.985 2.98666 1.60162 0
M  V30 7522 C 691.158 4.2199 1.15078 0
M  V30 7523 C 690.217 4.78028 2.19946 0
M  V30 7524 O 689.243 5.40084 1.79716 0
M  V30 7525 N 690.445 4.61342 3.5234 0
M  V30 7526 H 693.21 2.98971 -0.208931 0
M  V30 7527 H 690.771 1.59838 -0.257568 0
M  V30 7528 H 692.763 3.33044 2.29922 0
M  V30 7529 H 691.333 2.28036 2.13818 0
M  V30 7530 H 690.553 3.932 0.280552 0
M  V30 7531 H 691.841 5.02037 0.826831 0
M  V30 7532 H 691.239 4.11894 3.87763 0
M  V30 7533 H 689.796 5.00104 4.18019 0
M  V30 7534 N 693.229 0.160201 1.56784 0
M  V30 7535 C 694.477 -0.486625 1.96154 0
M  V30 7536 C 694.798 -1.64525 1.04673 0
M  V30 7537 O 694.068 -1.95586 0.110864 0
M  V30 7538 H 692.648 -0.182764 0.724297 0
M  V30 7539 H 695.31 0.238787 1.93432 0
M  V30 7540 H 694.406 -0.854025 3.00188 0
M  V30 7541 N 694.707 -1.5719 -0.113559 0
M  V30 7542 C 695.935 -1.89328 -0.834422 0
M  V30 7543 C 696.35 -0.752018 -1.73177 0
M  V30 7544 O 695.707 0.276912 -1.80387 0
M  V30 7545 C 695.758 -3.20962 -1.66329 0
M  V30 7546 O 695.479 -4.30695 -0.802069 0
M  V30 7547 C 696.98 -3.6684 -2.48884 0
M  V30 7548 H 694.2 -0.626769 -0.239587 0
M  V30 7549 H 696.744 -2.04273 -0.0963195 0
M  V30 7550 H 694.899 -3.0767 -2.35409 0
M  V30 7551 H 695.313 -5.06175 -1.37431 0
M  V30 7552 H 696.787 -4.61692 -3.02563 0
M  V30 7553 H 697.264 -2.93765 -3.26495 0
M  V30 7554 H 697.87 -3.82938 -1.85036 0
M  V30 7555 N 696.185 0.383891 -1.52853 0
M  V30 7556 C 697.115 1.47559 -1.80965 0
M  V30 7557 C 698.096 1.5669 -0.661986 0
M  V30 7558 O 699.281 1.71556 -0.910072 0
M  V30 7559 C 696.411 2.85114 -1.98312 0
M  V30 7560 C 695.365 2.9082 -3.14019 0
M  V30 7561 C 694.691 4.30873 -3.16627 0
M  V30 7562 C 695.991 2.60001 -4.52986 0
M  V30 7563 H 697.685 1.24283 -2.72386 0
M  V30 7564 H 695.231 0.596445 -1.31067 0
M  V30 7565 H 697.184 3.61496 -2.16561 0
M  V30 7566 H 695.908 3.09738 -1.03585 0
M  V30 7567 H 694.567 2.16886 -2.9556 0
M  V30 7568 H 694.215 4.52545 -2.19573 0
M  V30 7569 H 693.915 4.3561 -3.94357 0
M  V30 7570 H 695.439 5.09154 -3.37038 0
M  V30 7571 H 696.853 3.261 -4.71521 0
M  V30 7572 H 695.25 2.76081 -5.32822 0
M  V30 7573 H 696.32 1.5532 -4.59351 0
M  V30 7574 N 697.663 1.43903 0.642637 0
M  V30 7575 C 698.91 1.46079 1.40239 0
M  V30 7576 C 699.238 0.0890335 1.94296 0
M  V30 7577 O 698.493 -0.907533 1.73385 0
M  V30 7578 C 698.792 2.45907 2.59354 0
M  V30 7579 C 698.458 3.91522 2.23654 0
M  V30 7580 C 697.12 4.31179 2.1363 0
M  V30 7581 C 699.472 4.83242 1.95261 0
M  V30 7582 C 696.8 5.60495 1.73384 0
M  V30 7583 C 699.152 6.12933 1.56511 0
M  V30 7584 C 697.816 6.51556 1.4502 0
M  V30 7585 H 697.086 0.534542 0.513172 0
M  V30 7586 H 699.733 1.77047 0.72984 0
M  V30 7587 H 698.038 2.08381 3.3179 0
M  V30 7588 H 699.735 2.44842 3.17574 0
M  V30 7589 H 696.325 3.60142 2.32369 0
M  V30 7590 H 700.509 4.53367 2.0192 0
M  V30 7591 H 695.765 5.89249 1.63082 0
M  V30 7592 H 699.939 6.83469 1.33576 0
M  V30 7593 H 697.566 7.51663 1.13606 0
M  V30 7594 N 699.141 -0.881989 1.30609 0
M  V30 7595 C 700.104 -1.96957 1.1722 0
M  V30 7596 C 701.104 -1.60472 0.102598 0
M  V30 7597 O 702.294 -1.70628 0.350943 0
M  V30 7598 C 699.426 -3.31463 0.796572 0
M  V30 7599 H 700.619 -2.10262 2.13846 0
M  V30 7600 H 698.172 -1.06877 1.14048 0
M  V30 7601 H 698.907 -3.23859 -0.169053 0
M  V30 7602 H 698.692 -3.59314 1.56959 0
M  V30 7603 H 700.182 -4.11233 0.72645 0
M  V30 7604 N 700.619 -1.13374 -1.09472 0
M  V30 7605 C 701.529 -0.824029 -2.19652 0
M  V30 7606 C 702.545 0.19118 -1.72947 0
M  V30 7607 O 703.721 0.0223464 -2.01388 0
M  V30 7608 C 700.786 -0.294009 -3.45451 0
M  V30 7609 C 699.847 -1.3704 -4.0684 0
M  V30 7610 C 699.08 -0.86558 -5.26634 0
M  V30 7611 O 699.303 0.29702 -5.69626 0
M  V30 7612 O 698.237 -1.63968 -5.79136 0
M  V30 7613 H 702.063 -1.74454 -2.48595 0
M  V30 7614 H 699.648 -0.911155 -1.18399 0
M  V30 7615 H 701.53 -0.00381039 -4.214 0
M  V30 7616 H 700.205 0.598921 -3.18111 0
M  V30 7617 H 699.112 -1.71391 -3.3253 0
M  V30 7618 H 700.445 -2.23746 -4.38405 0
M  V30 7619 N 702.098 1.27442 -0.927168 0
M  V30 7620 C 703.344 1.94679 -0.568164 0
M  V30 7621 C 703.677 1.72697 0.888219 0
M  V30 7622 O 702.952 1.05573 1.63354 0
M  V30 7623 C 703.235 3.4882 -0.894253 0
M  V30 7624 C 703.088 3.80146 -2.40435 0
M  V30 7625 C 704.407 4.38281 -0.399766 0
M  V30 7626 H 701.526 0.707071 -0.207892 0
M  V30 7627 H 704.168 1.50568 -1.15885 0
M  V30 7628 H 702.318 3.86522 -0.391566 0
M  V30 7629 H 703.99 3.52238 -2.97869 0
M  V30 7630 H 702.233 3.26716 -2.85375 0
M  V30 7631 H 702.904 4.87835 -2.58304 0
M  V30 7632 H 705.38 4.07726 -0.83058 0
M  V30 7633 H 704.256 5.44955 -0.656885 0
M  V30 7634 H 704.517 4.36521 0.700153 0
M  V30 7635 N 703.576 0.692616 1.41565 0
M  V30 7636 C 704.804 0.231279 2.05603 0
M  V30 7637 C 705.219 -1.11837 1.52111 0
M  V30 7638 O 704.576 -1.6983 0.66813 0
M  V30 7639 C 704.627 0.177125 3.61066 0
M  V30 7640 O 704.348 1.47346 4.12578 0
M  V30 7641 C 705.849 -0.30556 4.42246 0
M  V30 7642 H 703.069 0.108238 0.662213 0
M  V30 7643 H 705.613 0.944369 1.81389 0
M  V30 7644 H 703.768 -0.486769 3.8433 0
M  V30 7645 H 704.182 1.35861 5.06599 0
M  V30 7646 H 705.656 -0.29233 5.51225 0
M  V30 7647 H 706.133 -1.34393 4.18133 0
M  V30 7648 H 706.739 0.327229 4.24039 0
M  V30 7649 N 705.054 -1.51416 0.437162 0
M  V30 7650 C 706.301 -2.02086 -0.129364 0
M  V30 7651 C 706.629 -1.32133 -1.42728 0
M  V30 7652 O 705.884 -0.424916 -1.91031 0
M  V30 7653 C 706.183 -3.55203 -0.39564 0
M  V30 7654 C 705.849 -4.43447 0.81644 0
M  V30 7655 C 704.511 -4.67285 1.14884 0
M  V30 7656 C 706.863 -4.95219 1.62503 0
M  V30 7657 C 704.191 -5.40141 2.29052 0
M  V30 7658 C 706.543 -5.69327 2.7577 0
M  V30 7659 C 705.207 -5.91429 3.09464 0
M  V30 7660 H 704.477 -0.739486 -0.0473375 0
M  V30 7661 H 707.124 -1.82368 0.584321 0
M  V30 7662 H 705.429 -3.73252 -1.19121 0
M  V30 7663 H 707.126 -3.91944 -0.847399 0
M  V30 7664 H 703.716 -4.2509 0.547422 0
M  V30 7665 H 707.9 -4.76686 1.38144 0
M  V30 7666 H 703.156 -5.55468 2.55471 0
M  V30 7667 H 707.33 -6.08433 3.38795 0
M  V30 7668 H 704.957 -6.47662 3.98042 0
M  V30 7669 N 706.532 -0.168513 -1.56696 0
M  V30 7670 C 707.779 0.477158 -1.96798 0
M  V30 7671 C 708.107 1.63442 -1.05437 0
M  V30 7672 O 707.362 1.95503 -0.0878903 0
M  V30 7673 C 707.661 1.00441 -3.42996 0
M  V30 7674 C 707.327 -0.0366556 -4.50885 0
M  V30 7675 C 705.989 -0.322785 -4.80116 0
M  V30 7676 C 708.341 -0.743447 -5.1587 0
M  V30 7677 C 705.669 -1.32114 -5.71632 0
M  V30 7678 C 708.021 -1.73077 -6.08463 0
M  V30 7679 C 706.685 -2.02437 -6.36062 0
M  V30 7680 H 705.955 0.174604 -0.720135 0
M  V30 7681 H 708.602 -0.259884 -1.89728 0
M  V30 7682 H 706.907 1.81922 -3.47004 0
M  V30 7683 H 708.604 1.51294 -3.71364 0
M  V30 7684 H 705.194 0.196532 -4.28149 0
M  V30 7685 H 709.378 -0.535602 -4.93401 0
M  V30 7686 H 704.634 -1.55482 -5.913 0
M  V30 7687 H 708.808 -2.28382 -6.57886 0
M  V30 7688 H 706.435 -2.79946 -7.06777 0
M  V30 7689 N 708.01 1.57248 0.105221 0
M  V30 7690 C 708.958 2.02337 1.14728 0
M  V30 7691 C 709.952 0.922652 1.42069 0
M  V30 7692 O 711.158 1.10785 1.41869 0
M  V30 7693 H 707.533 0.644682 0.387155 0
M  V30 7694 H 709.504 2.89063 0.740607 0
M  V30 7695 C 708.253 2.45513 2.46209 0
M  V30 7696 H 707.576 3.29785 2.26013 0
M  V30 7697 H 709.016 2.80846 3.1765 0
M  V30 7698 C 707.475 1.3243 3.09781 0
M  V30 7699 O 708.005 0.647841 3.96442 0
M  V30 7700 N 706.211 1.07785 2.69872 0
M  V30 7701 H 705.758 1.62973 1.99493 0
M  V30 7702 H 705.716 0.323204 3.12734 0
M  V30 7703 N 709.488 -0.375779 1.53054 0
M  V30 7704 C 710.899 -0.95309 1.6054 0
M  V30 7705 C 711.25 -1.90575 0.466446 0
M  V30 7706 O 710.375 -2.12507 -0.408609 0
M  V30 7707 C 710.97 -1.73537 2.90982 0
M  V30 7708 C 709.529 -2.26218 3.00836 0
M  V30 7709 C 708.676 -1.07157 2.55759 0
M  V30 7710 H 711.627 -0.154895 1.57942 0
M  V30 7711 H 711.648 -2.59574 2.78211 0
M  V30 7712 H 711.16 -1.04176 3.73857 0
M  V30 7713 H 709.261 -2.98852 2.22527 0
M  V30 7714 H 709.374 -2.54799 4.05727 0
M  V30 7715 H 707.738 -1.43553 2.10391 0
M  V30 7716 H 708.521 -0.393099 3.41042 0
M  V30 7717 N 710.966 -1.44241 -0.634997 0
M  V30 7718 C 712.212 -1.47038 -1.39669 0
M  V30 7719 C 712.545 -0.101122 -1.93937 0
M  V30 7720 O 711.82 0.880699 -1.73418 0
M  V30 7721 C 712.103 -2.52763 -2.56482 0
M  V30 7722 C 711.956 -3.99032 -2.07589 0
M  V30 7723 C 713.275 -2.55031 -3.58674 0
M  V30 7724 H 710.394 -0.53537 -0.506506 0
M  V30 7725 H 713.036 -1.75898 -0.718317 0
M  V30 7726 H 711.186 -2.28284 -3.14354 0
M  V30 7727 H 712.858 -4.3463 -1.54577 0
M  V30 7728 H 711.101 -4.10994 -1.38804 0
M  V30 7729 H 711.772 -4.68649 -2.91671 0
M  V30 7730 H 714.248 -2.76893 -3.10595 0
M  V30 7731 H 713.124 -3.30916 -4.37934 0
M  V30 7732 H 713.385 -1.59085 -4.12486 0
M  V30 7733 N 712.444 0.87505 -1.31075 0
M  V30 7734 C 713.693 1.62245 -1.19831 0
M  V30 7735 C 714.006 1.94078 0.24357 0
M  V30 7736 O 715.212 2.67265 0.477646 0
M  V30 7737 C 713.668 2.92464 -2.09744 0
M  V30 7738 C 713.276 2.68134 -3.58898 0
M  V30 7739 C 715.02 3.70449 -2.07287 0
M  V30 7740 C 712.927 3.9423 -4.40836 0
M  V30 7741 H 711.857 0.608741 -0.444916 0
M  V30 7742 H 714.508 0.967947 -1.55894 0
M  V30 7743 H 712.89 3.59262 -1.66574 0
M  V30 7744 H 714.064 2.09776 -4.10281 0
M  V30 7745 H 712.379 2.03511 -3.6328 0
M  V30 7746 H 714.976 4.63983 -2.65752 0
M  V30 7747 H 715.319 4.02611 -1.05876 0
M  V30 7748 H 715.852 3.10528 -2.48631 0
M  V30 7749 H 712.591 3.67221 -5.42982 0
M  V30 7750 H 712.111 4.52058 -3.94213 0
M  V30 7751 H 713.79 4.62162 -4.52786 0
M  V30 7752 N 713.922 1.13953 1.08869 0
M  V30 7753 C 714.832 0.835666 2.19212 0
M  V30 7754 C 715.848 -0.182005 1.73045 0
M  V30 7755 O 717.024 -0.0116661 2.01397 0
M  V30 7756 C 714.089 0.312325 3.4529 0
M  V30 7757 C 713.15 1.39196 4.06107 0
M  V30 7758 C 712.383 0.893496 5.26168 0
M  V30 7759 O 712.606 -0.266807 5.69776 0
M  V30 7760 O 711.54 1.67037 5.78258 0
M  V30 7761 H 715.366 1.75769 2.47667 0
M  V30 7762 H 712.951 0.917421 1.17914 0
M  V30 7763 H 714.833 0.0261582 4.21392 0
M  V30 7764 H 713.508 -0.582042 3.18424 0
M  V30 7765 H 712.415 1.73152 3.31616 0
M  V30 7766 H 713.748 2.26068 4.37212 0
M  V30 7767 N 715.4 -1.26948 0.933913 0
M  V30 7768 C 716.816 -1.46419 0.635103 0
M  V30 7769 C 717.016 -1.84336 -0.813785 0
M  V30 7770 O 716.072 -1.96061 -1.59111 0
M  V30 7771 C 717.385 -2.55206 1.5903 0
M  V30 7772 C 718.933 -2.69062 1.5992 0
M  V30 7773 C 719.408 -3.81013 2.54152 0
M  V30 7774 N 720.899 -3.88395 2.52395 0
M  V30 7775 C 721.634 -4.74454 3.21996 0
M  V30 7776 N 721.13 -5.64954 4.00997 0
M  V30 7777 N 722.923 -4.68237 3.10983 0
M  V30 7778 H 715.074 -1.00622 1.87053 0
M  V30 7779 H 717.337 -0.503189 0.803433 0
M  V30 7780 H 717.043 -2.34153 2.62422 0
M  V30 7781 H 716.917 -3.52719 1.33677 0
M  V30 7782 H 719.304 -2.89492 0.572569 0
M  V30 7783 H 719.385 -1.72016 1.89325 0
M  V30 7784 H 719.029 -3.61336 3.5693 0
M  V30 7785 H 718.959 -4.77499 2.22041 0
M  V30 7786 H 721.45 -3.23687 1.95025 0
M  V30 7787 H 721.763 -6.27496 4.51074 0
M  V30 7788 H 720.108 -5.6473 4.05099 0
M  V30 7789 H 723.299 -3.96535 2.48753 0
M  V30 7790 H 723.472 -5.35087 3.65494 0
M  V30 7791 N 716.879 -0.700114 -1.41195 0
M  V30 7792 C 718.295 -0.372114 -1.55201 0
M  V30 7793 C 718.495 1.12053 -1.6747 0
M  V30 7794 O 717.551 1.90642 -1.65566 0
M  V30 7795 C 718.864 -1.12462 -2.78878 0
M  V30 7796 C 720.412 -1.10941 -2.92679 0
M  V30 7797 C 720.887 -1.84376 -4.19249 0
M  V30 7798 N 722.378 -1.81368 -4.26216 0
M  V30 7799 C 723.113 -2.35024 -5.23021 0
M  V30 7800 N 722.609 -2.9717 -6.25829 0
M  V30 7801 N 724.402 -2.25254 -5.14992 0
M  V30 7802 H 716.553 -1.66816 -1.31477 0
M  V30 7803 H 718.816 -0.704223 -0.634644 0
M  V30 7804 H 718.522 -2.17937 -2.76037 0
M  V30 7805 H 718.396 -0.706152 -3.70531 0
M  V30 7806 H 720.783 -0.062911 -2.95033 0
M  V30 7807 H 720.864 -1.56698 -2.02187 0
M  V30 7808 H 720.508 -2.89008 -4.17656 0
M  V30 7809 H 720.438 -1.3605 -5.08722 0
M  V30 7810 H 722.929 -1.36062 -3.52556 0
M  V30 7811 H 723.242 -3.35668 -6.96094 0
M  V30 7812 H 721.587 -3.01249 -6.26318 0
M  V30 7813 H 724.778 -1.76372 -4.33602 0
M  V30 7814 H 724.951 -2.67373 -5.90268 0
M  V30 7815 N 718.357 1.51182 -0.445186 0
M  V30 7816 C 719.768 1.86693 0.0160999 0
M  V30 7817 C 720.119 1.36183 1.4124 0
M  V30 7818 O 719.244 0.715895 2.04215 0
M  V30 7819 C 719.839 3.38781 0.0359918 0
M  V30 7820 C 718.398 3.73799 0.441715 0
M  V30 7821 C 717.545 2.74947 -0.360511 0
M  V30 7822 H 720.496 1.44294 -0.660674 0
M  V30 7823 H 720.517 3.71026 0.843813 0
M  V30 7824 H 720.029 3.75513 -0.980378 0
M  V30 7825 H 718.13 3.42659 1.4634 0
M  V30 7826 H 718.243 4.78829 0.16106 0
M  V30 7827 H 716.607 2.54047 0.182269 0
M  V30 7828 H 717.39 3.14521 -1.3759 0
M  V30 7829 N 719.835 0.176821 1.56605 0
M  V30 7830 C 720.782 -0.751312 2.18229 0
M  V30 7831 C 721.752 -1.22297 1.12395 0
M  V30 7832 O 722.937 -1.29015 1.40569 0
M  V30 7833 C 720.077 -1.97291 2.83143 0
M  V30 7834 C 719.19 -1.54431 4.03454 0
M  V30 7835 C 718.325 -2.72 4.56278 0
M  V30 7836 C 717.364 -2.25657 5.68986 0
M  V30 7837 N 716.501 -3.36338 6.16296 0
M  V30 7838 H 721.341 -0.219033 2.97194 0
M  V30 7839 H 718.878 -0.0963803 1.46784 0
M  V30 7840 H 720.836 -2.68949 3.1894 0
M  V30 7841 H 719.466 -2.4788 2.06773 0
M  V30 7842 H 718.518 -0.724273 3.73441 0
M  V30 7843 H 719.83 -1.16417 4.85024 0
M  V30 7844 H 718.984 -3.51806 4.94285 0
M  V30 7845 H 717.723 -3.13277 3.73777 0
M  V30 7846 H 716.728 -1.44299 5.30526 0
M  V30 7847 H 717.953 -1.85432 6.53293 0
M  V30 7848 H 715.899 -3.7718 5.36723 0
M  V30 7849 H 715.816 -3.02435 6.9287 0
M  V30 7850 H 717.084 -4.16413 6.58954 0
M  V30 7851 N 721.313 -1.57302 -0.09688 0
M  V30 7852 C 722.243 -2.0497 -1.11846 0
M  V30 7853 C 723.224 -0.938278 -1.41882 0
M  V30 7854 O 724.409 -1.20943 -1.51942 0
M  V30 7855 C 721.539 -2.47264 -2.43881 0
M  V30 7856 C 720.493 -3.62053 -2.28257 0
M  V30 7857 C 719.819 -3.90318 -3.65453 0
M  V30 7858 C 721.119 -4.93005 -1.72461 0
M  V30 7859 H 722.813 -2.90567 -0.721888 0
M  V30 7860 H 720.359 -1.39786 -0.345803 0
M  V30 7861 H 722.312 -2.7922 -3.15617 0
M  V30 7862 H 721.036 -1.58664 -2.8547 0
M  V30 7863 H 719.695 -3.30341 -1.58967 0
M  V30 7864 H 719.343 -2.98889 -4.04567 0
M  V30 7865 H 719.043 -4.67597 -3.55846 0
M  V30 7866 H 720.567 -4.24747 -4.3866 0
M  V30 7867 H 721.981 -5.23354 -2.34036 0
M  V30 7868 H 720.378 -5.74436 -1.73618 0
M  V30 7869 H 721.448 -4.80053 -0.683898 0
M  V30 7870 N 722.791 0.367657 -1.53252 0
M  V30 7871 C 723.723 1.47032 -1.75824 0
M  V30 7872 C 724.736 1.49736 -0.63898 0
M  V30 7873 O 725.925 1.53253 -0.915193 0
M  V30 7874 C 723.025 2.85805 -1.82122 0
M  V30 7875 C 722.198 3.06822 -3.11736 0
M  V30 7876 C 721.257 4.25698 -3.09302 0
M  V30 7877 O 720.283 4.20972 -3.83107 0
M  V30 7878 N 721.485 5.33002 -2.29977 0
M  V30 7879 H 724.25 1.28048 -2.70968 0
M  V30 7880 H 721.811 0.557363 -1.52004 0
M  V30 7881 H 723.803 3.63465 -1.77975 0
M  V30 7882 H 722.373 2.98046 -0.942716 0
M  V30 7883 H 721.593 2.1684 -3.29202 0
M  V30 7884 H 722.881 3.17731 -3.97397 0
M  V30 7885 H 722.279 5.39703 -1.69521 0
M  V30 7886 H 720.836 6.09247 -2.3165 0
M  V30 7887 N 724.269 1.44576 0.627338 0
M  V30 7888 C 725.685 1.28546 0.945938 0
M  V30 7889 C 725.885 0.224003 2.00251 0
M  V30 7890 O 724.941 -0.388817 2.49488 0
M  V30 7891 C 726.254 2.65825 1.40561 0
M  V30 7892 C 727.802 2.73566 1.52088 0
M  V30 7893 C 728.277 4.11323 2.01438 0
M  V30 7894 N 729.768 4.13519 2.08702 0
M  V30 7895 C 730.503 5.16964 2.48065 0
M  V30 7896 N 729.999 6.30768 2.86538 0
M  V30 7897 N 731.792 5.04319 2.48232 0
M  V30 7898 H 723.943 2.1228 -0.0713567 0
M  V30 7899 H 726.206 0.947503 0.0307081 0
M  V30 7900 H 725.912 3.44591 0.703539 0
M  V30 7901 H 725.786 2.92969 2.37591 0
M  V30 7902 H 728.173 1.95116 2.21391 0
M  V30 7903 H 728.254 2.50159 0.534237 0
M  V30 7904 H 727.898 4.9025 1.32729 0
M  V30 7905 H 727.828 4.32109 3.0098 0
M  V30 7906 H 730.319 3.31385 1.81638 0
M  V30 7907 H 730.632 7.0551 3.15398 0
M  V30 7908 H 728.977 6.342 2.84281 0
M  V30 7909 H 732.168 4.14465 2.17569 0
M  V30 7910 H 732.341 5.85059 2.78585 0
M  V30 7911 N 725.747 -0.868086 1.31537 0
M  V30 7912 C 726.679 -1.98165 1.15166 0
M  V30 7913 C 727.692 -1.6255 0.0902335 0
M  V30 7914 O 728.881 -1.75272 0.33791 0
M  V30 7915 C 725.981 -3.30772 0.737776 0
M  V30 7916 C 725.154 -3.94716 1.88462 0
M  V30 7917 C 724.213 -5.05641 1.45648 0
M  V30 7918 O 723.239 -5.2636 2.16642 0
M  V30 7919 N 724.441 -5.79474 0.34493 0
M  V30 7920 H 727.206 -2.12754 2.11083 0
M  V30 7921 H 724.767 -1.04217 1.23897 0
M  V30 7922 H 726.759 -4.02366 0.434032 0
M  V30 7923 H 725.329 -3.1233 -0.129834 0
M  V30 7924 H 724.549 -3.16079 2.35558 0
M  V30 7925 H 725.837 -4.34175 2.65273 0
M  V30 7926 H 725.235 -5.65164 -0.246259 0
M  V30 7927 H 723.792 -6.51722 0.100728 0
M  V30 7928 N 727.225 -1.14528 -1.08264 0
M  V30 7929 C 728.172 -0.833556 -2.15222 0
M  V30 7930 C 729.142 0.209539 -1.64773 0
M  V30 7931 O 730.327 0.0791388 -1.90636 0
M  V30 7932 C 727.467 -0.318799 -3.43624 0
M  V30 7933 C 726.58 -1.42237 -4.07913 0
M  V30 7934 C 725.715 -0.864704 -5.24115 0
M  V30 7935 C 724.754 -1.94585 -5.80347 0
M  V30 7936 N 723.891 -1.40525 -6.87893 0
M  V30 7937 H 728.731 -1.74965 -2.41228 0
M  V30 7938 H 726.268 -0.873169 -1.18381 0
M  V30 7939 H 728.226 -0.00213088 -4.172 0
M  V30 7940 H 726.856 0.560397 -3.17898 0
M  V30 7941 H 725.908 -1.8554 -3.32083 0
M  V30 7942 H 727.22 -2.23901 -4.45724 0
M  V30 7943 H 726.374 -0.500025 -6.04636 0
M  V30 7944 H 725.113 -0.0171219 -4.87697 0
M  V30 7945 H 724.118 -2.31946 -4.98479 0
M  V30 7946 H 725.343 -2.79704 -6.18823 0
M  V30 7947 H 723.289 -0.579873 -6.53432 0
M  V30 7948 H 723.206 -2.15825 -7.24538 0
M  V30 7949 H 724.474 -1.06852 -7.72142 0
M  V30 7950 N 728.703 1.26451 -0.940633 0
M  V30 7951 C 729.65 2.264 -0.448497 0
M  V30 7952 C 730.62 1.5866 0.491546 0
M  V30 7953 O 731.805 1.86389 0.407874 0
M  V30 7954 C 728.945 3.43956 0.280715 0
M  V30 7955 C 728.058 4.26374 -0.694937 0
M  V30 7956 C 727.193 5.31171 0.0554186 0
M  V30 7957 C 726.232 6.05266 -0.912091 0
M  V30 7958 N 725.369 7.01833 -0.193524 0
M  V30 7959 H 730.209 2.67869 -1.30576 0
M  V30 7960 H 727.746 1.31707 -0.655112 0
M  V30 7961 H 729.704 4.10941 0.71994 0
M  V30 7962 H 728.334 3.03403 1.10212 0
M  V30 7963 H 727.386 3.59183 -1.25267 0
M  V30 7964 H 728.698 4.77748 -1.43382 0
M  V30 7965 H 727.852 6.04166 0.553951 0
M  V30 7966 H 726.591 4.80634 0.827183 0
M  V30 7967 H 725.596 5.31099 -1.42175 0
M  V30 7968 H 726.821 6.57893 -1.68385 0
M  V30 7969 H 724.767 6.53607 0.559758 0
M  V30 7970 H 724.684 7.50957 -0.871744 0
M  V30 7971 H 725.952 7.78983 0.283932 0
M  V30 7972 N 730.181 0.707592 1.40822 0
M  V30 7973 C 731.43 0.240705 2.00259 0
M  V30 7974 C 731.743 -1.17027 1.56729 0
M  V30 7975 O 732.949 -1.73526 2.08809 0
M  V30 7976 C 731.405 0.379432 3.57894 0
M  V30 7977 C 731.013 1.79654 4.104 0
M  V30 7978 C 732.757 -0.0270684 4.24491 0
M  V30 7979 C 730.664 1.88628 5.60512 0
M  V30 7980 H 729.594 0.0862369 0.749052 0
M  V30 7981 H 732.245 0.877528 1.61157 0
M  V30 7982 H 730.627 -0.325842 3.94657 0
M  V30 7983 H 731.801 2.53155 3.85032 0
M  V30 7984 H 730.116 2.15379 3.56372 0
M  V30 7985 H 732.713 0.0193743 5.34696 0
M  V30 7986 H 733.056 -1.06772 4.02375 0
M  V30 7987 H 733.589 0.628361 3.92806 0
M  V30 7988 H 730.328 2.90787 5.87472 0
M  V30 7989 H 729.848 1.19528 5.8777 0
M  V30 7990 H 731.527 1.6547 6.25483 0
M  V30 7991 N 731.66 -1.50943 0.453197 0
M  V30 7992 C 732.907 -2.02212 -0.107922 0
M  V30 7993 C 733.235 -1.33639 -1.41318 0
M  V30 7994 O 732.49 -0.445154 -1.9057 0
M  V30 7995 C 732.789 -3.55603 -0.357944 0
M  V30 7996 C 732.455 -4.42556 0.863427 0
M  V30 7997 C 731.117 -4.6604 1.19834 0
M  V30 7998 C 733.469 -4.93468 1.67747 0
M  V30 7999 C 730.797 -5.37681 2.34768 0
M  V30 8000 C 733.149 -5.6637 2.81793 0
M  V30 8001 C 731.813 -5.88113 3.1572 0
M  V30 8002 H 731.083 -0.739947 -0.0394916 0
M  V30 8003 H 733.73 -1.81738 0.60363 0
M  V30 8004 H 732.035 -3.74495 -1.15156 0
M  V30 8005 H 733.732 -3.92821 -0.805781 0
M  V30 8006 H 730.322 -4.24485 0.592478 0
M  V30 8007 H 734.506 -4.75194 1.43192 0
M  V30 8008 H 729.762 -5.52727 2.61348 0
M  V30 8009 H 733.936 -6.04806 3.45229 0
M  V30 8010 H 731.563 -6.43404 4.04889 0
M  V30 8011 N 733.138 -0.185124 -1.56509 0
M  V30 8012 C 734.363 0.465278 -2.02114 0
M  V30 8013 C 734.788 1.55083 -1.06447 0
M  V30 8014 O 734.146 1.81241 -0.0462852 0
M  V30 8015 C 734.194 1.00784 -3.46229 0
M  V30 8016 O 733.298 2.12123 -3.53663 0
M  V30 8017 H 732.639 0.109891 -0.654843 0
M  V30 8018 H 735.169 -0.293072 -2.0249 0
M  V30 8019 H 735.179 1.32697 -3.85818 0
M  V30 8020 H 733.854 0.213113 -4.15354 0
M  V30 8021 H 732.431 1.8115 -3.25943 0
M  V30 8022 N 734.616 1.57351 0.0885366 0
M  V30 8023 C 735.563 2.02523 1.10693 0
M  V30 8024 C 736.533 0.902736 1.39427 0
M  V30 8025 O 737.718 1.16921 1.50779 0
M  V30 8026 C 734.858 2.46013 2.42016 0
M  V30 8027 C 733.971 3.7181 2.19957 0
M  V30 8028 C 733.106 4.04152 3.44724 0
M  V30 8029 C 732.145 5.2304 3.17956 0
M  V30 8030 N 731.282 5.51102 4.35007 0
M  V30 8031 H 736.122 2.89302 0.714742 0
M  V30 8032 H 733.659 1.43084 0.341378 0
M  V30 8033 H 735.617 2.69274 3.18665 0
M  V30 8034 H 734.247 1.62235 2.79069 0
M  V30 8035 H 733.299 3.55987 1.34079 0
M  V30 8036 H 734.611 4.58604 1.96173 0
M  V30 8037 H 733.765 4.28225 4.29777 0
M  V30 8038 H 732.504 3.15893 3.71568 0
M  V30 8039 H 731.509 4.98781 2.31296 0
M  V30 8040 H 732.734 6.12902 2.92451 0
M  V30 8041 H 730.68 4.65802 4.61914 0
M  V30 8042 H 730.597 6.3228 4.14437 0
M  V30 8043 H 731.865 5.79714 5.21106 0
M  V30 8044 N 736.094 -0.359525 1.53444 0
M  V30 8045 C 737.026 -1.46098 1.76602 0
M  V30 8046 C 738.039 -1.49395 0.646912 0
M  V30 8047 O 739.228 -1.52765 0.923307 0
M  V30 8048 C 736.328 -2.84836 1.83635 0
M  V30 8049 C 735.501 -3.05164 3.13358 0
M  V30 8050 C 734.56 -4.24051 3.11556 0
M  V30 8051 O 733.586 -4.18935 3.85334 0
M  V30 8052 N 734.788 -5.31775 2.328 0
M  V30 8053 H 737.553 -1.2661 2.71643 0
M  V30 8054 H 735.114 -0.549294 1.52297 0
M  V30 8055 H 737.106 -3.62516 1.799 0
M  V30 8056 H 735.676 -2.97542 0.958509 0
M  V30 8057 H 734.896 -2.15091 3.30348 0
M  V30 8058 H 736.184 -3.15619 3.99076 0
M  V30 8059 H 735.582 -5.38796 1.7238 0
M  V30 8060 H 734.139 -6.0801 2.34877 0
M  V30 8061 N 737.572 -1.44907 -0.619662 0
M  V30 8062 C 738.504 -1.48652 -1.74457 0
M  V30 8063 C 739.517 -0.378596 -1.58337 0
M  V30 8064 O 740.706 -0.644987 -1.6644 0
M  V30 8065 C 737.806 -1.31568 -3.12319 0
M  V30 8066 C 736.979 -2.55816 -3.54792 0
M  V30 8067 C 736.038 -2.33465 -4.71573 0
M  V30 8068 O 735.064 -3.07015 -4.79302 0
M  V30 8069 N 736.266 -1.37254 -5.6404 0
M  V30 8070 H 739.031 -2.45632 -1.71712 0
M  V30 8071 H 736.592 -1.40492 -0.804582 0
M  V30 8072 H 738.584 -1.14445 -3.88181 0
M  V30 8073 H 737.154 -0.429095 -3.09641 0
M  V30 8074 H 736.374 -2.88137 -2.69018 0
M  V30 8075 H 737.662 -3.38431 -3.79924 0
M  V30 8076 H 737.06 -0.765309 -5.60499 0
M  V30 8077 H 735.617 -1.26106 -6.39485 0
M  V30 8078 N 739.05 0.861098 -1.31996 0
M  V30 8079 C 740.298 1.61162 -1.21947 0
M  V30 8080 C 740.619 1.93751 0.220351 0
M  V30 8081 O 739.889 1.59069 1.14341 0
M  V30 8082 H 738.469 0.597485 -0.448353 0
M  V30 8083 H 741.131 1.03039 -1.65436 0
M  V30 8084 H 740.227 2.55138 -1.79752 0
M  V30 8085 N 740.528 1.15101 1.07655 0
M  V30 8086 C 741.475 0.844958 2.14777 0
M  V30 8087 C 742.445 -0.200798 1.64882 0
M  V30 8088 O 743.63 -0.0690278 1.90675 0
M  V30 8089 C 740.77 0.337018 3.4345 0
M  V30 8090 C 739.883 1.44398 4.07153 0
M  V30 8091 C 739.018 0.892487 5.23649 0
M  V30 8092 C 738.057 1.9766 5.79307 0
M  V30 8093 N 737.194 1.44171 6.87138 0
M  V30 8094 H 742.034 1.76242 2.40297 0
M  V30 8095 H 739.571 0.879435 1.17917 0
M  V30 8096 H 741.529 0.024256 4.17193 0
M  V30 8097 H 740.159 -0.543531 3.18191 0
M  V30 8098 H 739.211 1.87299 3.31094 0
M  V30 8099 H 740.523 2.26262 4.4453 0
M  V30 8100 H 739.677 0.532083 6.04362 0
M  V30 8101 H 738.416 0.0429854 4.87681 0
M  V30 8102 H 737.421 2.34586 4.97242 0
M  V30 8103 H 738.646 2.82982 6.17331 0
M  V30 8104 H 736.592 0.614518 6.53115 0
M  V30 8105 H 736.509 2.19665 7.23383 0
M  V30 8106 H 737.777 1.10945 7.71564 0
M  V30 8107 N 742.006 -1.2595 0.947325 0
M  V30 8108 C 743.234 -1.97544 0.615127 0
M  V30 8109 C 743.649 -1.70484 -0.811221 0
M  V30 8110 O 743.006 -0.97662 -1.5417 0
M  V30 8111 C 743.057 -3.51236 0.855328 0
M  V30 8112 O 742.778 -3.77359 2.22558 0
M  V30 8113 C 744.279 -4.40066 0.534515 0
M  V30 8114 H 741.499 -0.629888 0.231263 0
M  V30 8115 H 744.043 -1.60308 1.26971 0
M  V30 8116 H 742.198 -3.8661 0.247266 0
M  V30 8117 H 742.612 -4.71857 2.29022 0
M  V30 8118 H 744.086 -5.46838 0.753168 0
M  V30 8119 H 744.563 -4.35982 -0.530701 0
M  V30 8120 H 745.169 -4.10245 1.12158 0
M  V30 8121 N 743.484 -0.715051 -1.40445 0
M  V30 8122 C 744.731 -0.254328 -2.00897 0
M  V30 8123 C 745.059 1.15228 -1.56693 0
M  V30 8124 O 744.314 1.7958 -0.777786 0
M  V30 8125 C 744.613 -0.281791 -3.56287 0
M  V30 8126 C 744.279 -1.63862 -4.20071 0
M  V30 8127 C 742.941 -2.01003 -4.37208 0
M  V30 8128 C 745.293 -2.53039 -4.55654 0
M  V30 8129 C 742.621 -3.26869 -4.8721 0
M  V30 8130 C 744.973 -3.78256 -5.07055 0
M  V30 8131 C 743.637 -4.15515 -5.22401 0
M  V30 8132 H 742.907 -0.0930652 -0.735133 0
M  V30 8133 H 745.554 -0.917977 -1.68064 0
M  V30 8134 H 743.859 0.465428 -3.89026 0
M  V30 8135 H 745.556 0.0925158 -4.00893 0
M  V30 8136 H 742.146 -1.33979 -4.07121 0
M  V30 8137 H 746.33 -2.2562 -4.42051 0
M  V30 8138 H 741.586 -3.55706 -4.97276 0
M  V30 8139 H 745.76 -4.47528 -5.33565 0
M  V30 8140 H 743.387 -5.13114 -5.60909 0
M  V30 8141 N 744.962 1.50701 -0.461195 0
M  V30 8142 C 745.892 2.31182 0.328184 0
M  V30 8143 C 746.873 1.37644 0.999408 0
M  V30 8144 O 748.058 1.66565 0.99848 0
M  V30 8145 C 745.188 3.17113 1.41621 0
M  V30 8146 C 744.142 4.19124 0.867148 0
M  V30 8147 C 743.468 4.93728 2.05272 0
M  V30 8148 C 744.768 5.22174 -0.114808 0
M  V30 8149 H 746.462 2.97423 -0.343501 0
M  V30 8150 H 744.008 1.43033 -0.166641 0
M  V30 8151 H 745.961 3.72208 1.97584 0
M  V30 8152 H 744.685 2.48739 2.11652 0
M  V30 8153 H 743.344 3.65116 0.329557 0
M  V30 8154 H 742.992 4.21835 2.73978 0
M  V30 8155 H 742.692 5.62724 1.69161 0
M  V30 8156 H 744.216 5.51654 2.61744 0
M  V30 8157 H 745.63 5.72198 0.355316 0
M  V30 8158 H 744.027 5.98833 -0.389689 0
M  V30 8159 H 745.097 4.7353 -1.04391 0
M  V30 8160 N 746.441 0.193421 1.56409 0
M  V30 8161 C 747.857 -0.162447 1.58771 0
M  V30 8162 C 748.057 -1.6116 1.20954 0
M  V30 8163 O 747.113 -2.3469 0.931497 0
M  V30 8164 C 748.426 0.138391 3.00381 0
M  V30 8165 C 749.974 0.0783649 3.12902 0
M  V30 8166 C 750.449 0.352491 4.56642 0
M  V30 8167 N 751.94 0.30105 4.62221 0
M  V30 8168 C 752.675 0.487028 5.71328 0
M  V30 8169 N 752.171 0.733265 6.88909 0
M  V30 8170 N 753.964 0.4214 5.60518 0
M  V30 8171 H 746.115 1.13909 1.79272 0
M  V30 8172 H 748.378 0.454528 0.83193 0
M  V30 8173 H 748.084 1.14312 3.32604 0
M  V30 8174 H 747.958 -0.559804 3.73023 0
M  V30 8175 H 750.345 -0.916963 2.80492 0
M  V30 8176 H 750.426 0.809611 2.4265 0
M  V30 8177 H 750.07 1.34513 4.89764 0
M  V30 8178 H 750 -0.399624 5.25081 0
M  V30 8179 H 752.491 0.117279 3.77718 0
M  V30 8180 H 752.804 0.86403 7.67955 0
M  V30 8181 H 751.149 0.770138 6.9072 0
M  V30 8182 H 754.34 0.229461 4.67537 0
M  V30 8183 H 754.513 0.569758 6.4549 0
M  V30 8184 N 747.919 -1.57396 -0.0801906 0
M  V30 8185 C 748.882 -2.02133 -1.0805 0
M  V30 8186 C 749.882 -0.91707 -1.32085 0
M  V30 8187 O 751.072 -1.18217 -1.27947 0
M  V30 8188 C 748.204 -2.39479 -2.42616 0
M  V30 8189 H 749.397 -2.91733 -0.6951 0
M  V30 8190 H 746.95 -1.52869 -0.325677 0
M  V30 8191 H 747.685 -1.52879 -2.86004 0
M  V30 8192 H 747.47 -3.20052 -2.26515 0
M  V30 8193 H 748.96 -2.74697 -3.14534 0
M  V30 8194 N 749.397 0.351382 -1.53633 0
M  V30 8195 C 750.808 0.927429 -1.62036 0
M  V30 8196 C 751.159 1.89809 -0.496706 0
M  V30 8197 O 750.284 2.1313 0.374749 0
M  V30 8198 C 750.879 1.68886 -2.93706 0
M  V30 8199 C 749.438 2.21404 -3.04397 0
M  V30 8200 C 748.585 1.03075 -2.57431 0
M  V30 8201 H 751.536 0.129748 -1.58169 0
M  V30 8202 H 751.557 2.55116 -2.82305 0
M  V30 8203 H 751.069 0.982149 -3.75467 0
M  V30 8204 H 749.17 2.95274 -2.27253 0
M  V30 8205 H 749.283 2.48312 -4.09729 0
M  V30 8206 H 747.647 1.40188 -2.12649 0
M  V30 8207 H 748.43 0.338793 -3.41624 0
M  V30 8208 N 750.875 1.45233 0.611969 0
M  V30 8209 C 751.807 1.49575 1.73666 0
M  V30 8210 C 752.82 0.386987 1.58134 0
M  V30 8211 O 754.009 0.653804 1.66095 0
M  V30 8212 C 751.109 1.33223 3.11617 0
M  V30 8213 C 750.282 2.57694 3.5343 0
M  V30 8214 C 749.341 2.35962 4.70328 0
M  V30 8215 O 748.367 3.09553 4.77667 0
M  V30 8216 N 749.569 1.40243 5.63305 0
M  V30 8217 H 752.334 2.46539 1.70407 0
M  V30 8218 H 749.895 1.40917 0.79712 0
M  V30 8219 H 751.887 1.16502 3.87569 0
M  V30 8220 H 750.457 0.44551 3.09409 0
M  V30 8221 H 749.677 2.8956 2.67486 0
M  V30 8222 H 750.965 3.40441 3.78124 0
M  V30 8223 H 750.363 0.795023 5.60086 0
M  V30 8224 H 748.92 1.29496 6.38807 0
M  V30 8225 N 752.353 -0.854086 1.3245 0
M  V30 8226 C 753.286 -1.96654 1.15768 0
M  V30 8227 C 754.264 -1.625 0.0569975 0
M  V30 8228 O 755.448 -1.87254 0.216412 0
M  V30 8229 C 752.575 -3.29776 0.772361 0
M  V30 8230 C 751.621 -3.82909 1.87837 0
M  V30 8231 S 752.454 -4.0643 3.48675 0
M  V30 8232 C 753.61 -5.42526 3.12116 0
M  V30 8233 H 753.843 -2.10504 2.09942 0
M  V30 8234 H 751.376 -1.00612 1.17118 0
M  V30 8235 H 753.334 -4.06706 0.556809 0
M  V30 8236 H 751.995 -3.13739 -0.150519 0
M  V30 8237 H 751.188 -4.79192 1.56177 0
M  V30 8238 H 750.79 -3.12825 2.0498 0
M  V30 8239 H 753.082 -6.24792 2.61996 0
M  V30 8240 H 754.025 -5.79148 4.07422 0
M  V30 8241 H 754.433 -5.06556 2.49121 0
M  V30 8242 N 753.831 -1.1567 -1.07043 0
M  V30 8243 C 754.779 -0.852204 -2.16426 0
M  V30 8244 C 755.773 0.175661 -1.68487 0
M  V30 8245 O 756.979 0.0303874 -1.79974 0
M  V30 8246 H 753.354 -0.257942 -0.706378 0
M  V30 8247 H 755.325 -1.78231 -2.39324 0
M  V30 8248 C 754.074 -0.361362 -3.45817 0
M  V30 8249 H 753.397 -1.14369 -3.83092 0
M  V30 8250 H 754.837 -0.186997 -4.23587 0
M  V30 8251 C 753.296 0.917703 -3.2416 0
M  V30 8252 O 753.826 1.98858 -3.49025 0
M  V30 8253 N 752.032 0.858456 -2.77631 0
M  V30 8254 H 751.579 -0.0131821 -2.57597 0
M  V30 8255 H 751.537 1.71478 -2.6352 0
M  V30 8256 N 755.309 1.25446 -0.953992 0
M  V30 8257 C 756.558 1.92441 -0.604101 0
M  V30 8258 C 756.871 1.75543 0.862796 0
M  V30 8259 O 758.077 2.37106 1.32262 0
M  V30 8260 C 756.533 3.44854 -1.02974 0
M  V30 8261 C 756.141 3.70464 -2.51914 0
M  V30 8262 C 757.885 4.1778 -0.752352 0
M  V30 8263 C 755.792 5.1638 -2.88281 0
M  V30 8264 H 754.722 0.720508 -0.222227 0
M  V30 8265 H 757.373 1.42318 -1.15836 0
M  V30 8266 H 755.755 3.93935 -0.403904 0
M  V30 8267 H 756.929 3.32038 -3.19511 0
M  V30 8268 H 755.244 3.10797 -2.77117 0
M  V30 8269 H 757.841 5.25261 -1.00024 0
M  V30 8270 H 758.184 4.15135 0.311212 0
M  V30 8271 H 758.717 3.74605 -1.33851 0
M  V30 8272 H 755.456 5.24135 -3.93653 0
M  V30 8273 H 754.976 5.55855 -2.25357 0
M  V30 8274 H 756.655 5.84497 -2.77439 0
M  V30 8275 N 756.787 0.722489 1.40064 0
M  V30 8276 C 757.735 0.063329 2.32514 0
M  V30 8277 C 758.729 -0.73953 1.52405 0
M  V30 8278 O 759.935 -0.642122 1.68157 0
M  V30 8279 H 756.31 0.00167692 0.751998 0
M  V30 8280 H 758.281 0.859656 2.85749 0
M  V30 8281 C 757.03 -0.839219 3.3742 0
M  V30 8282 H 756.353 -0.230836 3.99133 0
M  V30 8283 H 757.793 -1.26827 4.04587 0
M  V30 8284 C 756.252 -1.96783 2.73456 0
M  V30 8285 O 756.782 -3.05933 2.60323 0
M  V30 8286 N 754.988 -1.75351 2.31734 0
M  V30 8287 H 754.535 -0.865787 2.42615 0
M  V30 8288 H 754.493 -2.51043 1.89275 0
M  V30 8289 N 758.265 -1.50454 0.469181 0
M  V30 8290 C 759.514 -2.01507 -0.0881425 0
M  V30 8291 C 759.827 -1.35613 -1.40956 0
M  V30 8292 O 761.033 -1.77812 -2.05171 0
M  V30 8293 C 759.489 -3.59301 -0.207596 0
M  V30 8294 C 759.097 -4.34152 1.10527 0
M  V30 8295 C 760.841 -4.18401 -0.716981 0
M  V30 8296 C 758.748 -5.83725 0.949717 0
M  V30 8297 H 757.678 -0.753106 -0.0367156 0
M  V30 8298 H 760.329 -1.73282 0.603788 0
M  V30 8299 H 758.711 -3.84106 -0.963265 0
M  V30 8300 H 759.885 -4.21073 1.87175 0
M  V30 8301 H 758.2 -3.86652 1.54562 0
M  V30 8302 H 760.797 -5.27895 -0.850363 0
M  V30 8303 H 761.14 -3.79657 -1.70782 0
M  V30 8304 H 761.673 -3.97796 -0.0187511 0
M  V30 8305 H 758.412 -6.26938 1.91387 0
M  V30 8306 H 757.932 -5.99383 0.223591 0
M  V30 8307 H 759.611 -6.44065 0.61557 0
M  V30 8308 N 759.743 -0.201713 -1.56304 0
M  V30 8309 C 760.706 0.702811 -2.18159 0
M  V30 8310 C 761.706 1.13619 -1.13787 0
M  V30 8311 O 762.896 1.0482 -1.39134 0
M  V30 8312 C 760.028 1.96032 -2.78898 0
M  V30 8313 H 761.221 0.163836 -2.99452 0
M  V30 8314 H 758.774 0.04791 -1.56227 0
M  V30 8315 H 759.509 2.54165 -2.01421 0
M  V30 8316 H 759.294 1.65824 -3.55309 0
M  V30 8317 H 760.784 2.60519 -3.26373 0
M  V30 8318 N 761.222 1.57436 0.0718424 0
M  V30 8319 C 762.45 1.91474 0.783932 0
M  V30 8320 C 762.865 0.797669 1.71122 0
M  V30 8321 O 762.222 -0.228989 1.81058 0
M  V30 8322 C 762.273 3.25259 1.57761 0
M  V30 8323 O 761.994 4.3267 0.687596 0
M  V30 8324 C 763.495 3.7331 2.3907 0
M  V30 8325 H 760.715 0.632901 0.222885 0
M  V30 8326 H 763.259 2.04457 0.0421262 0
M  V30 8327 H 761.414 3.13804 2.27169 0
M  V30 8328 H 761.828 5.09641 1.23962 0
M  V30 8329 H 763.302 4.69551 2.90216 0
M  V30 8330 H 763.779 3.02318 3.18591 0
M  V30 8331 H 764.385 3.8771 1.74818 0
M  V30 8332 N 762.7 -0.34323 1.53817 0
M  V30 8333 C 763.946 -1.08137 1.72273 0
M  V30 8334 C 764.301 -1.86311 0.480201 0
M  V30 8335 O 763.594 -1.84204 -0.527192 0
M  V30 8336 C 763.788 -2.05195 2.92626 0
M  V30 8337 C 763.617 -1.36561 4.28464 0
M  V30 8338 C 762.387 -1.11033 4.9295 0
M  V30 8339 C 764.585 -0.791663 5.0817 0
M  V30 8340 N 762.567 -0.389839 6.12661 0
M  V30 8341 C 763.938 -0.201742 6.19672 0
M  V30 8342 C 765.993 -0.692541 4.9306 0
M  V30 8343 C 764.696 0.477661 7.17712 0
M  V30 8344 C 766.722 -0.0268775 5.91394 0
M  V30 8345 C 766.084 0.552072 7.02233 0
M  V30 8346 H 762.183 -0.380078 0.683421 0
M  V30 8347 H 764.767 -0.364925 1.9125 0
M  V30 8348 H 762.938 -2.74131 2.75149 0
M  V30 8349 H 764.67 -2.7185 2.99799 0
M  V30 8350 H 761.425 -1.39752 4.52511 0
M  V30 8351 H 761.849 -0.0443076 6.76986 0
M  V30 8352 H 766.491 -1.12589 4.07534 0
M  V30 8353 H 764.209 0.922895 8.02813 0
M  V30 8354 H 767.795 0.0491921 5.81779 0
M  V30 8355 H 766.675 1.05899 7.77017 0
M  V30 8356 N 764.178 -1.45556 -0.604258 0
M  V30 8357 C 765.426 -1.4945 -1.36048 0
M  V30 8358 C 765.747 -0.138933 -1.94504 0
M  V30 8359 O 765.017 0.832097 -1.7735 0
M  V30 8360 H 763.597 -0.550381 -0.505064 0
M  V30 8361 H 766.259 -1.81535 -0.709308 0
M  V30 8362 H 765.355 -2.23519 -2.17821 0
M  V30 8363 N 765.656 0.84705 -1.32902 0
M  V30 8364 C 767.072 1.13645 -1.12058 0
M  V30 8365 C 767.272 2.01281 0.093937 0
M  V30 8366 O 766.328 2.4026 0.776608 0
M  V30 8367 C 767.641 1.80644 -2.40392 0
M  V30 8368 C 769.189 1.93246 -2.46221 0
M  V30 8369 C 769.664 2.6366 -3.74496 0
M  V30 8370 N 771.155 2.71179 -3.75521 0
M  V30 8371 C 771.89 3.26332 -4.71482 0
M  V30 8372 N 771.386 3.82236 -5.77813 0
M  V30 8373 N 773.179 3.24507 -4.58968 0
M  V30 8374 H 765.33 0.263612 -2.10758 0
M  V30 8375 H 767.593 0.17944 -0.930863 0
M  V30 8376 H 767.299 1.23708 -3.29225 0
M  V30 8377 H 767.173 2.80736 -2.51926 0
M  V30 8378 H 769.56 2.49338 -1.57843 0
M  V30 8379 H 769.641 0.921272 -2.38634 0
M  V30 8380 H 769.285 2.08229 -4.63253 0
M  V30 8381 H 769.215 3.65234 -3.79357 0
M  V30 8382 H 771.706 2.31527 -2.9867 0
M  V30 8383 H 772.019 4.22499 -6.47082 0
M  V30 8384 H 770.364 3.80546 -5.81558 0
M  V30 8385 H 773.555 2.80085 -3.7506 0
M  V30 8386 H 773.728 3.67188 -5.33926 0
M  V30 8387 N 767.134 1.16236 1.06428 0
M  V30 8388 C 768.064 0.890807 2.1584 0
M  V30 8389 C 769.045 -0.162333 1.69324 0
M  V30 8390 O 770.23 -0.0147191 1.94194 0
M  V30 8391 C 767.36 0.389615 3.45108 0
M  V30 8392 C 766.314 1.38051 4.05125 0
M  V30 8393 C 765.64 0.737773 5.29586 0
M  V30 8394 C 766.94 2.74965 4.44062 0
M  V30 8395 H 768.634 1.80577 2.38814 0
M  V30 8396 H 766.18 0.869657 1.14774 0
M  V30 8397 H 768.133 0.187127 4.20984 0
M  V30 8398 H 766.857 -0.560851 3.21748 0
M  V30 8399 H 765.516 1.56952 3.31303 0
M  V30 8400 H 765.164 -0.219135 5.02522 0
M  V30 8401 H 764.864 1.39914 5.70699 0
M  V30 8402 H 766.388 0.545275 6.0816 0
M  V30 8403 H 767.802 2.59855 5.11027 0
M  V30 8404 H 766.199 3.37563 4.96156 0
M  V30 8405 H 767.269 3.30321 3.54987 0
M  V30 8406 N 768.612 -1.24939 0.960631 0
M  V30 8407 C 769.858 -1.93104 0.61958 0
M  V30 8408 C 770.191 -1.74991 -0.84212 0
M  V30 8409 O 769.466 -1.09867 -1.60498 0
M  V30 8410 C 769.749 -3.46326 0.986422 0
M  V30 8411 C 769.602 -3.73638 2.50429 0
M  V30 8412 C 770.921 -4.37067 0.515827 0
M  V30 8413 H 768.04 -0.701311 0.226566 0
M  V30 8414 H 770.682 -1.47442 1.19836 0
M  V30 8415 H 768.832 -3.85348 0.493907 0
M  V30 8416 H 770.504 -3.44217 3.07103 0
M  V30 8417 H 768.747 -3.19035 2.93937 0
M  V30 8418 H 769.418 -4.80815 2.71147 0
M  V30 8419 H 771.894 -4.05381 0.938389 0
M  V30 8420 H 770.77 -5.43022 0.80114 0
M  V30 8421 H 771.031 -4.38224 -0.584171 0
M  V30 8422 N 770.09 -0.729906 -1.39679 0
M  V30 8423 C 771.506 -0.404951 -1.54377 0
M  V30 8424 C 771.706 1.08476 -1.6981 0
M  V30 8425 O 770.762 1.87087 -1.69572 0
M  V30 8426 C 772.075 -1.18352 -2.76429 0
M  V30 8427 C 773.623 -1.17124 -2.9026 0
M  V30 8428 C 774.098 -1.93227 -4.15244 0
M  V30 8429 N 775.589 -1.90368 -4.22273 0
M  V30 8430 C 776.324 -2.46065 -5.17918 0
M  V30 8431 N 775.82 -3.10378 -6.19385 0
M  V30 8432 N 777.613 -2.36127 -5.10099 0
M  V30 8433 H 769.764 -1.69567 -1.27909 0
M  V30 8434 H 772.027 -0.717527 -0.619564 0
M  V30 8435 H 771.733 -2.23743 -2.71352 0
M  V30 8436 H 771.607 -0.784589 -3.6895 0
M  V30 8437 H 773.994 -0.125478 -2.94833 0
M  V30 8438 H 774.075 -1.60951 -1.98817 0
M  V30 8439 H 773.719 -2.97802 -4.11432 0
M  V30 8440 H 773.649 -1.4681 -5.05722 0
M  V30 8441 H 776.14 -1.4351 -3.4959 0
M  V30 8442 H 776.453 -3.50358 -6.88817 0
M  V30 8443 H 774.798 -3.14467 -6.19787 0
M  V30 8444 H 777.989 -1.85529 -4.29763 0
M  V30 8445 H 778.162 -2.79833 -5.84463 0
M  V30 8446 N 771.568 1.50203 -0.477153 0
M  V30 8447 C 772.984 1.59056 -0.131663 0
M  V30 8448 C 773.184 1.48473 1.36227 0
M  V30 8449 O 772.24 1.34635 2.13611 0
M  V30 8450 C 773.553 2.92741 -0.687254 0
M  V30 8451 C 775.101 3.0615 -0.651223 0
M  V30 8452 C 775.576 4.42419 -1.18446 0
M  V30 8453 N 777.067 4.48847 -1.14413 0
M  V30 8454 C 777.802 5.52689 -1.52717 0
M  V30 8455 N 777.298 6.63754 -1.98499 0
M  V30 8456 N 779.091 5.43267 -1.44282 0
M  V30 8457 H 771.242 1.55325 -1.44872 0
M  V30 8458 H 773.505 0.734395 -0.599473 0
M  V30 8459 H 773.211 3.0598 -1.73405 0
M  V30 8460 H 773.085 3.76961 -0.134215 0
M  V30 8461 H 775.472 2.92556 0.386677 0
M  V30 8462 H 775.553 2.23673 -1.24114 0
M  V30 8463 H 775.197 4.56763 -2.22103 0
M  V30 8464 H 775.127 5.23498 -0.570709 0
M  V30 8465 H 777.618 3.69152 -0.808416 0
M  V30 8466 H 777.931 7.39059 -2.25859 0
M  V30 8467 H 776.276 6.64858 -2.02456 0
M  V30 8468 H 779.467 4.55387 -1.08352 0
M  V30 8469 H 779.64 6.24074 -1.74459 0
M  V30 8470 N 773.046 0.209999 1.56195 0
M  V30 8471 C 774.009 -0.691232 2.18528 0
M  V30 8472 C 775.009 -1.13013 1.14388 0
M  V30 8473 O 776.199 -1.04081 1.39688 0
M  V30 8474 C 773.331 -1.94551 2.79934 0
M  V30 8475 H 774.524 -0.147953 2.99535 0
M  V30 8476 H 772.077 -0.0396243 1.5625 0
M  V30 8477 H 772.812 -2.53094 2.02766 0
M  V30 8478 H 772.597 -1.63938 3.56184 0
M  V30 8479 H 774.087 -2.58785 3.2775 0
M  V30 8480 N 774.524 -1.57472 -0.0634922 0
M  V30 8481 C 775.773 -1.86837 -0.759928 0
M  V30 8482 C 776.086 -0.803823 -1.7832 0
M  V30 8483 O 777.292 -0.985578 -2.52979 0
M  V30 8484 C 775.748 -3.31448 -1.4025 0
M  V30 8485 C 775.356 -4.46052 -0.417368 0
M  V30 8486 C 777.1 -3.70003 -2.08082 0
M  V30 8487 C 775.007 -5.81707 -1.06633 0
M  V30 8488 H 773.937 -0.697009 -0.287567 0
M  V30 8489 H 776.588 -1.83495 -0.0133914 0
M  V30 8490 H 774.97 -3.29427 -2.19759 0
M  V30 8491 H 776.144 -4.5948 0.348503 0
M  V30 8492 H 774.459 -4.16104 0.156955 0
M  V30 8493 H 777.056 -4.68653 -2.57426 0
M  V30 8494 H 777.399 -3.00226 -2.88393 0
M  V30 8495 H 777.932 -3.7405 -1.35394 0
M  V30 8496 H 774.671 -6.54798 -0.303374 0
M  V30 8497 H 774.191 -5.72064 -1.80286 0
M  V30 8498 H 775.87 -6.27317 -1.58376 0
M  V30 8499 N 776.003 0.335068 -1.53997 0
M  V30 8500 C 777.414 0.910191 -1.6301 0
M  V30 8501 C 777.765 1.89271 -0.516809 0
M  V30 8502 O 776.89 2.13516 0.352123 0
M  V30 8503 C 777.485 1.65761 -2.9548 0
M  V30 8504 C 776.044 2.18163 -3.06728 0
M  V30 8505 C 775.191 1.00338 -2.5851 0
M  V30 8506 H 778.142 0.112965 -1.58297 0
M  V30 8507 H 778.163 2.52107 -2.84995 0
M  V30 8508 H 777.675 0.94227 -3.76488 0
M  V30 8509 H 775.776 2.92847 -2.30372 0
M  V30 8510 H 775.889 2.43952 -4.1234 0
M  V30 8511 H 774.253 1.37925 -2.14124 0
M  V30 8512 H 775.036 0.30254 -3.41964 0
M  V30 8513 N 777.481 1.45874 0.596531 0
M  V30 8514 C 778.709 1.54013 1.38158 0
M  V30 8515 C 779.124 0.17648 1.87973 0
M  V30 8516 O 778.481 -0.823895 1.62844 0
M  V30 8517 C 778.532 2.53363 2.57855 0
M  V30 8518 O 778.253 3.8443 2.10108 0
M  V30 8519 C 779.754 2.71308 3.50581 0
M  V30 8520 H 776.974 0.521251 0.422538 0
M  V30 8521 H 779.518 1.9116 0.726493 0
M  V30 8522 H 777.673 2.19257 3.19382 0
M  V30 8523 H 778.087 4.38384 2.87958 0
M  V30 8524 H 779.561 3.44776 4.31084 0
M  V30 8525 H 780.038 1.77728 4.01633 0
M  V30 8526 H 780.644 3.06455 2.94899 0
M  V30 8527 N 778.959 -0.83999 1.33349 0
M  V30 8528 C 780.205 -1.59753 1.24927 0
M  V30 8529 C 780.538 -1.93318 -0.184855 0
M  V30 8530 O 779.813 -1.586 -1.12589 0
M  V30 8531 C 780.096 -2.90829 2.12345 0
M  V30 8532 C 779.949 -2.63953 3.6421 0
M  V30 8533 C 781.268 -3.92246 1.99577 0
M  V30 8534 H 778.387 -0.579654 0.45516 0
M  V30 8535 H 781.029 -0.968909 1.63439 0
M  V30 8536 H 779.179 -3.44478 1.79631 0
M  V30 8537 H 780.851 -2.16745 4.07209 0
M  V30 8538 H 779.094 -1.97671 3.86146 0
M  V30 8539 H 779.765 -3.57348 4.20721 0
M  V30 8540 H 782.241 -3.479 2.28265 0
M  V30 8541 H 781.117 -4.81793 2.62996 0
M  V30 8542 H 781.378 -4.3138 0.967673 0
M  V30 8543 N 780.437 -1.16799 -1.0581 0
M  V30 8544 C 781.385 -0.875111 -2.1551 0
M  V30 8545 C 782.379 0.157781 -1.68664 0
M  V30 8546 O 783.585 0.011297 -1.79996 0
M  V30 8547 H 779.96 -0.26542 -0.703602 0
M  V30 8548 H 781.931 -1.8076 -2.37421 0
M  V30 8549 C 780.68 -0.39802 -3.45414 0
M  V30 8550 H 780.003 -1.18425 -3.81858 0
M  V30 8551 H 781.443 -0.231913 -4.23365 0
M  V30 8552 C 779.902 0.88327 -3.25115 0
M  V30 8553 O 780.432 1.95145 -3.51114 0
M  V30 8554 N 778.638 0.828961 -2.78526 0
M  V30 8555 H 778.185 -0.0405029 -2.57568 0
M  V30 8556 H 778.143 1.68673 -2.65324 0
M  V30 8557 N 781.915 1.24427 -0.967243 0
M  V30 8558 C 782.865 2.23143 -0.468106 0
M  V30 8559 C 783.849 1.5449 0.449633 0
M  V30 8560 O 785.041 1.74761 0.28063 0
M  V30 8561 C 782.17 3.42454 0.240867 0
M  V30 8562 C 781.256 4.18355 -0.695674 0
M  V30 8563 N 781.647 4.71428 -1.83273 0
M  V30 8564 C 779.945 4.43116 -0.506365 0
M  V30 8565 C 780.646 5.29041 -2.41849 0
M  V30 8566 N 779.622 5.16213 -1.70369 0
M  V30 8567 H 783.424 2.61795 -1.3357 0
M  V30 8568 H 780.938 1.39809 -0.826277 0
M  V30 8569 H 782.935 4.12329 0.615668 0
M  V30 8570 H 781.595 3.05323 1.10491 0
M  V30 8571 H 782.606 4.68177 -2.21428 0
M  V30 8572 H 779.283 4.16319 0.313747 0
M  V30 8573 H 780.673 5.80811 -3.37799 0
M  V30 8574 N 783.393 0.737304 1.3929 0
M  V30 8575 C 784.618 0.295237 2.05288 0
M  V30 8576 C 785.043 -1.06235 1.55228 0
M  V30 8577 O 784.401 -1.67365 0.697043 0
M  V30 8578 C 784.449 0.309146 3.59272 0
M  V30 8579 O 783.553 -0.702437 4.06374 0
M  V30 8580 H 782.894 0.133762 0.650387 0
M  V30 8581 H 785.424 1.00387 1.78279 0
M  V30 8582 H 785.434 0.154336 4.07708 0
M  V30 8583 H 784.109 1.29974 3.95069 0
M  V30 8584 H 782.686 -0.513574 3.69346 0
M  V30 8585 N 784.871 -1.49948 0.485112 0
M  V30 8586 C 786.119 -2.01996 -0.0648775 0
M  V30 8587 C 786.44 -1.36819 -1.38945 0
M  V30 8588 O 785.71 -0.518163 -1.88923 0
M  V30 8589 H 784.29 -0.746513 -0.0269662 0
M  V30 8590 H 786.952 -1.84136 0.638733 0
M  V30 8591 H 786.048 -3.11418 -0.20617 0
M  V30 8592 N 786.349 -0.21828 -1.56081 0
M  V30 8593 C 787.577 0.419258 -2.02608 0
M  V30 8594 C 787.992 1.53578 -1.09814 0
M  V30 8595 O 787.349 1.82185 -0.107149 0
M  V30 8596 C 787.4 0.953955 -3.48686 0
M  V30 8597 O 787.121 -0.11805 -4.37941 0
M  V30 8598 C 788.622 1.66506 -4.10841 0
M  V30 8599 H 785.842 0.10296 -0.663054 0
M  V30 8600 H 788.386 -0.333776 -2.01758 0
M  V30 8601 H 786.541 1.65727 -3.50162 0
M  V30 8602 H 786.955 0.283359 -5.23734 0
M  V30 8603 H 788.429 1.99123 -5.14834 0
M  V30 8604 H 788.906 2.57705 -3.55647 0
M  V30 8605 H 789.512 1.00703 -4.13206 0
M  V30 8606 N 787.827 1.57504 0.0551401 0
M  V30 8607 C 789.074 1.88055 0.751104 0
M  V30 8608 C 789.402 0.812231 1.76729 0
M  V30 8609 O 788.657 -0.189918 1.94776 0
M  V30 8610 C 788.956 3.25311 1.48013 0
M  V30 8611 C 788.622 4.46858 0.602375 0
M  V30 8612 C 787.284 4.79847 0.360536 0
M  V30 8613 C 789.636 5.212 -0.00524047 0
M  V30 8614 C 786.964 5.84582 -0.498127 0
M  V30 8615 C 789.316 6.26844 -0.851453 0
M  V30 8616 C 787.98 6.58324 -1.103 0
M  V30 8617 H 787.25 0.688142 0.274848 0
M  V30 8618 H 789.897 1.91497 0.0114795 0
M  V30 8619 H 788.202 3.17737 2.29239 0
M  V30 8620 H 789.899 3.46189 2.02371 0
M  V30 8621 H 786.489 4.21049 0.801007 0
M  V30 8622 H 790.673 4.96013 0.168682 0
M  V30 8623 H 785.929 6.07361 -0.701594 0
M  V30 8624 H 790.103 6.83603 -1.32893 0
M  V30 8625 H 787.73 7.39304 -1.77011 0
M  V30 8626 N 789.305 -0.326896 1.54172 0
M  V30 8627 C 790.53 -1.08924 1.76494 0
M  V30 8628 C 790.955 -1.81039 0.510523 0
M  V30 8629 O 790.313 -1.73141 -0.537756 0
M  V30 8630 C 790.361 -2.06558 2.95578 0
M  V30 8631 O 789.465 -3.14394 2.6689 0
M  V30 8632 H 788.806 -0.314216 0.584948 0
M  V30 8633 H 791.336 -0.372207 2.01186 0
M  V30 8634 H 791.346 -2.49487 3.22832 0
M  V30 8635 H 790.021 -1.53469 3.86549 0
M  V30 8636 H 788.598 -2.76164 2.50576 0
M  V30 8637 N 790.784 -1.46188 -0.588786 0
M  V30 8638 C 792.195 -1.45421 -1.17088 0
M  V30 8639 C 792.546 -0.191801 -1.9526 0
M  V30 8640 O 791.671 0.705497 -2.04577 0
M  V30 8641 C 792.266 -2.63467 -2.13004 0
M  V30 8642 C 790.825 -2.6576 -2.6655 0
M  V30 8643 C 789.972 -2.38002 -1.42304 0
M  V30 8644 H 792.923 -1.54156 -0.377052 0
M  V30 8645 H 792.944 -2.38638 -2.96365 0
M  V30 8646 H 792.456 -3.55331 -1.56081 0
M  V30 8647 H 790.557 -1.77952 -3.27359 0
M  V30 8648 H 790.67 -3.65545 -3.09699 0
M  V30 8649 H 789.034 -1.87936 -1.71907 0
M  V30 8650 H 789.817 -3.32035 -0.872209 0
M  V30 8651 N 792.262 0.832906 -1.33792 0
M  V30 8652 C 793.194 1.95042 -1.2038 0
M  V30 8653 C 794.207 1.62253 -0.133299 0
M  V30 8654 O 795.396 1.74315 -0.384261 0
M  V30 8655 C 792.496 3.287 -0.825215 0
M  V30 8656 C 791.669 3.89581 -1.98861 0
M  V30 8657 C 790.728 5.01602 -1.59003 0
M  V30 8658 O 789.754 5.20431 -2.30522 0
M  V30 8659 N 790.956 5.78356 -0.498446 0
M  V30 8660 H 793.721 2.07083 -2.16649 0
M  V30 8661 H 791.282 1.00896 -1.26616 0
M  V30 8662 H 793.274 4.01074 -0.540559 0
M  V30 8663 H 791.844 3.12565 0.0469796 0
M  V30 8664 H 791.064 3.09723 -2.43856 0
M  V30 8665 H 792.352 4.26989 -2.76691 0
M  V30 8666 H 791.75 5.65618 0.0963297 0
M  V30 8667 H 790.307 6.51226 -0.273485 0
M  V30 8668 N 793.74 1.17359 1.05189 0
M  V30 8669 C 794.703 0.892604 2.11105 0
M  V30 8670 C 795.703 -0.117236 1.60372 0
M  V30 8671 O 796.893 0.114936 1.7382 0
M  V30 8672 C 794.025 0.337032 3.3923 0
M  V30 8673 H 795.218 1.83169 2.37464 0
M  V30 8674 H 792.771 0.984051 1.21434 0
M  V30 8675 H 793.506 -0.609198 3.18527 0
M  V30 8676 H 793.291 1.06484 3.77364 0
M  V30 8677 H 794.781 0.158763 4.17298 0
M  V30 8678 N 795.218 -1.23913 0.973828 0
M  V30 8679 C 796.629 -1.73992 0.677021 0
M  V30 8680 C 796.98 -1.78833 -0.807036 0
M  V30 8681 O 796.105 -1.42183 -1.63135 0
M  V30 8682 C 796.7 -3.15985 1.22226 0
M  V30 8683 C 795.259 -3.63547 0.975228 0
M  V30 8684 C 794.406 -2.42001 1.35392 0
M  V30 8685 H 797.357 -1.09529 1.14844 0
M  V30 8686 H 797.378 -3.75875 0.591489 0
M  V30 8687 H 796.89 -3.12429 2.30238 0
M  V30 8688 H 794.991 -3.72493 -0.0891047 0
M  V30 8689 H 795.104 -4.50693 1.62518 0
M  V30 8690 H 793.468 -2.42708 0.772334 0
M  V30 8691 H 794.251 -2.41122 2.44367 0
M  V30 8692 N 796.696 -0.74468 -1.38897 0
M  V30 8693 C 797.942 -0.297324 -2.00609 0
M  V30 8694 C 798.275 1.11547 -1.58968 0
M  V30 8695 O 797.55 1.76227 -0.823057 0
M  V30 8696 C 797.833 -0.410125 -3.57757 0
M  V30 8697 C 797.686 -1.86338 -4.09387 0
M  V30 8698 C 799.005 0.20176 -4.39637 0
M  V30 8699 H 796.124 -0.109509 -0.728819 0
M  V30 8700 H 798.766 -0.942653 -1.64967 0
M  V30 8701 H 796.916 0.139287 -3.8825 0
M  V30 8702 H 798.588 -2.47042 -3.89574 0
M  V30 8703 H 796.831 -2.38146 -3.62586 0
M  V30 8704 H 797.502 -1.89352 -5.18507 0
M  V30 8705 H 799.978 -0.266703 -4.15244 0
M  V30 8706 H 798.854 0.0925415 -5.48822 0
M  V30 8707 H 799.115 1.289 -4.22891 0
M  V30 8708 N 798.174 1.49689 -0.493057 0
M  V30 8709 C 799.585 1.8665 -0.0433032 0
M  V30 8710 C 799.936 1.40607 1.36836 0
M  V30 8711 O 799.061 0.780503 2.01834 0
M  V30 8712 C 799.656 3.38724 -0.0718069 0
M  V30 8713 C 798.215 3.75015 0.32257 0
M  V30 8714 C 797.362 2.7366 -0.4478 0
M  V30 8715 H 800.313 1.42119 -0.706246 0
M  V30 8716 H 800.334 3.73522 0.725347 0
M  V30 8717 H 799.846 3.72204 -1.09935 0
M  V30 8718 H 797.947 3.47142 1.35364 0
M  V30 8719 H 798.06 4.79099 0.00864259 0
M  V30 8720 H 796.424 2.54498 0.101354 0
M  V30 8721 H 797.207 3.09985 -1.47527 0
M  V30 8722 N 799.652 0.226554 1.55963 0
M  V30 8723 C 800.88 -0.408507 2.02827 0
M  V30 8724 C 801.295 -1.52994 1.10627 0
M  V30 8725 O 800.652 -1.82126 0.116809 0
M  V30 8726 C 800.703 -0.93545 3.49187 0
M  V30 8727 O 800.424 0.141273 4.37872 0
M  V30 8728 C 801.925 -1.64325 4.11719 0
M  V30 8729 H 799.145 -0.099442 0.66359 0
M  V30 8730 H 801.689 0.344471 2.01578 0
M  V30 8731 H 799.844 -1.63868 3.51036 0
M  V30 8732 H 800.258 -0.25558 5.23877 0
M  V30 8733 H 801.732 -1.9639 5.15883 0
M  V30 8734 H 802.209 -2.55815 3.57009 0
M  V30 8735 H 802.815 -0.9851 4.13734 0
M  V30 8736 N 801.13 -1.57531 -0.0467866 0
M  V30 8737 C 802.358 -1.92696 -0.753371 0
M  V30 8738 C 802.773 -0.824792 -1.69831 0
M  V30 8739 O 802.13 0.200155 -1.81399 0
M  V30 8740 C 802.181 -3.27728 -1.52566 0
M  V30 8741 O 801.902 -4.3371 -0.618674 0
M  V30 8742 C 803.403 -3.77066 -2.33101 0
M  V30 8743 H 800.623 -0.636367 -0.212788 0
M  V30 8744 H 803.167 -2.04498 -0.00959361 0
M  V30 8745 H 801.322 -3.17378 -2.22148 0
M  V30 8746 H 801.736 -5.11548 -1.15839 0
M  V30 8747 H 803.21 -4.74109 -2.82709 0
M  V30 8748 H 803.687 -3.07348 -3.13741 0
M  V30 8749 H 804.293 -3.90442 -1.68628 0
M  V30 8750 N 802.608 0.318715 -1.54344 0
M  V30 8751 C 803.854 1.05765 -1.73037 0
M  V30 8752 C 804.187 1.87514 -0.505181 0
M  V30 8753 O 803.462 1.88021 0.497838 0
M  V30 8754 C 803.745 1.97836 -3.00887 0
M  V30 8755 C 803.598 1.19384 -4.33668 0
M  V30 8756 C 804.917 2.97285 -3.24514 0
M  V30 8757 H 802.036 0.383104 -0.629603 0
M  V30 8758 H 804.678 0.333864 -1.87044 0
M  V30 8759 H 802.828 2.59552 -2.89076 0
M  V30 8760 H 804.5 0.600906 -4.57369 0
M  V30 8761 H 802.743 0.496198 -4.30953 0
M  V30 8762 H 803.414 1.87014 -5.19355 0
M  V30 8763 H 805.89 2.45693 -3.35819 0
M  V30 8764 H 804.766 3.58887 -4.15321 0
M  V30 8765 H 805.027 3.70003 -2.41971 0
M  V30 8766 N 804.086 1.46499 0.581025 0
M  V30 8767 C 805.497 1.4604 1.16315 0
M  V30 8768 C 805.848 0.202154 1.95156 0
M  V30 8769 O 804.973 -0.694638 2.04948 0
M  V30 8770 C 805.568 2.64593 2.11604 0
M  V30 8771 C 804.127 2.6717 2.65136 0
M  V30 8772 C 803.274 2.38753 1.4104 0
M  V30 8773 H 806.225 1.54354 0.368871 0
M  V30 8774 H 806.246 2.40207 2.95095 0
M  V30 8775 H 805.758 3.56154 1.54194 0
M  V30 8776 H 803.859 1.79685 3.26411 0
M  V30 8777 H 803.972 3.67182 3.07757 0
M  V30 8778 H 802.336 1.88845 1.70908 0
M  V30 8779 H 803.119 3.32493 0.854588 0
M  V30 8780 N 805.565 -0.825799 1.34232 0
M  V30 8781 C 806.811 -1.58419 1.26614 0
M  V30 8782 C 807.144 -1.93503 -0.164341 0
M  V30 8783 O 806.419 -1.59785 -1.109 0
M  V30 8784 C 806.702 -2.8856 2.15418 0
M  V30 8785 C 806.555 -2.60075 3.66989 0
M  V30 8786 C 807.874 -3.90107 2.03726 0
M  V30 8787 H 804.993 -0.574794 0.461282 0
M  V30 8788 H 807.635 -0.951519 1.64457 0
M  V30 8789 H 805.785 -3.42553 1.83275 0
M  V30 8790 H 807.457 -2.12414 4.09485 0
M  V30 8791 H 805.7 -1.93565 3.88221 0
M  V30 8792 H 806.371 -3.52866 4.24488 0
M  V30 8793 H 808.847 -3.45459 2.31942 0
M  V30 8794 H 807.723 -4.78976 2.68092 0
M  V30 8795 H 807.984 -4.30329 1.01337 0
M  V30 8796 N 807.043 -1.17915 -1.04565 0
M  V30 8797 C 808.289 -0.972863 -1.77942 0
M  V30 8798 C 808.622 0.496753 -1.87739 0
M  V30 8799 O 807.897 1.3688 -1.38181 0
M  V30 8800 C 808.18 -1.62227 -3.21488 0
M  V30 8801 C 808.033 -3.16441 -3.19664 0
M  V30 8802 C 809.352 -1.33137 -4.19479 0
M  V30 8803 H 806.471 -0.354843 -0.645953 0
M  V30 8804 H 809.113 -1.45508 -1.22178 0
M  V30 8805 H 807.263 -1.21224 -3.69103 0
M  V30 8806 H 808.935 -3.66544 -2.80077 0
M  V30 8807 H 807.178 -3.48863 -2.57832 0
M  V30 8808 H 807.849 -3.57012 -4.21006 0
M  V30 8809 H 810.325 -1.68654 -3.80388 0
M  V30 8810 H 809.201 -1.81151 -5.18146 0
M  V30 8811 H 809.462 -0.253319 -4.41374 0
M  V30 8812 N 808.521 1.23394 -0.980386 0
M  V30 8813 C 809.798 1.87242 -0.565667 0
M  V30 8814 C 810.178 1.88151 0.957197 0
M  V30 8815 O 809.526 1.36309 1.8339 0
M  V30 8816 C 809.736 3.28743 -1.17172 0
M  V30 8817 C 811.084 4.05335 -1.26446 0
M  V30 8818 O 812.108 3.37962 -1.12517 0
M  V30 8819 O 810.967 5.25908 -1.48604 0
M  V30 8820 H 808.061 0.80477 -0.190459 0
M  V30 8821 H 810.607 1.3127 -1.07547 0
M  V30 8822 H 809.379 3.22647 -2.21392 0
M  V30 8823 H 809.002 3.92305 -0.646739 0
M  V30 8824 N 809.999 0.752036 1.385 0
M  V30 8825 C 811.245 0.307958 2.00448 0
M  V30 8826 C 811.578 -1.10702 1.59558 0
M  V30 8827 O 810.853 -1.75788 0.832391 0
M  V30 8828 C 811.136 0.429092 3.57534 0
M  V30 8829 C 810.989 1.88507 4.08393 0
M  V30 8830 C 812.308 -0.178442 4.39738 0
M  V30 8831 H 809.427 0.113373 0.728228 0
M  V30 8832 H 812.069 0.951389 1.64465 0
M  V30 8833 H 810.219 -0.118695 3.88319 0
M  V30 8834 H 811.891 2.49104 3.88259 0
M  V30 8835 H 810.134 2.40066 3.61318 0
M  V30 8836 H 810.805 1.92099 5.17496 0
M  V30 8837 H 813.281 0.28872 4.15097 0
M  V30 8838 H 812.157 -0.0634349 5.48863 0
M  V30 8839 H 812.418 -1.26655 4.23569 0
M  V30 8840 N 811.477 -1.49425 0.500989 0
M  V30 8841 C 812.893 -1.58826 0.156951 0
M  V30 8842 C 813.093 -1.50622 -1.33848 0
M  V30 8843 O 812.149 -1.38016 -2.11442 0
M  V30 8844 C 813.462 -2.91611 0.73374 0
M  V30 8845 C 815.01 -3.05076 0.699846 0
M  V30 8846 C 815.485 -4.40479 1.2547 0
M  V30 8847 N 816.976 -4.4697 1.2154 0
M  V30 8848 C 817.711 -5.50189 1.6149 0
M  V30 8849 N 817.207 -6.60512 2.09034 0
M  V30 8850 N 819 -5.40903 1.52907 0
M  V30 8851 H 811.151 -1.53001 1.47324 0
M  V30 8852 H 813.414 -0.724765 0.61108 0
M  V30 8853 H 813.12 -3.03182 1.78251 0
M  V30 8854 H 812.994 -3.767 0.19417 0
M  V30 8855 H 815.381 -2.93134 -0.340085 0
M  V30 8856 H 815.462 -2.2167 1.27656 0
M  V30 8857 H 815.106 -4.53172 2.29341 0
M  V30 8858 H 815.036 -5.22524 0.653921 0
M  V30 8859 H 817.527 -3.67819 0.867043 0
M  V30 8860 H 817.84 -7.35372 2.37588 0
M  V30 8861 H 816.185 -6.61553 2.13008 0
M  V30 8862 H 819.376 -4.53606 1.15583 0
M  V30 8863 H 819.549 -6.21219 1.84365 0
M  V30 8864 N 812.955 -0.234822 -1.55841 0
M  V30 8865 C 814.204 0.393685 -1.97821 0
M  V30 8866 C 814.517 1.59947 -1.1259 0
M  V30 8867 O 815.723 2.29835 -1.44528 0
M  V30 8868 C 814.179 0.751811 -3.5196 0
M  V30 8869 C 813.787 -0.431898 -4.45913 0
M  V30 8870 C 815.531 1.34518 -4.02623 0
M  V30 8871 C 813.438 -0.0505976 -5.91378 0
M  V30 8872 H 812.368 0.150864 -0.738753 0
M  V30 8873 H 815.019 -0.333132 -1.80451 0
M  V30 8874 H 813.401 1.53642 -3.6498 0
M  V30 8875 H 814.575 -1.20935 -4.44647 0
M  V30 8876 H 812.89 -0.939385 -4.05666 0
M  V30 8877 H 815.487 1.64359 -5.08813 0
M  V30 8878 H 815.83 2.26554 -3.49255 0
M  V30 8879 H 816.363 0.623729 -3.9288 0
M  V30 8880 H 813.102 -0.937779 -6.48757 0
M  V30 8881 H 812.622 0.690898 -5.95808 0
M  V30 8882 H 814.301 0.37146 -6.45933 0
M  V30 8883 N 814.433 1.57553 0.0384317 0
M  V30 8884 C 815.844 1.77258 0.586211 0
M  V30 8885 C 816.195 0.864706 1.76117 0
M  V30 8886 O 815.32 0.057141 2.16325 0
M  V30 8887 C 815.915 3.21453 1.07021 0
M  V30 8888 C 814.474 3.42387 1.56358 0
M  V30 8889 C 813.621 2.72801 0.497508 0
M  V30 8890 H 816.572 1.57585 -0.187796 0
M  V30 8891 H 816.593 3.27451 1.93794 0
M  V30 8892 H 816.105 3.87505 0.214851 0
M  V30 8893 H 814.206 2.81497 2.44111 0
M  V30 8894 H 814.319 4.50968 1.61754 0
M  V30 8895 H 812.683 2.36305 0.95038 0
M  V30 8896 H 813.466 3.41529 -0.348234 0
M  V30 8897 N 815.911 -0.310526 1.54511 0
M  V30 8898 C 816.843 -1.40405 1.8116 0
M  V30 8899 C 817.856 -1.47261 0.694114 0
M  V30 8900 O 819.045 -1.49751 0.971441 0
M  V30 8901 C 816.145 -2.78849 1.92604 0
M  V30 8902 C 815.318 -2.95041 3.22908 0
M  V30 8903 C 814.377 -4.13925 3.24889 0
M  V30 8904 O 813.403 -4.06463 3.98467 0
M  V30 8905 N 814.605 -5.24099 2.496 0
M  V30 8906 H 817.37 -1.17903 2.75534 0
M  V30 8907 H 814.931 -0.500564 1.53967 0
M  V30 8908 H 816.923 -3.5661 1.91342 0
M  V30 8909 H 815.493 -2.94342 1.05268 0
M  V30 8910 H 814.713 -2.04472 3.37023 0
M  V30 8911 H 816.001 -3.02763 4.08916 0
M  V30 8912 H 815.399 -5.33039 1.89435 0
M  V30 8913 H 813.956 -6.0023 2.54102 0
M  V30 8914 N 817.389 -1.46805 -0.573248 0
M  V30 8915 C 818.319 -1.60951 -1.69165 0
M  V30 8916 C 819.3 -0.45948 -1.63777 0
M  V30 8917 O 820.485 -0.68688 -1.81647 0
M  V30 8918 C 817.615 -1.60844 -3.07809 0
M  V30 8919 C 816.569 -2.74913 -3.28035 0
M  V30 8920 C 815.895 -2.59871 -4.67302 0
M  V30 8921 C 817.195 -4.16654 -3.14955 0
M  V30 8922 H 818.889 -2.54574 -1.57582 0
M  V30 8923 H 816.435 -1.22516 -0.756686 0
M  V30 8924 H 818.388 -1.69334 -3.85881 0
M  V30 8925 H 817.112 -0.637714 -3.20314 0
M  V30 8926 H 815.771 -2.65908 -2.52366 0
M  V30 8927 H 815.419 -1.60861 -4.76585 0
M  V30 8928 H 815.119 -3.36386 -4.81786 0
M  V30 8929 H 816.643 -2.70265 -5.4753 0
M  V30 8930 H 818.057 -4.26721 -3.82861 0
M  V30 8931 H 816.454 -4.93831 -3.40956 0
M  V30 8932 H 817.524 -4.36146 -2.11908 0
M  V30 8933 N 818.867 0.818669 -1.34668 0
M  V30 8934 C 819.83 1.9114 -1.26483 0
M  V30 8935 C 820.83 1.598 -0.179044 0
M  V30 8936 O 822.02 1.6876 -0.431952 0
M  V30 8937 C 819.152 3.27285 -0.95381 0
M  V30 8938 H 820.345 1.9982 -2.23634 0
M  V30 8939 H 817.898 1.01314 -1.19018 0
M  V30 8940 H 818.633 3.24297 0.0143428 0
M  V30 8941 H 818.418 3.51416 -1.73924 0
M  V30 8942 H 819.908 4.07299 -0.921827 0
M  V30 8943 N 820.346 1.18468 1.03938 0
M  V30 8944 C 821.757 0.984808 1.58614 0
M  V30 8945 C 822.108 -0.465165 1.90606 0
M  V30 8946 O 821.233 -1.34274 1.69704 0
M  V30 8947 C 821.828 1.78135 2.8819 0
M  V30 8948 C 820.387 1.62579 3.39478 0
M  V30 8949 C 819.534 1.77501 2.13046 0
M  V30 8950 H 822.485 1.32993 0.865944 0
M  V30 8951 H 822.506 1.27119 3.58638 0
M  V30 8952 H 822.018 2.83661 2.64874 0
M  V30 8953 H 820.119 0.59595 3.67803 0
M  V30 8954 H 820.232 2.42463 4.13217 0
M  V30 8955 H 818.596 1.2046 2.24414 0
M  V30 8956 H 819.379 2.84464 1.92185 0
M  V30 8957 N 821.824 -1.22873 0.986916 0
M  V30 8958 C 823.235 -1.73264 0.695438 0
M  V30 8959 C 823.586 -1.79679 -0.788023 0
M  V30 8960 O 822.711 -1.43905 -1.61618 0
M  V30 8961 C 823.306 -3.14671 1.2557 0
M  V30 8962 C 821.865 -3.62492 1.01373 0
M  V30 8963 C 821.012 -2.40551 1.37951 0
M  V30 8964 H 823.963 -1.08304 1.15999 0
M  V30 8965 H 823.984 -3.75226 0.631322 0
M  V30 8966 H 823.496 -3.0997 2.33539 0
M  V30 8967 H 821.597 -3.72567 -0.0495917 0
M  V30 8968 H 821.71 -4.48944 1.67289 0
M  V30 8969 H 820.074 -2.41875 0.798033 0
M  V30 8970 H 820.857 -2.38516 2.46911 0
M  V30 8971 N 823.302 -0.75937 -1.38099 0
M  V30 8972 C 824.265 -0.14372 -2.28749 0
M  V30 8973 C 825.265 0.641338 -1.47457 0
M  V30 8974 O 826.455 0.466751 -1.67831 0
M  V30 8975 C 823.587 0.804545 -3.3127 0
M  V30 8976 H 824.78 -0.942663 -2.847 0
M  V30 8977 H 822.333 -0.526757 -1.47156 0
M  V30 8978 H 823.068 1.62895 -2.80421 0
M  V30 8979 H 822.853 0.243939 -3.9134 0
M  V30 8980 H 824.343 1.23111 -3.99041 0
M  V30 8981 N 824.78 1.49157 -0.508906 0
M  V30 8982 C 826.005 2.07376 0.0315182 0
M  V30 8983 C 826.43 1.36575 1.2934 0
M  V30 8984 O 825.788 0.424963 1.76249 0
M  V30 8985 C 825.836 3.59661 0.260118 0
M  V30 8986 O 824.94 3.90255 1.33322 0
M  V30 8987 H 824.281 0.663334 -0.029739 0
M  V30 8988 H 826.811 1.91857 -0.710791 0
M  V30 8989 H 826.821 4.05056 0.489225 0
M  V30 8990 H 825.496 4.10601 -0.661794 0
M  V30 8991 H 824.073 3.56661 1.08844 0
M  V30 8992 N 826.258 0.243083 1.55714 0
M  V30 8993 C 827.535 -0.432851 1.90751 0
M  V30 8994 C 827.915 -1.76153 1.16333 0
M  V30 8995 O 827.263 -2.26783 0.279565 0
M  V30 8996 C 827.473 -0.604685 3.43722 0
M  V30 8997 C 828.821 -0.90231 4.14902 0
M  V30 8998 O 829.845 -0.690689 3.49439 0
M  V30 8999 O 828.704 -1.3051 5.30688 0
M  V30 9000 H 825.798 -0.231835 0.79384 0
M  V30 9001 H 828.344 0.286867 1.67258 0
M  V30 9002 H 827.116 0.331655 3.89892 0
M  V30 9003 H 826.739 -1.37509 3.73065 0
M  V30 9004 N 827.736 -1.57571 -0.0300757 0
M  V30 9005 C 828.961 -1.93879 -0.736601 0
M  V30 9006 C 829.386 -0.842998 -1.68152 0
M  V30 9007 O 828.744 0.20135 -1.80178 0
M  V30 9008 C 828.792 -3.29247 -1.47066 0
M  V30 9009 O 827.896 -3.21426 -2.58378 0
M  V30 9010 H 827.237 -0.633735 -0.198181 0
M  V30 9011 H 829.767 -2.04595 0.0141485 0
M  V30 9012 H 829.777 -3.64113 -1.84081 0
M  V30 9013 H 828.452 -4.08565 -0.77764 0
M  V30 9014 H 827.029 -2.98189 -2.23914 0
M  V30 9015 N 829.214 0.302327 -1.54673 0
M  V30 9016 C 830.442 1.05669 -1.77881 0
M  V30 9017 C 830.857 1.80983 -0.537648 0
M  V30 9018 O 830.214 1.7573 0.492467 0
M  V30 9019 C 830.265 2.03828 -2.98557 0
M  V30 9020 O 829.986 1.3157 -4.17877 0
M  V30 9021 C 831.487 2.91314 -3.34143 0
M  V30 9022 H 828.707 0.313436 -0.593295 0
M  V30 9023 H 831.251 0.342003 -2.0162 0
M  V30 9024 H 829.406 2.70801 -2.7703 0
M  V30 9025 H 829.82 1.97481 -4.85903 0
M  V30 9026 H 831.294 3.56042 -4.21827 0
M  V30 9027 H 831.771 3.59544 -2.52239 0
M  V30 9028 H 832.377 2.29874 -3.57824 0
M  V30 9029 N 830.692 1.47107 0.565454 0
M  V30 9030 C 831.938 1.53535 1.32495 0
M  V30 9031 C 832.271 0.193537 1.93233 0
M  V30 9032 O 831.546 -0.796956 1.77423 0
M  V30 9033 C 831.829 2.64712 2.4413 0
M  V30 9034 C 831.682 4.08482 1.88314 0
M  V30 9035 C 833.001 2.71853 3.46098 0
M  V30 9036 H 830.12 0.558926 0.480386 0
M  V30 9037 H 832.762 1.79125 0.633575 0
M  V30 9038 H 830.912 2.43023 3.03104 0
M  V30 9039 H 832.584 4.4151 1.33665 0
M  V30 9040 H 830.827 4.17148 1.19037 0
M  V30 9041 H 831.498 4.82032 2.68978 0
M  V30 9042 H 833.974 2.91397 2.97031 0
M  V30 9043 H 832.85 3.51433 4.21646 0
M  V30 9044 H 833.111 1.78584 4.04426 0
M  V30 9045 N 832.17 -0.811516 1.35101 0
M  V30 9046 C 833.398 -1.59981 1.31201 0
M  V30 9047 C 833.813 -1.8847 -0.111552 0
M  V30 9048 O 833.17 -1.48414 -1.06205 0
M  V30 9049 C 833.221 -2.934 2.11184 0
M  V30 9050 O 832.942 -2.66148 3.4799 0
M  V30 9051 C 834.443 -3.87776 2.14813 0
M  V30 9052 H 831.663 -0.496921 0.450899 0
M  V30 9053 H 834.207 -1.00886 1.77883 0
M  V30 9054 H 832.362 -3.49022 1.68115 0
M  V30 9055 H 832.776 -3.51301 3.89471 0
M  V30 9056 H 834.25 -4.7852 2.75178 0
M  V30 9057 H 834.727 -4.23997 1.14556 0
M  V30 9058 H 835.333 -3.3809 2.58022 0
M  V30 9059 N 833.648 -1.19017 -1.03309 0
M  V30 9060 C 834.595 -0.924088 -2.11493 0
M  V30 9061 C 835.565 0.139464 -1.65513 0
M  V30 9062 O 836.75 -0.00178761 -1.908 0
M  V30 9063 C 833.89 -0.464255 -3.41963 0
M  V30 9064 C 833.003 -1.5941 -4.01513 0
M  V30 9065 C 832.138 -1.08622 -5.19976 0
M  V30 9066 C 831.177 -2.19024 -5.71572 0
M  V30 9067 N 830.314 -1.69575 -6.81314 0
M  V30 9068 H 835.154 -1.85039 -2.33591 0
M  V30 9069 H 832.691 -0.922593 -1.14572 0
M  V30 9070 H 834.649 -0.179078 -4.16815 0
M  V30 9071 H 833.279 0.425062 -3.19989 0
M  V30 9072 H 832.331 -1.99458 -3.23915 0
M  V30 9073 H 833.643 -2.42604 -4.35826 0
M  V30 9074 H 832.797 -0.756022 -6.01971 0
M  V30 9075 H 831.536 -0.223955 -4.87186 0
M  V30 9076 H 830.541 -2.5288 -4.88193 0
M  V30 9077 H 831.766 -3.05699 -6.06403 0
M  V30 9078 H 829.712 -0.856494 -6.50385 0
M  V30 9079 H 829.629 -2.46361 -7.14732 0
M  V30 9080 H 830.897 -1.39505 -7.66915 0
M  V30 9081 N 835.127 1.22348 -0.993418 0
M  V30 9082 C 836.057 2.26584 -0.564088 0
M  V30 9083 C 837.038 1.65102 0.409298 0
M  V30 9084 O 838.223 1.91872 0.299819 0
M  V30 9085 C 835.353 3.47087 0.121554 0
M  V30 9086 C 834.307 4.21009 -0.770429 0
M  V30 9087 C 833.633 5.34678 0.0481586 0
M  V30 9088 C 834.933 4.79636 -2.06752 0
M  V30 9089 H 836.627 2.62749 -1.43538 0
M  V30 9090 H 834.173 1.26303 -0.691628 0
M  V30 9091 H 836.126 4.19166 0.433303 0
M  V30 9092 H 834.85 3.1002 1.0274 0
M  V30 9093 H 833.509 3.50764 -1.06583 0
M  V30 9094 H 833.157 4.93852 0.954933 0
M  V30 9095 H 832.857 5.85061 -0.545641 0
M  V30 9096 H 834.381 6.09573 0.353991 0
M  V30 9097 H 835.795 5.43654 -1.81969 0
M  V30 9098 H 834.192 5.4036 -2.61019 0
M  V30 9099 H 835.262 3.99659 -2.74592 0
M  V30 9100 N 836.605 0.766683 1.37694 0
M  V30 9101 C 837.882 0.25366 1.93948 0
M  V30 9102 C 838.262 -1.25041 1.70082 0
M  V30 9103 O 837.61 -2.03115 1.04674 0
M  V30 9104 C 837.82 0.621549 3.43421 0
M  V30 9105 C 839.168 0.588504 4.20502 0
M  V30 9106 O 840.192 0.560632 3.5176 0
M  V30 9107 O 839.051 0.61107 5.43073 0
M  V30 9108 H 836.145 0.0570586 0.825029 0
M  V30 9109 H 838.691 0.847693 1.47011 0
M  V30 9110 H 837.463 1.65979 3.54354 0
M  V30 9111 H 837.086 0.000197027 3.976 0
M  V30 9112 N 838.083 -1.48885 0.516809 0
M  V30 9113 C 839.33 -2.02488 -0.0220602 0
M  V30 9114 C 839.658 -1.39513 -1.35523 0
M  V30 9115 O 838.913 -0.52558 -1.8851 0
M  V30 9116 C 839.212 -3.56801 -0.206798 0
M  V30 9117 C 838.878 -4.38496 1.05035 0
M  V30 9118 C 837.54 -4.60538 1.39492 0
M  V30 9119 C 839.892 -4.85909 1.88525 0
M  V30 9120 C 837.22 -5.2724 2.57361 0
M  V30 9121 C 839.572 -5.53909 3.05561 0
M  V30 9122 C 838.236 -5.74193 3.4038 0
M  V30 9123 H 837.506 -0.740956 -0.00807238 0
M  V30 9124 H 840.153 -1.79014 0.680168 0
M  V30 9125 H 838.458 -3.79042 -0.991687 0
M  V30 9126 H 840.155 -3.95885 -0.638447 0
M  V30 9127 H 836.745 -4.2159 0.771984 0
M  V30 9128 H 840.929 -4.68694 1.63218 0
M  V30 9129 H 836.185 -5.41145 2.84556 0
M  V30 9130 H 840.359 -5.89619 3.7057 0
M  V30 9131 H 837.986 -6.25652 4.31814 0
M  V30 9132 N 839.561 -0.251338 -1.55583 0
M  V30 9133 C 840.838 0.422729 -1.90977 0
M  V30 9134 C 841.218 1.75534 -1.17265 0
M  V30 9135 O 840.566 2.26632 -0.291588 0
M  V30 9136 C 840.776 0.586448 -3.44037 0
M  V30 9137 C 842.124 0.880294 -4.15375 0
M  V30 9138 O 843.148 0.672148 -3.49801 0
M  V30 9139 O 842.007 1.27694 -5.31372 0
M  V30 9140 H 839.101 0.227622 -0.795058 0
M  V30 9141 H 841.647 -0.295733 -1.67103 0
M  V30 9142 H 840.419 -0.352327 -3.89711 0
M  V30 9143 H 840.042 1.35528 -3.73789 0
M  V30 9144 N 841.039 1.57585 0.0217189 0
M  V30 9145 C 841.969 2.10073 1.01939 0
M  V30 9146 C 842.95 1.0049 1.37243 0
M  V30 9147 O 844.135 1.28055 1.45999 0
M  V30 9148 C 841.265 2.58618 2.31806 0
M  V30 9149 C 840.219 3.72531 2.10724 0
M  V30 9150 C 839.545 4.07309 3.46415 0
M  V30 9151 C 840.845 5.00672 1.48743 0
M  V30 9152 H 842.539 2.9368 0.582432 0
M  V30 9153 H 840.085 1.41277 0.278715 0
M  V30 9154 H 842.038 2.9396 3.01936 0
M  V30 9155 H 840.762 1.72104 2.77575 0
M  V30 9156 H 839.421 3.37549 1.43025 0
M  V30 9157 H 839.069 3.17851 3.89846 0
M  V30 9158 H 838.769 4.84042 3.33132 0
M  V30 9159 H 840.293 4.45192 4.17895 0
M  V30 9160 H 841.707 5.33925 2.088 0
M  V30 9161 H 840.104 5.82065 1.46013 0
M  V30 9162 H 841.174 4.82769 0.45408 0
M  V30 9163 N 842.517 -0.29412 1.54831 0
M  V30 9164 C 843.427 -1.3854 1.89325 0
M  V30 9165 C 844.443 -1.55127 0.788133 0
M  V30 9166 O 845.619 -1.6966 1.08524 0
M  V30 9167 C 842.684 -2.72809 2.13954 0
M  V30 9168 C 841.745 -2.65148 3.37631 0
M  V30 9169 C 840.978 -3.93014 3.61076 0
M  V30 9170 O 841.201 -4.927 2.87406 0
M  V30 9171 O 840.135 -3.94491 4.54599 0
M  V30 9172 H 843.961 -1.12289 2.82179 0
M  V30 9173 H 841.546 -0.490793 1.41108 0
M  V30 9174 H 843.428 -3.52238 2.31315 0
M  V30 9175 H 842.103 -2.9889 1.24285 0
M  V30 9176 H 841.01 -1.84168 3.25627 0
M  V30 9177 H 842.343 -2.4402 4.27452 0
M  V30 9178 N 843.995 -1.47404 -0.557645 0
M  V30 9179 C 845.406 -1.47872 -1.13977 0
M  V30 9180 C 845.757 -0.233176 -1.94809 0
M  V30 9181 O 844.882 0.661945 -2.06027 0
M  V30 9182 C 845.477 -2.67926 -2.07368 0
M  V30 9183 C 844.036 -2.71354 -2.60852 0
M  V30 9184 C 843.183 -2.40967 -1.37223 0
M  V30 9185 H 846.134 -1.54921 -0.344268 0
M  V30 9186 H 846.155 -2.44871 -2.91236 0
M  V30 9187 H 845.667 -3.58562 -1.48509 0
M  V30 9188 H 843.768 -1.84855 -3.23511 0
M  V30 9189 H 843.881 -3.72032 -3.01876 0
M  V30 9190 H 842.245 -1.91541 -1.67882 0
M  V30 9191 H 843.028 -3.33811 -0.801583 0
M  V30 9192 N 845.473 0.80434 -1.35529 0
M  V30 9193 C 846.383 1.94784 -1.30753 0
M  V30 9194 C 847.399 1.72703 -0.212071 0
M  V30 9195 O 848.575 1.96494 -0.441841 0
M  V30 9196 C 845.64 3.29406 -1.08133 0
M  V30 9197 C 844.701 3.64367 -2.27013 0
M  V30 9198 C 843.934 4.92566 -2.05463 0
M  V30 9199 O 844.157 5.61166 -1.02222 0
M  V30 9200 O 843.091 5.25838 -2.92879 0
M  V30 9201 H 846.917 2.01761 -2.26994 0
M  V30 9202 H 844.502 0.942448 -1.15924 0
M  V30 9203 H 846.384 4.09995 -0.973756 0
M  V30 9204 H 845.059 3.23355 -0.149444 0
M  V30 9205 H 843.966 2.84146 -2.43335 0
M  V30 9206 H 845.299 3.75125 -3.18656 0
M  V30 9207 N 846.951 1.19563 1.02676 0
M  V30 9208 C 848.362 1.00158 1.57561 0
M  V30 9209 C 848.713 -0.444922 1.91089 0
M  V30 9210 O 847.838 -1.32466 1.71119 0
M  V30 9211 C 848.433 1.81181 2.86284 0
M  V30 9212 C 846.992 1.66171 3.37734 0
M  V30 9213 C 846.139 1.7975 2.11152 0
M  V30 9214 H 849.09 1.33904 0.85179 0
M  V30 9215 H 849.111 1.30916 3.57269 0
M  V30 9216 H 848.623 2.86454 2.6185 0
M  V30 9217 H 846.724 0.634927 3.6715 0
M  V30 9218 H 846.837 2.46832 4.10622 0
M  V30 9219 H 845.201 1.22833 2.23123 0
M  V30 9220 H 845.984 2.86487 1.89157 0
M  V30 9221 N 848.429 -1.21819 0.999893 0
M  V30 9222 C 849.84 -1.72517 0.713775 0
M  V30 9223 C 850.191 -1.80505 -0.768922 0
M  V30 9224 O 849.316 -1.45611 -1.60083 0
M  V30 9225 C 849.911 -3.13321 1.28901 0
M  V30 9226 C 848.47 -3.61396 1.05212 0
M  V30 9227 C 847.617 -2.39074 1.40494 0
M  V30 9228 H 850.568 -1.07068 1.17141 0
M  V30 9229 H 850.589 -3.74535 0.671084 0
M  V30 9230 H 850.101 -3.07475 2.36814 0
M  V30 9231 H 848.202 -3.72599 -0.0100732 0
M  V30 9232 H 848.315 -4.47145 1.72042 0
M  V30 9233 H 846.679 -2.41015 0.823642 0
M  V30 9234 H 847.462 -2.35884 2.49427 0
M  V30 9235 N 849.908 -0.773975 -1.37286 0
M  V30 9236 C 851.319 -0.404433 -1.82267 0
M  V30 9237 C 851.67 1.06971 -1.64474 0
M  V30 9238 O 850.795 1.82867 -1.15708 0
M  V30 9239 C 851.39 -0.727298 -3.30902 0
M  V30 9240 C 849.949 -0.410784 -3.74152 0
M  V30 9241 C 849.096 -0.969983 -2.59782 0
M  V30 9242 H 852.047 -0.968437 -1.25726 0
M  V30 9243 H 852.068 -0.0127575 -3.80498 0
M  V30 9244 H 851.58 -1.80026 -3.4382 0
M  V30 9245 H 849.681 0.65477 -3.66802 0
M  V30 9246 H 849.794 -0.920592 -4.70172 0
M  V30 9247 H 848.158 -0.394094 -2.51633 0
M  V30 9248 H 848.941 -2.04839 -2.75492 0
M  V30 9249 N 851.386 1.48609 -0.524698 0
M  V30 9250 C 852.349 2.28041 0.230166 0
M  V30 9251 C 853.349 1.35065 0.872584 0
M  V30 9252 O 854.539 1.58007 0.73345 0
M  V30 9253 C 851.671 3.13778 1.33252 0
M  V30 9254 H 852.864 2.96239 -0.467161 0
M  V30 9255 H 850.417 1.53763 -0.280452 0
M  V30 9256 H 851.152 2.502 2.06327 0
M  V30 9257 H 850.937 3.82165 0.877058 0
M  V30 9258 H 852.427 3.7371 1.86362 0
M  V30 9259 N 852.864 0.259585 1.55447 0
M  V30 9260 C 854.275 -0.241165 1.85136 0
M  V30 9261 C 854.626 -1.56634 1.18153 0
M  V30 9262 O 853.751 -2.11359 0.464351 0
M  V30 9263 C 854.346 -0.444355 3.35873 0
M  V30 9264 C 852.905 -0.889354 3.65742 0
M  V30 9265 C 852.052 0.0262474 2.77288 0
M  V30 9266 H 855.003 0.481808 1.51209 0
M  V30 9267 H 855.024 -1.28517 3.58139 0
M  V30 9268 H 854.536 0.520289 3.84597 0
M  V30 9269 H 852.637 -1.86602 3.22507 0
M  V30 9270 H 852.75 -0.737432 4.73391 0
M  V30 9271 H 851.114 -0.487361 2.49994 0
M  V30 9272 H 851.897 0.986494 3.28821 0
M  V30 9273 N 854.342 -1.57594 -0.0133615 0
M  V30 9274 C 855.753 -1.78168 -0.557937 0
M  V30 9275 C 856.104 -0.892616 -1.74719 0
M  V30 9276 O 855.229 -0.0915491 -2.16206 0
M  V30 9277 C 855.824 -3.23115 -1.01894 0
M  V30 9278 C 854.383 -3.44831 -1.50892 0
M  V30 9279 C 853.53 -2.73558 -0.454044 0
M  V30 9280 H 856.481 -1.57266 0.212843 0
M  V30 9281 H 856.502 -3.30493 -1.8856 0
M  V30 9282 H 856.014 -3.87798 -0.153175 0
M  V30 9283 H 854.115 -2.85345 -2.39602 0
M  V30 9284 H 854.228 -4.53485 -1.54559 0
M  V30 9285 H 852.592 -2.37787 -0.912666 0
M  V30 9286 H 853.375 -3.40932 0.402524 0
M  V30 9287 N 855.82 0.285905 -1.54985 0
M  V30 9288 C 857.236 0.632405 -1.46536 0
M  V30 9289 C 857.436 1.90074 -0.668888 0
M  V30 9290 O 856.492 2.51839 -0.182586 0
M  V30 9291 C 857.805 0.771361 -2.90638 0
M  V30 9292 C 859.353 0.866262 -3.00774 0
M  V30 9293 C 859.828 1.0371 -4.46103 0
M  V30 9294 N 861.319 1.10294 -4.49877 0
M  V30 9295 C 862.054 1.25369 -5.59527 0
M  V30 9296 N 861.55 1.37246 -6.7907 0
M  V30 9297 N 863.343 1.28377 -5.47244 0
M  V30 9298 H 855.494 -0.547226 -2.0523 0
M  V30 9299 H 857.757 -0.183298 -0.930111 0
M  V30 9300 H 857.463 -0.0899485 -3.51585 0
M  V30 9301 H 857.337 1.65569 -3.3892 0
M  V30 9302 H 859.724 1.71805 -2.39931 0
M  V30 9303 H 859.805 -0.0424049 -2.55765 0
M  V30 9304 H 859.449 0.190021 -5.07544 0
M  V30 9305 H 859.379 1.96022 -4.88757 0
M  V30 9306 H 861.87 1.02407 -3.6376 0
M  V30 9307 H 862.183 1.48546 -7.58389 0
M  V30 9308 H 860.528 1.34274 -6.81906 0
M  V30 9309 H 863.719 1.1872 -4.52795 0
M  V30 9310 H 863.892 1.39782 -6.32744 0
M  V30 9311 N 857.298 1.47698 0.54982 0
M  V30 9312 C 858.261 1.60282 1.63837 0
M  V30 9313 C 859.261 0.477394 1.5355 0
M  V30 9314 O 860.451 0.742665 1.57576 0
M  V30 9315 C 857.583 1.55431 3.03404 0
M  V30 9316 H 858.776 2.57325 1.54026 0
M  V30 9317 H 856.329 1.35999 0.770329 0
M  V30 9318 H 857.064 0.597912 3.1874 0
M  V30 9319 H 856.849 2.37116 3.12279 0
M  V30 9320 H 858.339 1.6739 3.82584 0
M  V30 9321 N 858.776 -0.797141 1.35954 0
M  V30 9322 C 860.001 -1.59097 1.33053 0
M  V30 9323 C 860.426 -1.87897 -0.0874592 0
M  V30 9324 O 859.784 -1.47291 -1.05712 0
M  V30 9325 C 859.832 -2.89346 2.152 0
M  V30 9326 O 858.936 -3.826 1.5392 0
M  V30 9327 H 858.277 -0.482895 0.45575 0
M  V30 9328 H 860.807 -0.988633 1.79129 0
M  V30 9329 H 860.817 -3.38686 2.27499 0
M  V30 9330 H 859.492 -2.6771 3.18283 0
M  V30 9331 H 858.069 -3.41174 1.50516 0
M  V30 9332 N 860.254 -1.20106 -1.0204 0
M  V30 9333 C 861.479 -1.0351 -1.79723 0
M  V30 9334 C 861.904 0.411328 -1.83548 0
M  V30 9335 O 861.262 1.29608 -1.26773 0
M  V30 9336 C 861.31 -1.61876 -3.22224 0
M  V30 9337 O 860.414 -0.853813 -4.03465 0
M  V30 9338 H 859.755 -0.365299 -0.554484 0
M  V30 9339 H 862.285 -1.59316 -1.28373 0
M  V30 9340 H 862.295 -1.65451 -3.72948 0
M  V30 9341 H 860.97 -2.67148 -3.18755 0
M  V30 9342 H 859.547 -0.891983 -3.62075 0
M  V30 9343 N 861.732 1.21287 -1.00634 0
M  V30 9344 C 862.662 2.25973 -0.588089 0
M  V30 9345 C 863.643 1.65527 0.391764 0
M  V30 9346 O 864.828 1.92179 0.279452 0
M  V30 9347 C 861.958 3.47197 0.0847336 0
M  V30 9348 C 860.912 4.20168 -0.815039 0
M  V30 9349 C 860.238 5.34699 -0.00855393 0
M  V30 9350 C 861.538 4.77416 -2.11828 0
M  V30 9351 H 863.232 2.61212 -1.46317 0
M  V30 9352 H 860.778 1.25563 -0.704985 0
M  V30 9353 H 862.731 4.19602 0.388821 0
M  V30 9354 H 861.455 3.11092 0.994456 0
M  V30 9355 H 860.114 3.49614 -1.10297 0
M  V30 9356 H 859.762 4.94837 0.902499 0
M  V30 9357 H 859.462 5.84449 -0.607664 0
M  V30 9358 H 860.986 6.09914 0.289317 0
M  V30 9359 H 862.4 5.41694 -1.87725 0
M  V30 9360 H 860.797 5.37561 -2.66736 0
M  V30 9361 H 861.867 3.96724 -2.78816 0
M  V30 9362 N 863.21 0.781244 1.36873 0
M  V30 9363 C 864.458 0.349198 1.9906 0
M  V30 9364 C 864.779 -1.0806 1.62321 0
M  V30 9365 O 864.049 -1.74351 0.893229 0
M  V30 9366 H 862.629 0.126126 0.736275 0
M  V30 9367 H 865.291 1.00148 1.67202 0
M  V30 9368 H 864.387 0.434451 3.09061 0
M  V30 9369 N 864.689 -1.48329 0.532571 0
M  V30 9370 C 865.599 -2.33445 -0.232546 0
M  V30 9371 C 866.615 -1.46651 -0.93645 0
M  V30 9372 O 867.791 -1.79627 -0.910834 0
M  V30 9373 C 864.856 -3.22824 -1.26434 0
M  V30 9374 C 863.917 -4.25492 -0.570511 0
M  V30 9375 C 863.15 -5.10601 -1.55315 0
M  V30 9376 O 863.373 -4.97733 -2.78599 0
M  V30 9377 O 862.307 -5.91927 -1.09112 0
M  V30 9378 H 866.133 -3.00119 0.464988 0
M  V30 9379 H 863.718 -1.46489 0.293462 0
M  V30 9380 H 865.6 -3.78103 -1.86055 0
M  V30 9381 H 864.275 -2.58807 -1.94424 0
M  V30 9382 H 863.182 -3.74041 0.0662587 0
M  V30 9383 H 864.515 -4.92154 0.0674904 0
M  V30 9384 N 866.167 -0.267825 -1.55308 0
M  V30 9385 C 867.416 0.351635 -1.98611 0
M  V30 9386 C 867.729 1.57522 -1.15957 0
M  V30 9387 O 868.935 2.26717 -1.49371 0
M  V30 9388 C 867.391 0.676986 -3.53475 0
M  V30 9389 C 866.999 -0.526385 -4.44897 0
M  V30 9390 C 868.743 1.25948 -4.05386 0
M  V30 9391 C 866.65 -0.176026 -5.91138 0
M  V30 9392 H 865.58 0.13516 -0.741787 0
M  V30 9393 H 868.231 -0.371333 -1.79704 0
M  V30 9394 H 866.613 1.45866 -3.68156 0
M  V30 9395 H 867.787 -1.30339 -4.41982 0
M  V30 9396 H 866.102 -1.02522 -4.03582 0
M  V30 9397 H 868.699 1.53529 -5.12184 0
M  V30 9398 H 869.042 2.19094 -3.53982 0
M  V30 9399 H 869.575 0.540253 -3.94114 0
M  V30 9400 H 866.314 -1.07518 -6.46622 0
M  V30 9401 H 865.834 0.564363 -5.97139 0
M  V30 9402 H 867.513 0.234365 -6.46575 0
M  V30 9403 N 867.645 1.57599 0.00500368 0
M  V30 9404 C 868.922 1.81561 0.727654 0
M  V30 9405 C 869.302 0.871604 1.92266 0
M  V30 9406 O 868.65 -0.0808232 2.28357 0
M  V30 9407 C 868.86 3.29922 1.13809 0
M  V30 9408 C 870.208 3.95531 1.54403 0
M  V30 9409 O 871.232 3.34215 1.23202 0
M  V30 9410 O 870.091 5.03535 2.12402 0
M  V30 9411 H 867.185 0.747462 0.353878 0
M  V30 9412 H 869.731 1.69688 -0.0200667 0
M  V30 9413 H 868.503 3.90253 0.286078 0
M  V30 9414 H 868.126 3.46775 1.94507 0
M  V30 9415 N 869.123 -0.277682 1.55134 0
M  V30 9416 C 870.033 -1.36524 1.90783 0
M  V30 9417 C 871.049 -1.54283 0.804542 0
M  V30 9418 O 872.225 -1.68499 1.10318 0
M  V30 9419 C 869.29 -2.70524 2.16835 0
M  V30 9420 C 868.351 -2.61552 3.40424 0
M  V30 9421 C 867.584 -3.89162 3.65224 0
M  V30 9422 O 867.807 -4.89624 2.92616 0
M  V30 9423 O 866.741 -3.89647 4.58758 0
M  V30 9424 H 870.567 -1.0929 2.83354 0
M  V30 9425 H 868.152 -0.475799 1.41621 0
M  V30 9426 H 870.034 -3.49765 2.35038 0
M  V30 9427 H 868.709 -2.97555 1.27448 0
M  V30 9428 H 867.616 -1.80704 3.27562 0
M  V30 9429 H 868.949 -2.39472 4.30016 0
M  V30 9430 N 870.601 -1.47988 -0.541979 0
M  V30 9431 C 871.826 -1.59286 -1.32826 0
M  V30 9432 C 872.251 -0.24894 -1.86445 0
M  V30 9433 O 871.609 0.777581 -1.63778 0
M  V30 9434 C 871.657 -2.6334 -2.46343 0
M  V30 9435 O 870.761 -2.19667 -3.49028 0
M  V30 9436 H 870.102 -0.534543 -0.393903 0
M  V30 9437 H 872.632 -1.93885 -0.653427 0
M  V30 9438 H 872.642 -2.84238 -2.92699 0
M  V30 9439 H 871.317 -3.60913 -2.06675 0
M  V30 9440 H 869.894 -2.08932 -3.08872 0
M  V30 9441 N 872.079 0.78992 -1.36375 0
M  V30 9442 C 873.304 1.58389 -1.33895 0
M  V30 9443 C 873.729 1.8794 0.0774934 0
M  V30 9444 O 873.087 1.4785 1.0493 0
M  V30 9445 C 873.135 2.88201 -2.16732 0
M  V30 9446 O 872.239 3.81778 -1.55946 0
M  V30 9447 H 871.58 0.480471 -0.458305 0
M  V30 9448 H 874.11 0.979119 -1.79651 0
M  V30 9449 H 874.12 3.37475 -2.29292 0
M  V30 9450 H 872.795 2.66019 -3.19698 0
M  V30 9451 H 871.372 3.40371 -1.52323 0
M  V30 9452 N 873.557 1.20646 1.01402 0
M  V30 9453 C 874.467 0.973385 2.13453 0
M  V30 9454 C 875.483 -0.0715865 1.73853 0
M  V30 9455 O 876.659 0.116438 2.01063 0
M  V30 9456 C 873.724 0.531285 3.42605 0
M  V30 9457 C 872.785 1.64741 3.96433 0
M  V30 9458 C 872.018 1.22631 5.1942 0
M  V30 9459 O 872.241 0.0960891 5.70319 0
M  V30 9460 O 871.175 2.03474 5.66465 0
M  V30 9461 H 875.001 1.91164 2.35987 0
M  V30 9462 H 872.586 0.990553 1.11841 0
M  V30 9463 H 874.468 0.294095 4.20373 0
M  V30 9464 H 873.143 -0.378358 3.21481 0
M  V30 9465 H 872.05 1.93891 3.19933 0
M  V30 9466 H 873.383 2.53415 4.2195 0
M  V30 9467 N 875.035 -1.20752 1.01276 0
M  V30 9468 C 875.965 -2.25658 0.600064 0
M  V30 9469 C 876.946 -1.65733 -0.38298 0
M  V30 9470 O 878.131 -1.92324 -0.269256 0
M  V30 9471 C 875.261 -3.47237 -0.0663197 0
M  V30 9472 C 874.215 -4.1973 0.83731 0
M  V30 9473 C 873.541 -5.34687 0.0369102 0
M  V30 9474 C 874.841 -4.76286 2.14357 0
M  V30 9475 H 876.535 -2.60432 1.477 0
M  V30 9476 H 874.081 -1.25187 0.711634 0
M  V30 9477 H 876.034 -4.19803 -0.366563 0
M  V30 9478 H 874.758 -3.11615 -0.977944 0
M  V30 9479 H 873.417 -3.49024 1.1215 0
M  V30 9480 H 873.065 -4.95309 -0.876244 0
M  V30 9481 H 872.765 -5.84119 0.63865 0
M  V30 9482 H 874.289 -6.10059 -0.256968 0
M  V30 9483 H 875.703 -5.40691 1.90595 0
M  V30 9484 H 874.1 -5.36139 2.69583 0
M  V30 9485 H 875.17 -3.9524 2.80916 0
M  V30 9486 N 876.513 -0.788492 -1.36457 0
M  V30 9487 C 877.929 -0.470063 -1.52521 0
M  V30 9488 C 878.129 1.01176 -1.74258 0
M  V30 9489 O 877.185 1.79726 -1.77355 0
M  V30 9490 C 878.498 -1.2997 -2.71161 0
M  V30 9491 C 880.046 -1.2933 -2.85031 0
M  V30 9492 C 880.521 -2.10665 -4.06674 0
M  V30 9493 N 882.012 -2.08107 -4.13819 0
M  V30 9494 C 882.747 -2.6781 -5.07016 0
M  V30 9495 N 882.243 -3.36369 -6.05663 0
M  V30 9496 N 884.036 -2.57549 -4.99625 0
M  V30 9497 H 876.187 -1.7484 -1.20602 0
M  V30 9498 H 878.45 -0.743159 -0.588574 0
M  V30 9499 H 878.156 -2.35051 -2.61618 0
M  V30 9500 H 878.03 -0.940367 -3.6529 0
M  V30 9501 H 880.417 -0.250414 -2.94036 0
M  V30 9502 H 880.498 -1.69239 -1.91812 0
M  V30 9503 H 880.142 -3.14984 -3.98431 0
M  V30 9504 H 880.072 -1.68128 -4.9904 0
M  V30 9505 H 882.563 -1.58208 -3.43189 0
M  V30 9506 H 882.876 -3.79258 -6.73338 0
M  V30 9507 H 881.221 -3.40471 -6.05891 0
M  V30 9508 H 884.412 -2.0359 -4.21508 0
M  V30 9509 H 884.585 -3.0437 -5.72069 0
M  V30 9510 N 877.991 1.48044 -0.54043 0
M  V30 9511 C 879.237 2.02797 -0.0101718 0
M  V30 9512 C 879.57 1.41565 1.32939 0
M  V30 9513 O 878.845 0.565139 1.86109 0
M  V30 9514 C 879.128 3.59959 0.100758 0
M  V30 9515 C 878.981 4.31654 -1.26471 0
M  V30 9516 C 880.3 4.32347 0.822455 0
M  V30 9517 H 877.419 0.736982 -0.00517052 0
M  V30 9518 H 880.061 1.76656 -0.69948 0
M  V30 9519 H 878.211 3.82363 0.687824 0
M  V30 9520 H 879.883 4.20639 -1.89369 0
M  V30 9521 H 878.126 3.92663 -1.84386 0
M  V30 9522 H 878.797 5.401 -1.13998 0
M  V30 9523 H 881.273 4.14835 0.324164 0
M  V30 9524 H 880.149 5.41978 0.868993 0
M  V30 9525 H 880.41 4.00369 1.87501 0
M  V30 9526 N 879.47 0.276058 1.55163 0
M  V30 9527 C 880.4 -0.604633 2.25536 0
M  V30 9528 C 881.381 -1.15813 1.24585 0
M  V30 9529 O 882.566 -1.1921 1.53306 0
M  V30 9530 C 879.696 -1.78836 2.97716 0
M  V30 9531 C 878.65 -1.36635 4.05604 0
M  V30 9532 C 877.976 -2.63325 4.65364 0
M  V30 9533 C 879.276 -0.515858 5.19746 0
M  V30 9534 H 880.97 -0.0177483 2.99395 0
M  V30 9535 H 878.516 -0.00709627 1.43998 0
M  V30 9536 H 880.469 -2.41036 3.45658 0
M  V30 9537 H 879.193 -2.40109 2.21394 0
M  V30 9538 H 877.852 -0.767541 3.58475 0
M  V30 9539 H 877.5 -3.22858 3.85709 0
M  V30 9540 H 877.2 -2.358 5.38212 0
M  V30 9541 H 878.724 -3.26372 5.16056 0
M  V30 9542 H 880.138 -1.04289 5.63735 0
M  V30 9543 H 878.535 -0.335449 5.99162 0
M  V30 9544 H 879.605 0.465137 4.82664 0
M  V30 9545 N 880.948 -1.576 0.00335426 0
M  V30 9546 C 882.225 -1.81945 -0.718015 0
M  V30 9547 C 882.605 -0.881788 -1.91801 0
M  V30 9548 O 881.953 0.0687118 -2.28397 0
M  V30 9549 C 882.163 -3.30521 -1.12058 0
M  V30 9550 C 883.511 -3.96345 -1.52303 0
M  V30 9551 O 884.535 -3.34864 -1.21428 0
M  V30 9552 O 883.394 -5.04655 -2.09728 0
M  V30 9553 H 880.488 -0.749328 -0.34991 0
M  V30 9554 H 883.034 -1.69675 0.0290654 0
M  V30 9555 H 881.806 -3.90399 -0.265378 0
M  V30 9556 H 881.429 -3.47802 -1.92665 0
M  V30 9557 N 882.426 0.269451 -1.5528 0
M  V30 9558 C 883.675 0.998381 -1.75258 0
M  V30 9559 C 883.988 1.87321 -0.563034 0
M  V30 9560 O 885.194 2.63719 -0.645313 0
M  V30 9561 C 883.65 1.82505 -3.10193 0
M  V30 9562 C 883.258 0.99871 -4.36726 0
M  V30 9563 C 885.002 2.54807 -3.3952 0
M  V30 9564 C 882.909 1.81997 -5.627 0
M  V30 9565 H 881.839 0.376488 -0.653278 0
M  V30 9566 H 884.49 0.253909 -1.81735 0
M  V30 9567 H 882.872 2.61061 -2.97763 0
M  V30 9568 H 884.046 0.257064 -4.60082 0
M  V30 9569 H 882.361 0.390074 -4.14569 0
M  V30 9570 H 884.958 3.16662 -4.30847 0
M  V30 9571 H 885.301 3.25273 -2.59813 0
M  V30 9572 H 885.834 1.83278 -3.53064 0
M  V30 9573 H 882.573 1.15945 -6.45164 0
M  V30 9574 H 882.093 2.53749 -5.43481 0
M  V30 9575 H 883.772 2.39274 -6.0113 0
M  V30 9576 N 883.904 1.48273 0.534124 0
M  V30 9577 C 885.315 1.49667 1.1161 0
M  V30 9578 C 885.666 0.264139 1.94414 0
M  V30 9579 O 884.791 -0.629084 2.07054 0
M  V30 9580 C 885.386 2.71191 2.03079 0
M  V30 9581 C 883.945 2.7547 2.56502 0
M  V30 9582 C 883.092 2.43119 1.33373 0
M  V30 9583 H 886.043 1.55449 0.319578 0
M  V30 9584 H 886.064 2.49473 2.87304 0
M  V30 9585 H 885.576 3.60879 1.42785 0
M  V30 9586 H 883.677 1.89979 3.20529 0
M  V30 9587 H 883.79 3.76787 2.95919 0
M  V30 9588 H 882.154 1.94187 1.64813 0
M  V30 9589 H 882.937 3.35044 0.748375 0
M  V30 9590 N 885.382 -0.782676 1.36792 0
M  V30 9591 C 886.63 -1.53778 1.31136 0
M  V30 9592 C 886.951 -1.94706 -0.107014 0
M  V30 9593 O 886.221 -1.65465 -1.04872 0
M  V30 9594 H 884.801 -0.570328 0.482426 0
M  V30 9595 H 887.463 -0.932181 1.71162 0
M  V30 9596 H 886.559 -2.44224 1.94321 0
M  V30 9597 N 886.86 -1.21182 -1.00761 0
M  V30 9598 C 887.792 -0.926523 -2.09638 0
M  V30 9599 C 888.805 0.0892511 -1.62555 0
M  V30 9600 O 889.994 -0.142915 -1.77927 0
M  V30 9601 C 887.094 -0.369175 -3.36883 0
M  V30 9602 C 886.267 -1.43866 -4.13063 0
M  V30 9603 C 885.326 -0.891015 -5.18601 0
M  V30 9604 O 884.352 -1.57384 -5.47009 0
M  V30 9605 N 885.554 0.295057 -5.7975 0
M  V30 9606 H 888.319 -1.8638 -2.34697 0
M  V30 9607 H 885.88 -1.11671 -1.17223 0
M  V30 9608 H 887.872 0.011534 -4.04698 0
M  V30 9609 H 886.442 0.472861 -3.09003 0
M  V30 9610 H 885.662 -1.99332 -3.40089 0
M  V30 9611 H 886.95 -2.15866 -4.60738 0
M  V30 9612 H 886.348 0.8669 -5.59018 0
M  V30 9613 H 884.905 0.617306 -6.4887 0
M  V30 9614 N 888.338 1.20213 -1.01915 0
M  V30 9615 C 889.615 1.85348 -0.62495 0
M  V30 9616 C 889.995 1.91101 0.896854 0
M  V30 9617 O 889.343 1.42075 1.78961 0
M  V30 9618 C 889.553 3.24849 -1.27571 0
M  V30 9619 C 890.901 4.01107 -1.39277 0
M  V30 9620 O 891.925 3.34211 -1.23212 0
M  V30 9621 O 890.784 5.20914 -1.6526 0
M  V30 9622 H 887.878 0.798303 -0.215965 0
M  V30 9623 H 890.424 1.27782 -1.11669 0
M  V30 9624 H 889.196 3.1544 -2.31545 0
M  V30 9625 H 888.819 3.90049 -0.77122 0
M  V30 9626 N 889.816 0.795718 1.36037 0
M  V30 9627 C 891.041 0.38204 2.03851 0
M  V30 9628 C 891.466 -0.995553 1.59594 0
M  V30 9629 O 890.824 -1.64258 0.767401 0
M  V30 9630 C 890.872 0.461248 3.57638 0
M  V30 9631 O 889.976 -0.529448 4.08987 0
M  V30 9632 H 889.317 0.161227 0.644129 0
M  V30 9633 H 891.847 1.07858 1.73861 0
M  V30 9634 H 891.857 0.32712 4.06687 0
M  V30 9635 H 890.532 1.46613 3.89201 0
M  V30 9636 H 889.109 -0.35646 3.71192 0
M  V30 9637 N 891.294 -1.47756 0.548274 0
M  V30 9638 C 892.204 -2.33678 -0.207773 0
M  V30 9639 C 893.22 -1.47636 -0.920843 0
M  V30 9640 O 894.396 -1.80583 -0.89173 0
M  V30 9641 C 891.461 -3.24147 -1.23003 0
M  V30 9642 C 890.522 -4.26073 -0.52535 0
M  V30 9643 C 889.755 -5.12219 -1.4989 0
M  V30 9644 O 889.978 -5.0066 -2.73305 0
M  V30 9645 O 888.912 -5.93051 -1.02828 0
M  V30 9646 H 892.738 -2.99609 0.496794 0
M  V30 9647 H 890.323 -1.4617 0.308982 0
M  V30 9648 H 892.205 -3.80055 -1.82034 0
M  V30 9649 H 890.88 -2.60855 -1.91668 0
M  V30 9650 H 889.787 -3.7395 0.105927 0
M  V30 9651 H 891.12 -4.92054 0.119686 0
M  V30 9652 N 892.772 -0.284283 -1.55015 0
M  V30 9653 C 894 0.332948 -2.04203 0
M  V30 9654 C 894.415 1.48783 -1.16229 0
M  V30 9655 O 893.772 1.81567 -0.184323 0
M  V30 9656 C 893.823 0.805207 -3.52418 0
M  V30 9657 O 893.544 -0.303689 -4.37046 0
M  V30 9658 C 895.045 1.48931 -4.17534 0
M  V30 9659 H 892.265 0.0747447 -0.666824 0
M  V30 9660 H 894.809 -0.419048 -2.00161 0
M  V30 9661 H 892.964 1.50727 -3.56876 0
M  V30 9662 H 893.378 0.0609703 -5.24465 0
M  V30 9663 H 894.852 1.77108 -5.22816 0
M  V30 9664 H 895.329 2.42389 -3.66257 0
M  V30 9665 H 895.935 0.830867 -4.17105 0
M  V30 9666 N 894.251 1.57596 -0.0117121 0
M  V30 9667 C 895.497 1.91355 0.671661 0
M  V30 9668 C 895.83 0.886818 1.72769 0
M  V30 9669 O 895.105 -0.0928813 1.94278 0
M  V30 9670 C 895.388 3.35657 1.30409 0
M  V30 9671 C 895.241 4.49055 0.2588 0
M  V30 9672 C 896.56 3.79595 2.22701 0
M  V30 9673 H 893.679 0.695893 0.242698 0
M  V30 9674 H 896.321 1.89887 -0.0654071 0
M  V30 9675 H 894.471 3.37038 1.9323 0
M  V30 9676 H 896.143 4.59809 -0.370631 0
M  V30 9677 H 894.386 4.31785 -0.417672 0
M  V30 9678 H 895.057 5.4701 0.740578 0
M  V30 9679 H 897.533 3.7984 1.69885 0
M  V30 9680 H 896.409 4.81292 2.63912 0
M  V30 9681 H 896.67 3.14118 3.11098 0
M  V30 9682 N 895.729 -0.261212 1.5542 0
M  V30 9683 C 896.976 -0.99123 1.76581 0
M  V30 9684 C 897.304 -1.85854 0.573457 0
M  V30 9685 O 896.559 -1.90604 -0.443705 0
M  V30 9686 C 896.858 -1.89395 3.03091 0
M  V30 9687 C 896.524 -1.18318 4.351 0
M  V30 9688 C 895.186 -0.986688 4.70975 0
M  V30 9689 C 897.538 -0.678299 5.16767 0
M  V30 9690 C 894.866 -0.272788 5.86065 0
M  V30 9691 C 897.218 0.0220646 6.32596 0
M  V30 9692 C 895.882 0.230161 6.67103 0
M  V30 9693 H 895.152 -0.362717 0.646156 0
M  V30 9694 H 897.799 -0.262506 1.89692 0
M  V30 9695 H 896.104 -2.68927 2.8493 0
M  V30 9696 H 897.801 -2.46022 3.16661 0
M  V30 9697 H 894.391 -1.34625 4.06908 0
M  V30 9698 H 898.575 -0.817691 4.89518 0
M  V30 9699 H 893.831 -0.10095 6.11317 0
M  V30 9700 H 898.005 0.420981 6.95126 0
M  V30 9701 H 895.632 0.785312 7.56133 0
M  V30 9702 N 897.207 -1.48554 -0.526253 0
M  V30 9703 C 898.484 -1.47252 -1.28748 0
M  V30 9704 C 898.864 -0.186245 -2.10277 0
M  V30 9705 O 898.212 0.831954 -2.12816 0
M  V30 9706 C 898.422 -2.73672 -2.16575 0
M  V30 9707 C 899.77 -3.22151 -2.76593 0
M  V30 9708 O 900.794 -2.74614 -2.2686 0
M  V30 9709 O 899.653 -4.04877 -3.67066 0
M  V30 9710 H 896.747 -0.588242 -0.581292 0
M  V30 9711 H 899.293 -1.60792 -0.5426 0
M  V30 9712 H 898.065 -3.58798 -1.56139 0
M  V30 9713 H 897.688 -2.6287 -2.98304 0
M  V30 9714 N 898.685 0.775411 -1.37205 0
M  V30 9715 C 899.934 1.52909 -1.31536 0
M  V30 9716 C 900.247 1.9535 0.0989374 0
M  V30 9717 O 901.453 2.70072 0.278079 0
M  V30 9718 C 899.909 2.761 -2.30861 0
M  V30 9719 C 899.517 2.40773 -3.77799 0
M  V30 9720 C 901.261 3.54052 -2.34195 0
M  V30 9721 C 899.168 3.60444 -4.68865 0
M  V30 9722 H 898.098 0.574061 -0.488845 0
M  V30 9723 H 900.749 0.849642 -1.62645 0
M  V30 9724 H 899.131 3.45916 -1.92764 0
M  V30 9725 H 900.305 1.78764 -4.24712 0
M  V30 9726 H 898.62 1.76004 -3.77375 0
M  V30 9727 H 901.217 4.42992 -2.99437 0
M  V30 9728 H 901.56 3.93649 -1.35449 0
M  V30 9729 H 902.093 2.91229 -2.7098 0
M  V30 9730 H 898.832 3.25932 -5.68725 0
M  V30 9731 H 898.352 4.21571 -4.26659 0
M  V30 9732 H 900.031 4.27302 -4.85821 0
M  V30 9733 N 900.163 1.21714 1.00117 0
M  V30 9734 C 901.095 0.937627 2.09144 0
M  V30 9735 C 902.108 -0.0806291 1.626 0
M  V30 9736 O 903.297 0.152348 1.77849 0
M  V30 9737 C 900.397 0.387036 3.36683 0
M  V30 9738 C 899.57 1.46054 4.12295 0
M  V30 9739 C 898.629 0.918505 5.18122 0
M  V30 9740 O 897.655 1.60282 5.46167 0
M  V30 9741 N 898.857 -0.264308 5.79898 0
M  V30 9742 H 901.622 1.87622 2.33705 0
M  V30 9743 H 899.183 1.12291 1.16629 0
M  V30 9744 H 901.175 0.00992825 4.04699 0
M  V30 9745 H 899.745 -0.456467 3.09249 0
M  V30 9746 H 898.965 2.01133 3.39027 0
M  V30 9747 H 900.253 2.18306 4.59587 0
M  V30 9748 H 899.651 -0.837242 5.5947 0
M  V30 9749 H 898.208 -0.582886 6.49188 0
M  V30 9750 N 901.641 -1.19671 1.02551 0
M  V30 9751 C 902.589 -2.24812 0.596867 0
M  V30 9752 C 903.583 -1.65336 -0.368839 0
M  V30 9753 O 904.789 -1.78422 -0.237786 0
M  V30 9754 H 901.164 -0.731417 0.174739 0
M  V30 9755 H 903.135 -2.58286 1.49435 0
M  V30 9756 C 901.884 -3.47677 -0.0399514 0
M  V30 9757 H 901.207 -3.93728 0.694153 0
M  V30 9758 H 902.647 -4.22917 -0.302861 0
M  V30 9759 C 901.106 -3.11411 -1.2855 0
M  V30 9760 O 901.636 -3.23757 -2.37791 0
M  V30 9761 N 899.842 -2.65875 -1.17297 0
M  V30 9762 H 899.389 -2.56029 -0.284045 0
M  V30 9763 H 899.347 -2.41981 -2.00731 0
M  V30 9764 N 903.119 -0.802921 -1.35613 0
M  V30 9765 C 904.396 -0.304993 -1.93208 0
M  V30 9766 C 904.776 1.20488 -1.73337 0
M  V30 9767 O 904.124 2.00268 -1.10022 0
M  V30 9768 C 904.334 -0.712383 -3.41652 0
M  V30 9769 C 905.682 -0.699785 -4.18794 0
M  V30 9770 O 906.706 -0.653698 -3.5015 0
M  V30 9771 O 905.565 -0.754842 -5.41262 0
M  V30 9772 H 902.659 -0.0789127 -0.823226 0
M  V30 9773 H 905.205 -0.886372 -1.44712 0
M  V30 9774 H 903.977 -1.75316 -3.49829 0
M  V30 9775 H 903.6 -0.105614 -3.9746 0
M  V30 9776 N 904.597 1.47463 -0.556102 0
M  V30 9777 C 906.013 1.58134 -0.21579 0
M  V30 9778 C 906.213 1.55486 1.28166 0
M  V30 9779 O 905.269 1.45768 2.06174 0
M  V30 9780 C 906.582 2.88686 -0.841464 0
M  V30 9781 C 908.13 3.02268 -0.812591 0
M  V30 9782 C 908.605 4.35518 -1.41731 0
M  V30 9783 N 910.096 4.42151 -1.38045 0
M  V30 9784 C 910.831 5.43817 -1.81799 0
M  V30 9785 N 910.327 6.52299 -2.33404 0
M  V30 9786 N 912.12 5.34855 -1.72877 0
M  V30 9787 H 904.271 1.47428 -1.52901 0
M  V30 9788 H 906.534 0.701586 -0.637559 0
M  V30 9789 H 906.24 2.96358 -1.8938 0
M  V30 9790 H 906.114 3.7572 -0.333846 0
M  V30 9791 H 908.501 2.94194 0.231056 0
M  V30 9792 H 908.582 2.16779 -1.35796 0
M  V30 9793 H 908.226 4.44348 -2.46002 0
M  V30 9794 H 908.156 5.19737 -0.847402 0
M  V30 9795 H 910.647 3.64348 -1.00296 0
M  V30 9796 H 910.96 7.26047 -2.64717 0
M  V30 9797 H 909.305 6.53192 -2.37414 0
M  V30 9798 H 912.496 4.49004 -1.32338 0
M  V30 9799 H 912.669 6.13949 -2.07294 0
M  V30 9800 N 906.075 0.2925 1.54862 0
M  V30 9801 C 907.023 -0.603186 2.24643 0
M  V30 9802 C 908.017 -1.1439 1.24946 0
M  V30 9803 O 909.223 -1.09552 1.42823 0
M  V30 9804 H 905.598 -0.213105 0.721173 0
M  V30 9805 H 907.569 0.00799278 2.98399 0
M  V30 9806 C 906.318 -1.76769 2.99413 0
M  V30 9807 H 905.641 -1.36084 3.75927 0
M  V30 9808 H 907.081 -2.37066 3.51533 0
M  V30 9809 C 905.54 -2.66669 2.05886 0
M  V30 9810 O 906.07 -3.67525 1.62136 0
M  V30 9811 N 904.276 -2.34216 1.7202 0
M  V30 9812 H 903.823 -1.52246 2.07795 0
M  V30 9813 H 903.781 -2.94635 1.09717 0
M  V30 9814 N 907.553 -1.57587 0.0200696 0
M  V30 9815 C 908.778 -1.96124 -0.674547 0
M  V30 9816 C 909.203 -0.896068 -1.65385 0
M  V30 9817 O 908.561 0.143925 -1.80728 0
M  V30 9818 C 908.609 -3.3376 -1.36517 0
M  V30 9819 O 907.713 -3.29483 -2.48022 0
M  V30 9820 H 907.054 -0.639719 -0.177919 0
M  V30 9821 H 909.584 -2.04447 0.0792317 0
M  V30 9822 H 909.594 -3.69785 -1.72403 0
M  V30 9823 H 908.269 -4.10832 -0.647265 0
M  V30 9824 H 906.846 -3.05162 -2.14314 0
M  V30 9825 N 909.032 0.252966 -1.55557 0
M  V30 9826 C 910.281 0.979736 -1.76307 0
M  V30 9827 C 910.594 1.86714 -0.582871 0
M  V30 9828 O 911.8 2.6302 -0.673247 0
M  V30 9829 C 910.256 1.79205 -3.12112 0
M  V30 9830 C 909.864 0.952333 -4.37761 0
M  V30 9831 C 911.608 2.51191 -3.42203 0
M  V30 9832 C 909.515 1.76018 -5.64599 0
M  V30 9833 H 908.445 0.369538 -0.657235 0
M  V30 9834 H 911.096 0.234619 -1.81994 0
M  V30 9835 H 909.478 2.57888 -3.00515 0
M  V30 9836 H 910.652 0.208251 -4.60329 0
M  V30 9837 H 908.967 0.346082 -4.14959 0
M  V30 9838 H 911.564 3.12074 -4.34182 0
M  V30 9839 H 911.907 3.22499 -2.63249 0
M  V30 9840 H 912.44 1.79523 -3.54988 0
M  V30 9841 H 909.179 1.09095 -6.46358 0
M  V30 9842 H 908.699 2.4797 -5.46142 0
M  V30 9843 H 910.378 2.32884 -6.03634 0
M  V30 9844 N 910.51 1.48831 0.518367 0
M  V30 9845 C 911.44 1.67119 1.63075 0
M  V30 9846 C 912.421 0.519948 1.61958 0
M  V30 9847 O 913.606 0.753824 1.78972 0
M  V30 9848 C 910.736 1.72158 3.01627 0
M  V30 9849 C 909.69 2.86898 3.17606 0
M  V30 9850 C 909.016 2.77035 4.57335 0
M  V30 9851 C 910.316 4.28057 2.99274 0
M  V30 9852 H 912.01 2.60248 1.48025 0
M  V30 9853 H 909.556 1.2524 0.710694 0
M  V30 9854 H 911.509 1.83539 3.7933 0
M  V30 9855 H 910.233 0.756157 3.17726 0
M  V30 9856 H 908.892 2.75091 2.42323 0
M  V30 9857 H 908.54 1.78438 4.70286 0
M  V30 9858 H 908.24 3.54036 4.6897 0
M  V30 9859 H 909.764 2.904 5.37122 0
M  V30 9860 H 911.178 4.40636 3.6676 0
M  V30 9861 H 909.575 5.06145 3.22393 0
M  V30 9862 H 910.645 4.4371 1.95574 0
M  V30 9863 N 911.988 -0.768124 1.37614 0
M  V30 9864 C 913.399 -1.34462 1.29525 0
M  V30 9865 C 913.75 -1.96121 -0.0555168 0
M  V30 9866 O 912.875 -1.94069 -0.957406 0
M  V30 9867 C 913.47 -2.44475 2.34558 0
M  V30 9868 C 912.029 -2.97883 2.30093 0
M  V30 9869 C 911.176 -1.71131 2.18196 0
M  V30 9870 H 914.127 -0.568103 1.48183 0
M  V30 9871 H 914.148 -3.24047 1.99434 0
M  V30 9872 H 913.66 -1.99568 3.32858 0
M  V30 9873 H 911.761 -3.47156 1.35328 0
M  V30 9874 H 911.874 -3.53251 3.23652 0
M  V30 9875 H 910.238 -1.94197 1.64802 0
M  V30 9876 H 911.021 -1.28323 3.18415 0
M  V30 9877 N 913.466 -1.22244 -0.994698 0
M  V30 9878 C 914.413 -0.990906 -2.08446 0
M  V30 9879 C 915.383 0.086737 -1.65873 0
M  V30 9880 O 916.568 -0.0624882 -1.90698 0
M  V30 9881 C 913.708 -0.572813 -3.40313 0
M  V30 9882 C 912.821 -1.72103 -3.96238 0
M  V30 9883 C 911.956 -1.2511 -5.16257 0
M  V30 9884 C 910.995 -2.37098 -5.64315 0
M  V30 9885 N 910.132 -1.91164 -6.75574 0
M  V30 9886 H 914.972 -1.92377 -2.27585 0
M  V30 9887 H 912.509 -0.958576 -1.11578 0
M  V30 9888 H 914.467 -0.311594 -4.16035 0
M  V30 9889 H 913.097 0.323044 -3.21179 0
M  V30 9890 H 912.149 -2.09662 -3.17405 0
M  V30 9891 H 913.461 -2.56347 -4.27888 0
M  V30 9892 H 912.615 -0.947152 -5.99261 0
M  V30 9893 H 911.354 -0.378836 -4.86226 0
M  V30 9894 H 910.359 -2.68283 -4.799 0
M  V30 9895 H 911.584 -3.24837 -5.96371 0
M  V30 9896 H 909.53 -1.06298 -6.47331 0
M  V30 9897 H 909.447 -2.68975 -7.06533 0
M  V30 9898 H 910.715 -1.63833 -7.62088 0
M  V30 9899 N 914.944 1.19125 -1.03184 0
M  V30 9900 C 916.169 1.93379 -0.749628 0
M  V30 9901 C 916.594 1.75153 0.685785 0
M  V30 9902 O 915.952 1.05579 1.47386 0
M  V30 9903 C 916 3.43101 -1.1097 0
M  V30 9904 O 915.104 4.11758 -0.230053 0
M  V30 9905 H 914.445 0.603605 -0.276689 0
M  V30 9906 H 916.975 1.51116 -1.37931 0
M  V30 9907 H 916.985 3.93778 -1.06785 0
M  V30 9908 H 915.66 3.55688 -2.15544 0
M  V30 9909 H 914.237 3.7143 -0.330748 0
M  V30 9910 N 916.422 0.810101 1.35185 0
M  V30 9911 C 917.354 0.180581 2.28488 0
M  V30 9912 C 918.367 -0.622154 1.50443 0
M  V30 9913 O 919.556 -0.453938 1.72632 0
M  V30 9914 C 916.656 -0.766447 3.30119 0
M  V30 9915 C 915.829 -0.00932028 4.37399 0
M  V30 9916 C 914.888 -0.875354 5.18868 0
M  V30 9917 O 913.914 -0.325012 5.68271 0
M  V30 9918 N 915.116 -2.19695 5.37321 0
M  V30 9919 H 917.881 0.98212 2.83151 0
M  V30 9920 H 915.442 0.665879 1.47573 0
M  V30 9921 H 917.434 -1.35012 3.81515 0
M  V30 9922 H 916.004 -1.46878 2.75945 0
M  V30 9923 H 915.224 0.755585 3.86891 0
M  V30 9924 H 916.512 0.512352 5.06214 0
M  V30 9925 H 915.91 -2.66797 4.98834 0
M  V30 9926 H 914.467 -2.72978 5.91884 0
M  V30 9927 N 917.9 -1.47166 0.563914 0
M  V30 9928 C 919.125 -2.0735 0.0454698 0
M  V30 9929 C 919.55 -1.41281 -1.24182 0
M  V30 9930 O 918.908 -0.490084 -1.7455 0
M  V30 9931 C 918.956 -3.60378 -0.126453 0
M  V30 9932 O 918.06 -3.94934 -1.18746 0
M  V30 9933 H 917.401 -0.661773 0.0543377 0
M  V30 9934 H 919.931 -1.89086 0.781508 0
M  V30 9935 H 919.941 -4.06593 -0.338554 0
M  V30 9936 H 918.616 -4.07862 0.81373 0
M  V30 9937 H 917.193 -3.60455 -0.955318 0
M  V30 9938 N 919.378 -0.300708 -1.54705 0
M  V30 9939 C 920.288 0.584996 -2.27189 0
M  V30 9940 C 921.304 1.14866 -1.30697 0
M  V30 9941 O 922.48 1.17351 -1.63679 0
M  V30 9942 C 919.545 1.74076 -2.99831 0
M  V30 9943 C 918.606 1.2112 -4.1186 0
M  V30 9944 C 917.839 2.31188 -4.81028 0
M  V30 9945 O 918.062 3.5108 -4.49554 0
M  V30 9946 O 916.996 1.97897 -5.68437 0
M  V30 9947 H 920.822 -0.00298177 -3.037 0
M  V30 9948 H 918.407 -0.0671802 -1.49249 0
M  V30 9949 H 920.289 2.41413 -3.45395 0
M  V30 9950 H 918.964 2.31535 -2.26215 0
M  V30 9951 H 917.871 0.50357 -3.70695 0
M  V30 9952 H 919.204 0.682046 -4.87452 0
M  V30 9953 N 920.856 1.57574 -0.0284266 0
M  V30 9954 C 922.086 1.95787 0.659617 0
M  V30 9955 C 922.494 0.903475 1.66235 0
M  V30 9956 O 921.837 -0.12329 1.83286 0
M  V30 9957 C 921.899 3.30139 1.42298 0
M  V30 9958 C 921.563 4.53322 0.578658 0
M  V30 9959 C 922.56 5.19696 -0.145751 0
M  V30 9960 C 920.245 4.9964 0.516264 0
M  V30 9961 C 922.239 6.30708 -0.921235 0
M  V30 9962 C 919.926 6.10534 -0.262925 0
M  V30 9963 C 920.924 6.75927 -0.980382 0
M  V30 9964 O 920.612 7.84692 -1.7468 0
M  V30 9965 H 920.344 0.649681 0.186792 0
M  V30 9966 H 922.898 2.05227 -0.0842687 0
M  V30 9967 H 921.128 3.17188 2.21199 0
M  V30 9968 H 922.817 3.53259 1.99906 0
M  V30 9969 H 923.583 4.84882 -0.106876 0
M  V30 9970 H 919.462 4.48547 1.06427 0
M  V30 9971 H 923.006 6.81682 -1.48176 0
M  V30 9972 H 918.903 6.44786 -0.303519 0
M  V30 9973 H 919.671 8.01355 -1.6665 0
M  V30 9974 N 922.334 -0.244713 1.55689 0
M  V30 9975 C 923.281 -1.30301 1.905 0
M  V30 9976 C 924.251 -1.4772 0.759478 0
M  V30 9977 O 925.436 -1.61667 1.01333 0
M  V30 9978 C 922.576 -2.653 2.20703 0
M  V30 9979 C 921.689 -2.55872 3.48071 0
M  V30 9980 C 920.824 -3.83238 3.67834 0
M  V30 9981 C 919.863 -3.68436 4.88796 0
M  V30 9982 N 919 -4.877 5.05068 0
M  V30 9983 H 923.84 -0.999143 2.80751 0
M  V30 9984 H 921.377 -0.482099 1.38976 0
M  V30 9985 H 923.335 -3.43884 2.36219 0
M  V30 9986 H 921.965 -2.93831 1.33653 0
M  V30 9987 H 921.017 -1.68846 3.40874 0
M  V30 9988 H 922.329 -2.40845 4.36801 0
M  V30 9989 H 921.483 -4.70266 3.83321 0
M  V30 9990 H 920.222 -4.01165 2.77341 0
M  V30 9991 H 919.227 -2.79793 4.73282 0
M  V30 9992 H 920.452 -3.52003 5.8075 0
M  V30 9993 H 918.398 -5.05983 4.17513 0
M  V30 9994 H 918.315 -4.75312 5.8789 0
M  V30 9995 H 919.583 -5.76219 5.24969 0
M  V30 9996 N 923.813 -1.49104 -0.510467 0
M  V30 9997 C 925.224 -1.51423 -1.09215 0
M  V30 9998 C 925.575 -0.295035 -1.93969 0
M  V30 9999 O 924.7 0.596064 -2.08029 0
M  V30 10000 C 925.295 -2.74387 -1.98739 0
M  V30 10001 C 923.854 -2.79515 -2.52088 0
M  V30 10002 C 923.001 -2.4521 -1.29488 0
M  V30 10003 H 925.952 -1.55938 -0.294807 0
M  V30 10004 H 925.973 -2.54012 -2.83298 0
M  V30 10005 H 925.485 -3.63105 -1.37026 0
M  V30 10006 H 923.586 -1.95054 -3.17466 0
M  V30 10007 H 923.699 -3.81447 -2.89887 0
M  V30 10008 H 922.063 -1.96785 -1.61703 0
M  V30 10009 H 922.846 -3.36192 -0.694978 0
M  V30 10010 N 925.291 0.760815 -1.38019 0
M  V30 10011 C 926.568 1.5098 -1.24356 0
M  V30 10012 C 926.948 2.10507 0.158169 0
M  V30 10013 O 926.296 1.96455 1.16695 0
M  V30 10014 C 926.506 2.58195 -2.34811 0
M  V30 10015 C 927.854 3.25297 -2.72886 0
M  V30 10016 O 928.878 2.68496 -2.34069 0
M  V30 10017 O 927.737 4.28018 -3.39799 0
M  V30 10018 H 924.831 0.66921 -0.485888 0
M  V30 10019 H 927.377 0.796844 -1.49828 0
M  V30 10020 H 926.149 2.12406 -3.28633 0
M  V30 10021 H 925.772 3.37079 -2.10864 0
M  V30 10022 N 926.769 1.22769 0.988202 0
M  V30 10023 C 927.997 1.08155 1.76381 0
M  V30 10024 C 928.412 -0.367573 1.85187 0
M  V30 10025 O 927.769 -1.25455 1.32541 0
M  V30 10026 C 927.82 1.69193 3.19462 0
M  V30 10027 O 927.541 3.08437 3.11125 0
M  V30 10028 C 929.042 1.59915 4.13451 0
M  V30 10029 H 926.262 0.378908 0.553778 0
M  V30 10030 H 928.806 1.6246 1.24206 0
M  V30 10031 H 926.961 1.18939 3.6869 0
M  V30 10032 H 927.375 3.37916 4.0114 0
M  V30 10033 H 928.849 2.07339 5.1158 0
M  V30 10034 H 929.326 0.556546 4.3566 0
M  V30 10035 H 929.932 2.09497 3.70123 0
M  V30 10036 N 928.247 -1.18576 1.03814 0
M  V30 10037 C 929.658 -1.70159 0.768299 0
M  V30 10038 C 930.009 -1.8286 -0.711106 0
M  V30 10039 O 929.134 -1.5063 -1.55369 0
M  V30 10040 C 929.729 -3.09062 1.38804 0
M  V30 10041 C 928.288 -3.57866 1.16656 0
M  V30 10042 C 927.435 -2.34484 1.48029 0
M  V30 10043 H 930.386 -1.03287 1.20488 0
M  V30 10044 H 930.407 -3.72211 0.7899 0
M  V30 10045 H 929.919 -2.99785 2.46476 0
M  V30 10046 H 928.02 -3.72442 0.108471 0
M  V30 10047 H 928.133 -4.41445 1.8618 0
M  V30 10048 H 926.497 -2.38273 0.899902 0
M  V30 10049 H 927.28 -2.27829 2.56805 0
M  V30 10050 N 929.725 -0.817259 -1.34754 0
M  V30 10051 C 930.657 -0.192695 -2.28389 0
M  V30 10052 C 931.67 0.614167 -1.50771 0
M  V30 10053 O 932.859 0.444776 -1.7287 0
M  V30 10054 C 929.959 0.748929 -3.30521 0
M  V30 10055 C 929.132 -0.0138762 -4.37398 0
M  V30 10056 C 928.191 0.847825 -5.19325 0
M  V30 10057 O 927.217 0.29487 -5.68436 0
M  V30 10058 N 928.419 2.16843 -5.38479 0
M  V30 10059 H 931.184 -0.997122 -2.82626 0
M  V30 10060 H 928.745 -0.673696 -1.47217 0
M  V30 10061 H 930.737 1.32987 -3.82226 0
M  V30 10062 H 929.307 1.45412 -2.7672 0
M  V30 10063 H 928.527 -0.776093 -3.86485 0
M  V30 10064 H 929.815 -0.539191 -5.05935 0
M  V30 10065 H 929.213 2.64148 -5.00242 0
M  V30 10066 H 927.77 2.69835 -5.93323 0
M  V30 10067 N 931.203 1.46865 -0.571711 0
M  V30 10068 C 932.428 2.07323 -0.0564655 0
M  V30 10069 C 932.853 1.41938 1.23431 0
M  V30 10070 O 932.211 0.499334 1.74288 0
M  V30 10071 C 932.259 3.6044 0.107339 0
M  V30 10072 O 931.363 3.95558 1.1665 0
M  V30 10073 H 930.704 0.661475 -0.0578465 0
M  V30 10074 H 933.234 1.88669 -0.791524 0
M  V30 10075 H 933.244 4.06767 0.316987 0
M  V30 10076 H 931.919 4.07425 -0.835348 0
M  V30 10077 H 930.496 3.60957 0.936189 0
M  V30 10078 N 932.681 0.308908 1.54543 0
M  V30 10079 C 933.929 -0.297447 1.99899 0
M  V30 10080 C 934.25 -1.53799 1.19878 0
M  V30 10081 O 933.52 -1.93639 0.29678 0
M  V30 10082 H 932.1 -0.112897 0.738419 0
M  V30 10083 H 934.762 0.422067 1.90275 0
M  V30 10084 H 933.858 -0.564016 3.06961 0
M  V30 10085 N 934.159 -1.57557 0.0367827 0
M  V30 10086 C 935.089 -2.13712 -0.940719 0
M  V30 10087 C 936.07 -1.05515 -1.33419 0
M  V30 10088 O 937.255 -1.33385 -1.41146 0
M  V30 10089 C 934.385 -2.67043 -2.22048 0
M  V30 10090 C 933.339 -3.80096 -1.96752 0
M  V30 10091 C 932.665 -4.19886 -3.31059 0
M  V30 10092 C 933.965 -5.05848 -1.30058 0
M  V30 10093 H 935.659 -2.9564 -0.473033 0
M  V30 10094 H 933.205 -1.42214 -0.226089 0
M  V30 10095 H 935.158 -3.04964 -2.90818 0
M  V30 10096 H 933.882 -1.82287 -2.70996 0
M  V30 10097 H 932.541 -3.42625 -1.30398 0
M  V30 10098 H 932.189 -3.32101 -3.77781 0
M  V30 10099 H 931.889 -4.96073 -3.14937 0
M  V30 10100 H 933.413 -4.60395 -4.01084 0
M  V30 10101 H 934.827 -5.41306 -1.8884 0
M  V30 10102 H 933.224 -5.87084 -1.24309 0
M  V30 10103 H 934.294 -4.84122 -0.274591 0
M  V30 10104 N 935.637 0.236453 -1.55816 0
M  V30 10105 C 936.547 1.31418 -1.94336 0
M  V30 10106 C 937.563 1.52095 -0.845164 0
M  V30 10107 O 938.739 1.65515 -1.14746 0
M  V30 10108 C 935.804 2.6468 -2.23932 0
M  V30 10109 C 934.865 2.52435 -3.47239 0
M  V30 10110 C 934.098 3.79342 -3.75414 0
M  V30 10111 O 934.321 4.81694 -3.05495 0
M  V30 10112 O 933.255 3.77347 -4.68927 0
M  V30 10113 H 937.081 1.01739 -2.86152 0
M  V30 10114 H 934.666 0.438084 -1.42833 0
M  V30 10115 H 936.548 3.4341 -2.44228 0
M  V30 10116 H 935.223 2.94071 -1.35292 0
M  V30 10117 H 934.13 1.71955 -3.32238 0
M  V30 10118 H 935.463 2.27987 -4.36214 0
M  V30 10119 N 937.115 1.49373 0.502552 0
M  V30 10120 C 938.345 1.62252 1.27898 0
M  V30 10121 C 938.753 0.292555 1.86924 0
M  V30 10122 O 938.096 -0.731823 1.68493 0
M  V30 10123 C 938.158 2.63153 2.4493 0
M  V30 10124 C 937.822 4.07541 2.06784 0
M  V30 10125 C 938.819 4.94392 1.60849 0
M  V30 10126 C 936.504 4.53263 2.16466 0
M  V30 10127 C 938.498 6.25003 1.25098 0
M  V30 10128 C 936.185 5.83888 1.80327 0
M  V30 10129 C 937.183 6.69582 1.34718 0
M  V30 10130 O 936.871 7.97773 0.990661 0
M  V30 10131 H 936.603 0.54918 0.394179 0
M  V30 10132 H 939.157 1.96132 0.610031 0
M  V30 10133 H 937.387 2.2445 3.14895 0
M  V30 10134 H 939.076 2.65578 3.06957 0
M  V30 10135 H 939.842 4.60296 1.52816 0
M  V30 10136 H 935.721 3.86731 2.50919 0
M  V30 10137 H 939.265 6.91844 0.894269 0
M  V30 10138 H 935.162 6.17513 1.8801 0
M  V30 10139 H 935.93 8.1077 1.12227 0
M  V30 10140 N 938.594 -0.753485 1.38421 0
M  V30 10141 C 939.819 -1.54783 1.38047 0
M  V30 10142 C 940.244 -1.8808 -0.0276371 0
M  V30 10143 O 939.602 -1.5058 -1.00973 0
M  V30 10144 C 939.65 -2.82353 2.24297 0
M  V30 10145 O 938.754 -3.77509 1.66014 0
M  V30 10146 H 938.095 -0.468151 0.470883 0
M  V30 10147 H 940.625 -0.931144 1.82184 0
M  V30 10148 H 940.635 -3.31277 2.38159 0
M  V30 10149 H 939.31 -2.57449 3.26639 0
M  V30 10150 H 937.887 -3.36212 1.61294 0
M  V30 10151 N 940.072 -1.23292 -0.981677 0
M  V30 10152 C 941.32 -1.06214 -1.71939 0
M  V30 10153 C 941.641 0.401989 -1.90812 0
M  V30 10154 O 940.911 1.28825 -1.47584 0
M  V30 10155 H 939.491 -0.390042 -0.637084 0
M  V30 10156 H 942.153 -1.54988 -1.18173 0
M  V30 10157 H 941.249 -1.54904 -2.70945 0
M  V30 10158 N 941.55 1.18024 -1.04442 0
M  V30 10159 C 942.799 1.8743 -0.745185 0
M  V30 10160 C 943.112 1.81459 0.730206 0
M  V30 10161 O 944.318 2.46263 1.1431 0
M  V30 10162 C 942.774 3.36266 -1.28271 0
M  V30 10163 C 942.382 3.50757 -2.787 0
M  V30 10164 C 944.126 4.11048 -1.06018 0
M  V30 10165 C 942.033 4.93573 -3.25791 0
M  V30 10166 H 940.963 0.702038 -0.27506 0
M  V30 10167 H 943.614 1.33333 -1.26073 0
M  V30 10168 H 941.996 3.89853 -0.695002 0
M  V30 10169 H 943.17 3.07423 -3.43261 0
M  V30 10170 H 941.485 2.89385 -2.99408 0
M  V30 10171 H 944.082 5.16395 -1.38711 0
M  V30 10172 H 944.425 4.163 0.00241716 0
M  V30 10173 H 944.958 3.63644 -1.61269 0
M  V30 10174 H 941.697 4.93491 -4.31447 0
M  V30 10175 H 941.217 5.37607 -2.65968 0
M  V30 10176 H 942.896 5.62307 -3.20031 0
M  V30 10177 N 943.028 0.824394 1.34319 0
M  V30 10178 C 943.96 0.204805 2.28283 0
M  V30 10179 C 944.973 -0.606162 1.51094 0
M  V30 10180 O 946.162 -0.435602 1.73103 0
M  V30 10181 C 943.262 -0.73139 3.30914 0
M  V30 10182 C 942.435 0.0370723 4.37384 0
M  V30 10183 C 941.494 -0.820272 5.19767 0
M  V30 10184 O 940.52 -0.264721 5.68584 0
M  V30 10185 N 941.722 -2.13984 5.39621 0
M  V30 10186 H 944.487 1.0121 2.82093 0
M  V30 10187 H 942.048 0.681494 1.46858 0
M  V30 10188 H 944.04 -1.30958 3.82926 0
M  V30 10189 H 942.61 -1.43943 2.77487 0
M  V30 10190 H 941.83 0.796578 3.86068 0
M  V30 10191 H 943.118 0.566014 5.05642 0
M  V30 10192 H 942.516 -2.61492 5.01636 0
M  V30 10193 H 941.073 -2.66685 5.94746 0
M  V30 10194 N 944.506 -1.46559 0.579492 0
M  V30 10195 C 945.416 -2.34066 -0.15816 0
M  V30 10196 C 946.432 -1.49556 -0.88932 0
M  V30 10197 O 947.608 -1.82434 -0.853226 0
M  V30 10198 C 944.673 -3.26683 -1.161 0
M  V30 10199 C 943.734 -4.27092 -0.434855 0
M  V30 10200 C 942.967 -5.15283 -1.38992 0
M  V30 10201 O 943.19 -5.06345 -2.62623 0
M  V30 10202 O 942.124 -5.95099 -0.902253 0
M  V30 10203 H 945.95 -2.98488 0.560234 0
M  V30 10204 H 943.535 -1.45482 0.339918 0
M  V30 10205 H 945.417 -3.8383 -1.73932 0
M  V30 10206 H 944.092 -2.64862 -1.86091 0
M  V30 10207 H 942.999 -3.73641 0.185224 0
M  V30 10208 H 944.332 -4.9169 0.224031 0
M  V30 10209 N 945.984 -0.3171 -1.54377 0
M  V30 10210 C 946.914 0.544623 -2.2706 0
M  V30 10211 C 947.895 1.12469 -1.27611 0
M  V30 10212 O 949.08 1.15103 -1.56413 0
M  V30 10213 C 946.21 1.70879 -3.02353 0
M  V30 10214 C 945.164 1.25833 -4.09084 0
M  V30 10215 C 944.49 2.50894 -4.72182 0
M  V30 10216 C 945.79 0.377876 -5.20931 0
M  V30 10217 H 947.484 -0.0616372 -2.99337 0
M  V30 10218 H 945.03 -0.0310848 -1.43966 0
M  V30 10219 H 946.983 2.31787 -3.51927 0
M  V30 10220 H 945.707 2.34155 -2.27682 0
M  V30 10221 H 944.366 0.672228 -3.60384 0
M  V30 10222 H 944.014 3.12518 -3.94134 0
M  V30 10223 H 943.714 2.21447 -5.44275 0
M  V30 10224 H 945.238 3.12575 -5.24528 0
M  V30 10225 H 946.652 0.893056 -5.66302 0
M  V30 10226 H 945.049 0.176474 -5.9984 0
M  V30 10227 H 946.119 -0.592943 -4.81261 0
M  V30 10228 N 947.462 1.57535 -0.0451378 0
M  V30 10229 C 948.372 2.14653 0.946646 0
M  V30 10230 C 949.388 1.10279 1.3459 0
M  V30 10231 O 950.564 1.42417 1.42405 0
M  V30 10232 C 947.629 2.67533 2.20515 0
M  V30 10233 C 946.69 3.86682 1.86481 0
M  V30 10234 C 945.923 4.37031 3.06332 0
M  V30 10235 O 946.146 3.86481 4.1951 0
M  V30 10236 O 945.08 5.28691 2.87697 0
M  V30 10237 H 948.906 2.99706 0.49091 0
M  V30 10238 H 946.491 1.48355 0.17641 0
M  V30 10239 H 948.373 3.01542 2.94365 0
M  V30 10240 H 947.048 1.85554 2.65238 0
M  V30 10241 H 945.955 3.57573 1.09966 0
M  V30 10242 H 947.288 4.69873 1.46562 0
M  V30 10243 N 948.94 -0.228186 1.55939 0
M  V30 10244 C 950.217 -0.977492 1.69424 0
M  V30 10245 C 950.597 -2.02674 0.590479 0
M  V30 10246 O 949.945 -2.2491 -0.403467 0
M  V30 10247 C 950.155 -1.59394 3.10475 0
M  V30 10248 C 951.503 -2.08871 3.69673 0
M  V30 10249 O 952.527 -1.693 3.13394 0
M  V30 10250 O 951.386 -2.81584 4.68372 0
M  V30 10251 H 948.48 -0.456185 0.6898 0
M  V30 10252 H 951.026 -0.220492 1.68261 0
M  V30 10253 H 949.798 -0.835971 3.82266 0
M  V30 10254 H 949.421 -2.41665 3.15727 0
M  V30 10255 N 950.418 -1.49637 -0.494624 0
M  V30 10256 C 951.834 -1.36541 -0.826361 0
M  V30 10257 C 952.034 -0.403386 -1.97421 0
M  V30 10258 O 951.09 0.162614 -2.51976 0
M  V30 10259 C 952.403 -2.77401 -1.16057 0
M  V30 10260 C 953.951 -2.86148 -1.26841 0
M  V30 10261 C 954.426 -4.27789 -1.63587 0
M  V30 10262 N 955.917 -4.3063 -1.70624 0
M  V30 10263 C 956.652 -5.37198 -2.00514 0
M  V30 10264 N 956.148 -6.54004 -2.28584 0
M  V30 10265 N 957.941 -5.2462 -2.01818 0
M  V30 10266 H 950.092 -2.10776 0.26219 0
M  V30 10267 H 952.355 -0.946419 0.0547235 0
M  V30 10268 H 952.061 -3.49526 -0.390434 0
M  V30 10269 H 951.935 -3.1317 -2.10249 0
M  V30 10270 H 954.322 -2.14256 -2.02925 0
M  V30 10271 H 954.403 -2.53953 -0.30684 0
M  V30 10272 H 954.047 -5.00209 -0.880507 0
M  V30 10273 H 953.977 -4.57453 -2.60854 0
M  V30 10274 H 956.468 -3.46393 -1.51065 0
M  V30 10275 H 956.781 -7.31041 -2.50598 0
M  V30 10276 H 955.126 -6.57219 -2.26027 0
M  V30 10277 H 958.317 -4.32371 -1.79369 0
M  V30 10278 H 958.49 -6.07765 -2.24778 0
M  V30 10279 N 951.896 0.746133 -1.38819 0
M  V30 10280 C 953.312 1.0502 -1.20179 0
M  V30 10281 C 953.512 2.01423 -0.0556271 0
M  V30 10282 O 952.568 2.45359 0.59625 0
M  V30 10283 C 953.881 1.62315 -2.53129 0
M  V30 10284 C 955.429 1.74449 -2.59878 0
M  V30 10285 C 955.904 2.35155 -3.93022 0
M  V30 10286 N 957.395 2.42577 -3.94602 0
M  V30 10287 C 958.13 2.9046 -4.94389 0
M  V30 10288 N 957.626 3.38322 -6.04574 0
M  V30 10289 N 959.419 2.89568 -4.81775 0
M  V30 10290 H 951.57 0.106551 -2.12133 0
M  V30 10291 H 953.833 0.109897 -0.941609 0
M  V30 10292 H 953.539 0.98946 -3.37495 0
M  V30 10293 H 953.413 2.61276 -2.72057 0
M  V30 10294 H 955.8 2.36943 -1.75903 0
M  V30 10295 H 955.881 0.741721 -2.4481 0
M  V30 10296 H 955.525 1.73292 -4.77422 0
M  V30 10297 H 955.455 3.36088 -4.05404 0
M  V30 10298 H 957.946 2.08735 -3.15021 0
M  V30 10299 H 958.259 3.73336 -6.76639 0
M  V30 10300 H 956.604 3.3636 -6.08184 0
M  V30 10301 H 959.795 2.51492 -3.94803 0
M  V30 10302 H 959.968 3.26571 -5.59692 0
M  V30 10303 N 953.375 1.23811 0.975125 0
M  V30 10304 C 954.6 1.10109 1.75757 0
M  V30 10305 C 955.025 -0.342922 1.84948 0
M  V30 10306 O 954.383 -1.24814 1.31496 0
M  V30 10307 C 954.431 1.73724 3.15994 0
M  V30 10308 O 953.535 1.00297 4.00018 0
M  V30 10309 H 952.876 0.385627 0.540544 0
M  V30 10310 H 955.406 1.63971 1.22372 0
M  V30 10311 H 955.416 1.79178 3.6655 0
M  V30 10312 H 954.091 2.78794 3.0862 0
M  V30 10313 H 952.668 1.02575 3.58515 0
M  V30 10314 N 954.853 -1.17469 1.05066 0
M  V30 10315 C 955.785 -2.20974 0.608526 0
M  V30 10316 C 956.798 -1.59481 -0.327066 0
M  V30 10317 O 957.987 -1.78096 -0.12 0
M  V30 10318 C 955.087 -3.38652 -0.12969 0
M  V30 10319 C 954.26 -4.29716 0.816285 0
M  V30 10320 C 953.319 -5.26064 0.119556 0
M  V30 10321 O 952.345 -5.64194 0.753241 0
M  V30 10322 N 953.547 -5.69126 -1.14347 0
M  V30 10323 H 956.312 -2.59529 1.49882 0
M  V30 10324 H 953.873 -1.32355 0.932406 0
M  V30 10325 H 955.865 -4.00139 -0.605886 0
M  V30 10326 H 954.435 -2.98705 -0.921638 0
M  V30 10327 H 953.655 -3.6568 1.47213 0
M  V30 10328 H 954.943 -4.87449 1.45845 0
M  V30 10329 H 954.341 -5.4022 -1.67866 0
M  V30 10330 H 952.898 -6.32764 -1.56376 0
M  V30 10331 N 956.331 -0.831506 -1.3388 0
M  V30 10332 C 957.263 -0.216908 -2.28171 0
M  V30 10333 C 958.276 0.598141 -1.51414 0
M  V30 10334 O 959.465 0.426416 -1.73332 0
M  V30 10335 C 956.565 0.713831 -3.31297 0
M  V30 10336 C 955.738 -0.0602673 -4.37358 0
M  V30 10337 C 954.797 0.792696 -5.20195 0
M  V30 10338 O 953.823 0.234564 -5.68716 0
M  V30 10339 N 955.025 2.11119 -5.40748 0
M  V30 10340 H 957.79 -1.02704 -2.81553 0
M  V30 10341 H 955.351 -0.689272 -1.46495 0
M  V30 10342 H 957.343 1.28925 -3.83615 0
M  V30 10343 H 955.913 1.42469 -2.78247 0
M  V30 10344 H 955.133 -0.817041 -3.8564 0
M  V30 10345 H 956.421 -0.592822 -5.05335 0
M  V30 10346 H 955.819 2.58828 -5.03016 0
M  V30 10347 H 954.376 2.63527 -5.96151 0
M  V30 10348 N 957.809 1.4625 -0.587256 0
M  V30 10349 C 959.225 1.57641 -0.249284 0
M  V30 10350 C 959.425 1.58169 1.24839 0
M  V30 10351 O 958.481 1.50109 2.03036 0
M  V30 10352 C 959.794 2.86837 -0.902509 0
M  V30 10353 C 961.342 3.00476 -0.876524 0
M  V30 10354 C 961.817 4.32414 -1.50938 0
M  V30 10355 N 963.308 4.39124 -1.47392 0
M  V30 10356 C 964.043 5.39838 -1.93293 0
M  V30 10357 N 963.539 6.47202 -2.47188 0
M  V30 10358 N 965.332 5.31068 -1.84183 0
M  V30 10359 H 957.483 1.44151 -1.55994 0
M  V30 10360 H 959.746 0.687905 -0.652297 0
M  V30 10361 H 959.452 2.92274 -1.95624 0
M  V30 10362 H 959.326 3.74927 -0.413466 0
M  V30 10363 H 961.713 2.94618 0.168601 0
M  V30 10364 H 961.794 2.1385 -1.40363 0
M  V30 10365 H 961.438 4.3903 -2.55372 0
M  V30 10366 H 961.368 5.17823 -0.957455 0
M  V30 10367 H 963.859 3.62138 -1.08002 0
M  V30 10368 H 964.172 7.20269 -2.80058 0
M  V30 10369 H 962.517 6.48009 -2.51216 0
M  V30 10370 H 965.708 4.46095 -1.41833 0
M  V30 10371 H 965.881 6.09414 -2.2027 0
M  V30 10372 N 959.287 0.325282 1.54207 0
M  V30 10373 C 960.534 -0.276775 2.006 0
M  V30 10374 C 960.862 -1.52007 1.21343 0
M  V30 10375 O 960.117 -1.93627 0.284104 0
M  V30 10376 C 960.416 -0.654292 3.5136 0
M  V30 10377 C 960.082 0.490023 4.48229 0
M  V30 10378 C 958.744 0.804104 4.74434 0
M  V30 10379 C 961.096 1.2586 5.05775 0
M  V30 10380 C 958.424 1.88945 5.55443 0
M  V30 10381 C 960.776 2.33405 5.87967 0
M  V30 10382 C 959.44 2.65393 6.12473 0
M  V30 10383 H 958.71 -0.101279 0.734046 0
M  V30 10384 H 961.357 0.449416 1.86152 0
M  V30 10385 H 959.662 -1.46093 3.63544 0
M  V30 10386 H 961.359 -1.13171 3.84699 0
M  V30 10387 H 957.949 0.235147 4.27954 0
M  V30 10388 H 962.133 1.02921 4.85511 0
M  V30 10389 H 957.389 2.14174 5.7266 0
M  V30 10390 H 961.563 2.93402 6.31576 0
M  V30 10391 H 959.19 3.49622 6.75032 0
M  V30 10392 N 960.765 -1.57509 0.0534917 0
M  V30 10393 C 961.697 -2.08616 -0.949322 0
M  V30 10394 C 962.71 -1.01446 -1.27328 0
M  V30 10395 O 963.899 -1.29007 -1.23367 0
M  V30 10396 C 960.999 -2.51622 -2.27024 0
M  V30 10397 C 960.172 -3.82154 -2.12785 0
M  V30 10398 C 959.231 -4.11448 -3.2802 0
M  V30 10399 O 958.257 -4.81333 -3.03822 0
M  V30 10400 N 959.459 -3.63543 -4.52567 0
M  V30 10401 H 962.224 -2.95275 -0.5131 0
M  V30 10402 H 959.785 -1.61355 -0.132693 0
M  V30 10403 H 961.777 -2.68293 -3.02986 0
M  V30 10404 H 960.347 -1.70198 -2.62205 0
M  V30 10405 H 959.567 -3.75041 -1.21399 0
M  V30 10406 H 960.855 -4.67629 -2.00501 0
M  V30 10407 H 960.253 -3.07051 -4.75117 0
M  V30 10408 H 958.81 -3.85448 -5.25617 0
M  V30 10409 N 962.243 0.219913 -1.56058 0
M  V30 10410 C 963.49 0.944064 -1.79147 0
M  V30 10411 C 963.818 1.84268 -0.622531 0
M  V30 10412 O 963.073 1.91713 0.393013 0
M  V30 10413 C 963.372 1.81293 -3.08006 0
M  V30 10414 C 963.038 1.0674 -4.38084 0
M  V30 10415 C 961.7 0.86147 -4.73426 0
M  V30 10416 C 964.052 0.541049 -5.18384 0
M  V30 10417 C 961.38 0.117307 -5.86583 0
M  V30 10418 C 963.732 -0.189779 -6.32315 0
M  V30 10419 C 962.396 -0.406951 -6.66258 0
M  V30 10420 H 961.666 0.345458 -0.655546 0
M  V30 10421 H 964.313 0.212121 -1.90322 0
M  V30 10422 H 962.618 2.61278 -2.9196 0
M  V30 10423 H 964.315 2.3754 -3.23072 0
M  V30 10424 H 960.905 1.23789 -4.10334 0
M  V30 10425 H 965.089 0.687617 -4.91514 0
M  V30 10426 H 960.345 -0.0611651 -6.11369 0
M  V30 10427 H 964.519 -0.605134 -6.93766 0
M  V30 10428 H 962.146 -0.985511 -7.53785 0
M  V30 10429 N 963.721 1.49897 0.486681 0
M  V30 10430 C 964.669 1.68125 1.60738 0
M  V30 10431 C 965.663 0.547097 1.60322 0
M  V30 10432 O 966.869 0.727153 1.64659 0
M  V30 10433 H 963.244 0.530391 0.533094 0
M  V30 10434 H 965.215 2.62165 1.42521 0
M  V30 10435 C 963.964 1.77827 2.98786 0
M  V30 10436 H 963.287 2.6448 2.99818 0
M  V30 10437 H 964.727 1.94611 3.76699 0
M  V30 10438 C 963.186 0.526287 3.32764 0
M  V30 10439 O 963.716 -0.341607 4.00245 0
M  V30 10440 N 961.922 0.384947 2.88039 0
M  V30 10441 H 961.469 1.09222 2.33299 0
M  V30 10442 H 961.427 -0.451618 3.11139 0
M  V30 10443 N 965.199 -0.738761 1.39212 0
M  V30 10444 C 966.129 -1.86602 1.40364 0
M  V30 10445 C 967.11 -1.67984 0.267495 0
M  V30 10446 O 968.295 -1.88358 0.472765 0
M  V30 10447 C 965.425 -3.24308 1.24265 0
M  V30 10448 C 964.379 -3.57557 2.35239 0
M  V30 10449 C 963.705 -4.94159 2.04233 0
M  V30 10450 C 965.005 -3.60914 3.77543 0
M  V30 10451 H 966.699 -1.85896 2.34698 0
M  V30 10452 H 964.245 -0.892959 1.1297 0
M  V30 10453 H 966.198 -4.02838 1.23692 0
M  V30 10454 H 964.922 -3.25531 0.263974 0
M  V30 10455 H 963.581 -2.81354 2.35022 0
M  V30 10456 H 963.229 -4.91959 1.04813 0
M  V30 10457 H 962.929 -5.17373 2.78567 0
M  V30 10458 H 964.453 -5.7505 2.05303 0
M  V30 10459 H 965.867 -4.29528 3.79709 0
M  V30 10460 H 964.264 -3.95644 4.51205 0
M  V30 10461 H 965.334 -2.60803 4.08791 0
M  V30 10462 N 966.677 -1.24326 -0.968545 0
M  V30 10463 C 967.609 -0.992749 -2.06584 0
M  V30 10464 C 968.622 0.0374902 -1.62757 0
M  V30 10465 O 969.811 -0.199448 -1.77382 0
M  V30 10466 C 966.911 -0.476165 -3.35538 0
M  V30 10467 C 966.084 -1.56934 -4.08277 0
M  V30 10468 C 965.143 -1.05555 -5.15504 0
M  V30 10469 O 964.169 -1.74707 -5.41725 0
M  V30 10470 N 965.371 0.110465 -5.80395 0
M  V30 10471 H 968.136 -1.93752 -2.28649 0
M  V30 10472 H 965.697 -1.15344 -1.13611 0
M  V30 10473 H 967.689 -0.117223 -4.0453 0
M  V30 10474 H 966.259 0.374315 -3.10351 0
M  V30 10475 H 965.479 -2.10051 -3.33575 0
M  V30 10476 H 966.767 -2.30415 -4.53637 0
M  V30 10477 H 966.165 0.688614 -5.61493 0
M  V30 10478 H 964.722 0.41056 -6.50506 0
M  V30 10479 N 968.156 1.1691 -1.05688 0
M  V30 10480 C 969.433 1.83266 -0.683601 0
M  V30 10481 C 969.813 1.93858 0.835602 0
M  V30 10482 O 969.161 1.47696 1.7435 0
M  V30 10483 C 969.371 3.20625 -1.37842 0
M  V30 10484 C 970.719 3.96473 -1.51967 0
M  V30 10485 O 971.743 3.30122 -1.33783 0
M  V30 10486 O 970.602 5.15393 -1.81749 0
M  V30 10487 H 967.696 0.791028 -0.241254 0
M  V30 10488 H 970.242 1.24165 -1.15677 0
M  V30 10489 H 969.014 3.07914 -2.41463 0
M  V30 10490 H 968.637 3.87398 -0.894921 0
M  V30 10491 N 969.634 0.838594 1.33437 0
M  V30 10492 C 970.881 0.434169 1.97791 0
M  V30 10493 C 971.209 -1.00652 1.66431 0
M  V30 10494 O 970.464 -1.71848 0.936309 0
M  V30 10495 C 970.763 0.601425 3.52303 0
M  V30 10496 C 970.429 2.01017 4.03612 0
M  V30 10497 C 969.091 2.39551 4.17336 0
M  V30 10498 C 971.443 2.93035 4.31022 0
M  V30 10499 C 968.771 3.69406 4.55802 0
M  V30 10500 C 971.123 4.22372 4.7094 0
M  V30 10501 C 969.787 4.60862 4.82869 0
M  V30 10502 H 969.057 0.158874 0.723768 0
M  V30 10503 H 971.704 1.06556 1.59116 0
M  V30 10504 H 970.009 -0.113284 3.91636 0
M  V30 10505 H 971.706 0.268798 4.00098 0
M  V30 10506 H 968.296 1.7009 3.93405 0
M  V30 10507 H 972.48 2.64503 4.19943 0
M  V30 10508 H 967.736 3.99033 4.63231 0
M  V30 10509 H 971.91 4.93749 4.91106 0
M  V30 10510 H 969.537 5.6153 5.12433 0
M  V30 10511 N 971.112 -1.45937 0.595003 0
M  V30 10512 C 972.528 -1.57507 0.257641 0
M  V30 10513 C 972.728 -1.58829 -1.23998 0
M  V30 10514 O 971.784 -1.51183 -2.02237 0
M  V30 10515 C 973.097 -2.86354 0.917708 0
M  V30 10516 C 974.645 -3.00007 0.892446 0
M  V30 10517 C 975.12 -4.31607 1.53229 0
M  V30 10518 N 976.611 -4.38336 1.49719 0
M  V30 10519 C 977.346 -5.38805 1.96154 0
M  V30 10520 N 976.842 -6.45882 2.50617 0
M  V30 10521 N 978.635 -5.30084 1.86997 0
M  V30 10522 H 970.786 -1.43322 1.56756 0
M  V30 10523 H 973.049 -0.684436 0.655936 0
M  V30 10524 H 972.755 -2.91233 1.97171 0
M  V30 10525 H 972.629 -3.74703 0.433344 0
M  V30 10526 H 975.016 -2.94703 -0.152975 0
M  V30 10527 H 975.097 -2.13103 1.41495 0
M  V30 10528 H 974.741 -4.3767 2.57697 0
M  V30 10529 H 974.671 -5.17308 0.984903 0
M  V30 10530 H 977.162 -3.6156 1.09921 0
M  V30 10531 H 977.475 -7.18774 2.83874 0
M  V30 10532 H 975.82 -6.46668 2.54649 0
M  V30 10533 H 979.011 -4.45337 1.44196 0
M  V30 10534 H 979.184 -6.08237 2.23499 0
M  V30 10535 N 972.59 -0.333456 -1.54032 0
M  V30 10536 C 973.83 0.266604 -2.02654 0
M  V30 10537 C 974.194 1.48568 -1.21621 0
M  V30 10538 O 975.395 2.15925 -1.60093 0
M  V30 10539 C 973.666 0.582825 -3.52616 0
M  V30 10540 S 975.225 1.16113 -4.23159 0
M  V30 10541 H 972.043 0.0800344 -0.706481 0
M  V30 10542 H 974.645 -0.468876 -1.89794 0
M  V30 10543 H 973.349 -0.312401 -4.09209 0
M  V30 10544 H 972.88 1.34824 -3.69576 0
M  V30 10545 H 974.895 2.44743 -4.31642 0
M  V30 10546 N 974.068 1.57479 -0.061844 0
M  V30 10547 C 975.308 1.94982 0.613309 0
M  V30 10548 C 975.672 0.940729 1.67375 0
M  V30 10549 O 976.873 1.20307 2.40374 0
M  V30 10550 C 975.144 3.37208 1.18429 0
M  V30 10551 S 976.703 3.96678 1.87596 0
M  V30 10552 H 973.521 0.681969 0.201096 0
M  V30 10553 H 976.123 1.95045 -0.133328 0
M  V30 10554 H 974.827 4.08441 0.400522 0
M  V30 10555 H 974.358 3.40665 1.96751 0
M  V30 10556 H 976.373 3.82772 3.15754 0
M  V30 10557 N 975.546 -0.211634 1.56173 0
M  V30 10558 C 976.509 -1.24588 1.92381 0
M  V30 10559 C 977.509 -1.39297 0.803311 0
M  V30 10560 O 978.699 -1.37392 1.07094 0
M  V30 10561 C 975.831 -2.61807 2.18335 0
M  V30 10562 H 977.024 -0.936814 2.84893 0
M  V30 10563 H 974.577 -0.452471 1.49607 0
M  V30 10564 H 975.312 -2.97795 1.28407 0
M  V30 10565 H 975.097 -2.52506 2.99972 0
M  V30 10566 H 976.587 -3.3642 2.4741 0
M  V30 10567 N 977.024 -1.50153 -0.478725 0
M  V30 10568 C 978.27 -1.60998 -1.23318 0
M  V30 10569 C 978.603 -0.305868 -1.91776 0
M  V30 10570 O 977.878 0.692158 -1.81767 0
M  V30 10571 C 978.161 -2.78495 -2.28282 0
M  V30 10572 C 978.014 -4.18767 -1.64178 0
M  V30 10573 C 979.333 -2.91569 -3.2966 0
M  V30 10574 H 976.452 -0.585983 -0.446982 0
M  V30 10575 H 979.094 -1.82514 -0.528063 0
M  V30 10576 H 977.244 -2.60281 -2.8842 0
M  V30 10577 H 978.916 -4.48552 -1.07696 0
M  V30 10578 H 977.159 -4.23379 -0.94514 0
M  V30 10579 H 977.83 -4.96894 -2.40417 0
M  V30 10580 H 980.306 -3.08219 -2.79536 0
M  V30 10581 H 979.182 -3.75419 -4.0044 0
M  V30 10582 H 979.443 -2.01859 -3.93326 0
M  V30 10583 N 978.502 0.731368 -1.39602 0
M  V30 10584 C 979.432 1.85855 -1.41351 0
M  V30 10585 C 980.413 1.67839 -0.2764 0
M  V30 10586 O 981.598 1.88104 -0.482747 0
M  V30 10587 C 978.728 3.23644 -1.25983 0
M  V30 10588 C 977.682 3.56304 -2.37132 0
M  V30 10589 C 977.008 4.93069 -2.0685 0
M  V30 10590 C 978.308 3.58906 -3.79452 0
M  V30 10591 H 980.002 1.84648 -2.3568 0
M  V30 10592 H 977.548 0.886955 -1.13442 0
M  V30 10593 H 979.501 4.02176 -1.25826 0
M  V30 10594 H 978.225 3.25387 -0.281234 0
M  V30 10595 H 976.884 2.80104 -2.36511 0
M  V30 10596 H 976.532 4.91396 -1.0742 0
M  V30 10597 H 976.232 5.15888 -2.81306 0
M  V30 10598 H 977.756 5.73953 -2.0835 0
M  V30 10599 H 979.17 4.27508 -3.81982 0
M  V30 10600 H 977.567 3.93246 -4.53297 0
M  V30 10601 H 978.637 2.58631 -4.10168 0
M  V30 10602 N 979.98 1.24838 0.961938 0
M  V30 10603 C 981.228 1.08936 1.70227 0
M  V30 10604 C 981.549 -0.371582 1.91427 0
M  V30 10605 O 980.819 -1.26461 1.49614 0
M  V30 10606 H 979.399 0.400128 0.630799 0
M  V30 10607 H 982.061 1.56848 1.15692 0
M  V30 10608 H 981.157 1.59195 2.68446 0
M  V30 10609 N 981.458 -1.16348 1.06306 0
M  V30 10610 C 982.874 -1.38873 0.786543 0
M  V30 10611 C 983.074 -1.91915 -0.614061 0
M  V30 10612 O 982.13 -2.11804 -1.3746 0
M  V30 10613 C 983.443 -2.36936 1.85154 0
M  V30 10614 C 984.991 -2.5062 1.87506 0
M  V30 10615 C 985.466 -3.51965 2.9306 0
M  V30 10616 N 986.957 -3.59492 2.92095 0
M  V30 10617 C 987.692 -4.37699 3.70415 0
M  V30 10618 N 987.188 -5.19327 4.58553 0
M  V30 10619 N 988.981 -4.32683 3.58806 0
M  V30 10620 H 981.132 -0.802542 1.96655 0
M  V30 10621 H 983.395 -0.415304 0.852189 0
M  V30 10622 H 983.101 -2.05056 2.85736 0
M  V30 10623 H 982.975 -3.36585 1.70267 0
M  V30 10624 H 985.362 -2.81804 0.875827 0
M  V30 10625 H 985.443 -1.51006 2.06472 0
M  V30 10626 H 985.087 -3.21518 3.93177 0
M  V30 10627 H 985.017 -4.51309 2.71344 0
M  V30 10628 H 987.508 -3.01222 2.28197 0
M  V30 10629 H 987.821 -5.76216 5.1497 0
M  V30 10630 H 986.166 -5.1867 4.62608 0
M  V30 10631 H 989.357 -3.67971 2.89335 0
M  V30 10632 H 989.53 -4.93386 4.20088 0
M  V30 10633 N 982.937 -0.845659 -1.3299 0
M  V30 10634 C 984.185 -0.443774 -1.97168 0
M  V30 10635 C 984.506 1.00192 -1.67292 0
M  V30 10636 O 983.776 1.69891 -0.975397 0
M  V30 10637 H 982.356 -0.161111 -0.729419 0
M  V30 10638 H 985.018 -1.08011 -1.62233 0
M  V30 10639 H 984.114 -0.581414 -3.06637 0
M  V30 10640 N 984.415 1.45619 -0.602734 0
M  V30 10641 C 985.365 2.27568 0.140264 0
M  V30 10642 C 986.349 1.3704 0.84314 0
M  V30 10643 O 987.541 1.61067 0.733931 0
M  V30 10644 C 984.67 3.23812 1.14019 0
M  V30 10645 C 983.756 4.21828 0.438406 0
M  V30 10646 N 984.147 5.03148 -0.517245 0
M  V30 10647 C 982.445 4.40684 0.686588 0
M  V30 10648 C 983.146 5.74229 -0.929291 0
M  V30 10649 N 982.122 5.42909 -0.274086 0
M  V30 10650 H 985.924 2.87839 -0.5938 0
M  V30 10651 H 983.438 1.56712 -0.426033 0
M  V30 10652 H 985.435 3.8125 1.68684 0
M  V30 10653 H 984.095 2.65102 1.87486 0
M  V30 10654 H 985.106 5.1013 -0.893758 0
M  V30 10655 H 981.783 3.93102 1.4063 0
M  V30 10656 H 983.173 6.49586 -1.7172 0
M  V30 10657 N 985.893 0.34162 1.53853 0
M  V30 10658 C 987.14 -0.255484 2.00882 0
M  V30 10659 C 987.468 -1.50711 1.22949 0
M  V30 10660 O 986.723 -1.93315 0.304625 0
M  V30 10661 C 987.022 -0.616989 3.52034 0
M  V30 10662 C 986.688 0.537536 4.47684 0
M  V30 10663 C 985.35 0.854379 4.73554 0
M  V30 10664 C 987.702 1.31217 5.04412 0
M  V30 10665 C 985.03 1.94826 5.53407 0
M  V30 10666 C 987.382 2.39628 5.85458 0
M  V30 10667 C 986.046 2.71874 6.09623 0
M  V30 10668 H 985.316 -0.0934881 0.735079 0
M  V30 10669 H 987.963 0.469135 1.85665 0
M  V30 10670 H 986.268 -1.42229 3.65073 0
M  V30 10671 H 987.965 -1.09084 3.85878 0
M  V30 10672 H 984.555 0.280524 4.27681 0
M  V30 10673 H 988.739 1.08064 4.84392 0
M  V30 10674 H 983.995 2.20235 5.70356 0
M  V30 10675 H 988.169 3.00084 6.28429 0
M  V30 10676 H 985.796 3.56762 6.71286 0
M  V30 10677 N 987.371 -1.57444 0.0701946 0
M  V30 10678 C 988.619 -1.93047 -0.598106 0
M  V30 10679 C 988.94 -0.950841 -1.70247 0
M  V30 10680 O 988.21 0.00127177 -1.959 0
M  V30 10681 H 986.79 -0.712648 -0.223924 0
M  V30 10682 H 989.452 -1.94481 0.127674 0
M  V30 10683 H 988.548 -2.94807 -1.02445 0
M  V30 10684 N 988.849 0.203349 -1.56283 0
M  V30 10685 C 989.796 1.25205 -1.93888 0
M  V30 10686 C 990.766 1.45654 -0.798376 0
M  V30 10687 O 991.951 1.58924 -1.05583 0
M  V30 10688 C 989.091 2.59355 -2.27659 0
M  V30 10689 C 988.204 2.46553 -3.54733 0
M  V30 10690 C 987.339 3.73351 -3.77865 0
M  V30 10691 C 986.378 3.55347 -4.98392 0
M  V30 10692 N 985.515 4.74137 -5.17821 0
M  V30 10693 H 990.355 0.924356 -2.83301 0
M  V30 10694 H 987.892 0.445082 -1.40205 0
M  V30 10695 H 989.85 3.375 -2.45254 0
M  V30 10696 H 988.48 2.90184 -1.41396 0
M  V30 10697 H 987.532 1.59749 -3.45231 0
M  V30 10698 H 988.844 2.2918 -4.43033 0
M  V30 10699 H 987.998 4.59937 -3.95655 0
M  V30 10700 H 986.737 3.9367 -2.8788 0
M  V30 10701 H 985.742 2.67146 -4.80534 0
M  V30 10702 H 986.967 3.36482 -5.89879 0
M  V30 10703 H 984.913 4.94735 -4.30782 0
M  V30 10704 H 984.83 4.59558 -6.00285 0
M  V30 10705 H 986.098 5.62098 -5.40061 0
M  V30 10706 N 990.327 1.50405 0.470755 0
M  V30 10707 C 991.573 1.6165 1.22462 0
M  V30 10708 C 991.906 0.316034 1.91611 0
M  V30 10709 O 991.181 -0.682509 1.82132 0
M  V30 10710 C 991.464 2.79702 2.26801 0
M  V30 10711 C 991.317 4.19631 1.61955 0
M  V30 10712 C 992.636 2.93313 3.28109 0
M  V30 10713 H 989.755 0.588345 0.443868 0
M  V30 10714 H 992.397 1.82792 0.518376 0
M  V30 10715 H 990.547 2.61807 2.87036 0
M  V30 10716 H 992.219 4.49117 1.05316 0
M  V30 10717 H 990.462 4.23874 0.922674 0
M  V30 10718 H 991.133 4.98162 2.37779 0
M  V30 10719 H 993.609 3.09697 2.77897 0
M  V30 10720 H 992.485 3.77537 3.98443 0
M  V30 10721 H 992.746 2.03942 3.9225 0
M  V30 10722 N 991.805 -0.723954 1.39988 0
M  V30 10723 C 992.735 -1.85103 1.42335 0
M  V30 10724 C 993.716 -1.6769 0.285297 0
M  V30 10725 O 994.901 -1.87846 0.492716 0
M  V30 10726 C 992.031 -3.22972 1.27697 0
M  V30 10727 C 990.985 -3.55041 2.39018 0
M  V30 10728 C 990.311 -4.91965 2.09462 0
M  V30 10729 C 991.611 -3.56889 3.8135 0
M  V30 10730 H 993.305 -1.83396 2.36656 0
M  V30 10731 H 990.851 -0.880926 1.13911 0
M  V30 10732 H 992.804 -4.01503 1.27958 0
M  V30 10733 H 991.528 -3.25233 0.298487 0
M  V30 10734 H 990.187 -2.78845 2.37993 0
M  V30 10735 H 989.835 -4.90819 1.10025 0
M  V30 10736 H 989.535 -5.14389 2.84038 0
M  V30 10737 H 991.059 -5.7284 2.11391 0
M  V30 10738 H 992.473 -4.25476 3.84243 0
M  V30 10739 H 990.87 -3.90836 4.55376 0
M  V30 10740 H 991.94 -2.56452 4.11534 0
M  V30 10741 N 993.283 -1.25346 -0.955304 0
M  V30 10742 C 994.213 -1.08152 -2.06943 0
M  V30 10743 C 995.194 0.00922598 -1.70097 0
M  V30 10744 O 996.379 -0.160181 -1.93538 0
M  V30 10745 C 993.509 -0.698745 -3.40198 0
M  V30 10746 C 992.463 -1.73965 -3.9105 0
M  V30 10747 C 991.789 -1.21158 -5.20792 0
M  V30 10748 C 993.089 -3.13829 -4.17503 0
M  V30 10749 H 994.783 -2.01345 -2.21586 0
M  V30 10750 H 992.329 -0.969459 -1.06478 0
M  V30 10751 H 994.282 -0.565394 -4.1759 0
M  V30 10752 H 993.006 0.268892 -3.25491 0
M  V30 10753 H 991.665 -1.86143 -3.15827 0
M  V30 10754 H 991.313 -0.234193 -5.02455 0
M  V30 10755 H 991.013 -1.90728 -5.55785 0
M  V30 10756 H 992.537 -1.09061 -6.00781 0
M  V30 10757 H 993.951 -3.04809 -4.85556 0
M  V30 10758 H 992.348 -3.80863 -4.63749 0
M  V30 10759 H 993.418 -3.6094 -3.23806 0
M  V30 10760 N 994.761 1.15782 -1.06922 0
M  V30 10761 C 995.724 2.18578 -0.689654 0
M  V30 10762 C 996.724 1.58553 0.267872 0
M  V30 10763 O 997.914 1.7413 0.0494097 0
M  V30 10764 C 995.046 3.40896 -0.0157919 0
M  V30 10765 H 996.239 2.53672 -1.59971 0
M  V30 10766 H 993.792 1.30168 -0.865214 0
M  V30 10767 H 994.527 3.11367 0.906712 0
M  V30 10768 H 994.312 3.85721 -0.704415 0
M  V30 10769 H 995.802 4.16937 0.235266 0
M  V30 10770 N 996.239 0.8527 1.3254 0
M  V30 10771 C 997.149 0.298744 2.3269 0
M  V30 10772 C 998.165 -0.582418 1.63963 0
M  V30 10773 O 999.341 -0.483253 1.95516 0
M  V30 10774 C 996.406 -0.505453 3.42996 0
M  V30 10775 C 995.467 0.401618 4.27417 0
M  V30 10776 C 994.7 -0.364294 5.32455 0
M  V30 10777 O 994.923 -1.59448 5.47661 0
M  V30 10778 O 993.857 0.268892 6.01299 0
M  V30 10779 H 997.683 1.12843 2.81958 0
M  V30 10780 H 995.268 0.615584 1.36128 0
M  V30 10781 H 997.15 -0.961974 4.10273 0
M  V30 10782 H 995.825 -1.31197 2.95921 0
M  V30 10783 H 994.732 0.906274 3.62957 0
M  V30 10784 H 996.065 1.17327 4.78012 0
M  V30 10785 N 997.718 -1.45297 0.610449 0
M  V30 10786 C 998.948 -2.0629 0.113047 0
M  V30 10787 C 999.356 -1.45527 -1.20907 0
M  V30 10788 O 998.699 -0.564837 -1.74801 0
M  V30 10789 C 998.761 -3.59366 -0.0979692 0
M  V30 10790 C 998.425 -4.42481 1.14279 0
M  V30 10791 C 999.422 -4.77277 2.06161 0
M  V30 10792 C 997.107 -4.83187 1.37241 0
M  V30 10793 C 999.101 -5.51639 3.19333 0
M  V30 10794 C 996.788 -5.57303 2.50713 0
M  V30 10795 C 997.786 -5.91445 3.41587 0
M  V30 10796 O 997.474 -6.64056 4.53083 0
M  V30 10797 H 997.206 -0.67264 0.0673159 0
M  V30 10798 H 999.76 -1.87486 0.838937 0
M  V30 10799 H 997.99 -3.76582 -0.878783 0
M  V30 10800 H 999.679 -4.02193 -0.547327 0
M  V30 10801 H 1000.44 -4.46384 1.89647 0
M  V30 10802 H 996.324 -4.56045 0.67407 0
M  V30 10803 H 999.868 -5.78207 3.90286 0
M  V30 10804 H 995.765 -5.8761 2.67179 0
M  V30 10805 H 996.533 -6.82509 4.51801 0
M  V30 10806 N 999.196 -0.349774 -1.5367 0
M  V30 10807 C 1000.14 0.504121 -2.25227 0
M  V30 10808 C 1001.11 1.09048 -1.2529 0
M  V30 10809 O 1002.3 1.12594 -1.54037 0
M  V30 10810 C 999.438 1.64601 -3.03316 0
M  V30 10811 C 998.551 1.08635 -4.18118 0
M  V30 10812 C 997.686 2.19605 -4.83681 0
M  V30 10813 C 996.725 1.61023 -5.90541 0
M  V30 10814 N 995.862 2.6576 -6.49858 0
M  V30 10815 H 1000.7 -0.112621 -2.97787 0
M  V30 10816 H 998.239 -0.0673503 -1.46946 0
M  V30 10817 H 1000.2 2.31836 -3.46854 0
M  V30 10818 H 998.827 2.23364 -2.33041 0
M  V30 10819 H 997.879 0.304748 -3.79177 0
M  V30 10820 H 999.191 0.617911 -4.94958 0
M  V30 10821 H 998.345 2.94693 -5.30322 0
M  V30 10822 H 997.084 2.69795 -4.06278 0
M  V30 10823 H 996.089 0.844428 -5.43277 0
M  V30 10824 H 997.314 1.11677 -6.69855 0
M  V30 10825 H 995.26 3.15193 -5.75317 0
M  V30 10826 H 995.177 2.23557 -7.2219 0
M  V30 10827 H 996.445 3.40598 -7.01151 0
M  V30 10828 N 1000.67 1.57404 -0.0785433 0
M  V30 10829 C 1001.62 2.14316 0.903949 0
M  V30 10830 C 1002.62 1.08176 1.30362 0
M  V30 10831 O 1003.82 1.26546 1.28008 0
M  V30 10832 H 1000.2 0.685367 0.309477 0
M  V30 10833 H 1002.17 2.95719 0.399081 0
M  V30 10834 C 1000.92 2.72504 2.15956 0
M  V30 10835 H 1000.24 3.53853 1.86087 0
M  V30 10836 H 1001.68 3.15914 2.82798 0
M  V30 10837 C 1000.14 1.6759 2.92259 0
M  V30 10838 O 1000.67 1.10492 3.86205 0
M  V30 10839 N 998.875 1.38467 2.5549 0
M  V30 10840 H 998.422 1.85088 1.79166 0
M  V30 10841 H 998.38 0.685053 3.06846 0
M  V30 10842 N 1002.15 -0.195058 1.56388 0
M  V30 10843 C 1003.38 -0.931642 1.84738 0
M  V30 10844 C 1003.79 -1.76849 0.661046 0
M  V30 10845 O 1003.15 -1.78705 -0.370241 0
M  V30 10846 C 1003.2 -1.82777 3.11889 0
M  V30 10847 O 1002.92 -1.02471 4.25948 0
M  V30 10848 C 1004.42 -2.67603 3.53417 0
M  V30 10849 H 1001.64 -0.271821 0.613477 0
M  V30 10850 H 1004.19 -0.202299 2.03497 0
M  V30 10851 H 1002.34 -2.51074 2.95027 0
M  V30 10852 H 1002.76 -1.63539 4.98353 0
M  V30 10853 H 1004.23 -3.26138 4.45352 0
M  V30 10854 H 1004.71 -3.41314 2.76408 0
M  V30 10855 H 1005.31 -2.04678 3.7281 0
M  V30 10856 N 1003.63 -1.50653 -0.462772 0
M  V30 10857 C 1004.58 -1.70661 -1.58043 0
M  V30 10858 C 1005.57 -0.572533 -1.59432 0
M  V30 10859 O 1006.78 -0.753257 -1.63481 0
M  V30 10860 H 1003.15 -0.538805 -0.524588 0
M  V30 10861 H 1005.12 -2.64399 -1.38332 0
M  V30 10862 C 1003.87 -1.82558 -2.95919 0
M  V30 10863 H 1003.2 -2.69216 -2.95572 0
M  V30 10864 H 1004.64 -2.0058 -3.73556 0
M  V30 10865 C 1003.09 -0.57916 -3.31885 0
M  V30 10866 O 1003.62 0.277888 -4.00738 0
M  V30 10867 N 1001.83 -0.430723 -2.8739 0
M  V30 10868 H 1001.38 -1.1292 -2.31531 0
M  V30 10869 H 1001.34 0.402061 -3.11819 0
M  V30 10870 N 1005.11 0.71652 -1.4037 0
M  V30 10871 C 1006.02 1.86074 -1.42876 0
M  V30 10872 C 1007.03 1.71005 -0.321475 0
M  V30 10873 O 1008.21 1.93286 -0.565909 0
M  V30 10874 C 1005.28 3.21862 -1.28863 0
M  V30 10875 C 1004.34 3.49193 -2.49726 0
M  V30 10876 C 1003.57 4.78502 -2.36372 0
M  V30 10877 O 1003.79 5.53529 -1.37703 0
M  V30 10878 O 1002.73 5.06147 -3.25728 0
M  V30 10879 H 1006.55 1.86916 -2.39366 0
M  V30 10880 H 1004.14 0.866818 -1.21683 0
M  V30 10881 H 1006.02 4.02972 -1.23253 0
M  V30 10882 H 1004.69 3.2175 -0.354783 0
M  V30 10883 H 1003.6 2.68095 -2.60913 0
M  V30 10884 H 1004.93 3.54101 -3.41868 0
M  V30 10885 N 1006.59 1.25851 0.948643 0
M  V30 10886 C 1007.52 1.0108 2.04593 0
M  V30 10887 C 1008.5 -0.0619691 1.62482 0
M  V30 10888 O 1009.68 0.0789196 1.88335 0
M  V30 10889 C 1006.81 0.529174 3.34541 0
M  V30 10890 C 1005.85 1.59337 3.95618 0
M  V30 10891 S 1006.69 3.18026 4.30836 0
M  V30 10892 C 1007.84 2.71613 5.63895 0
M  V30 10893 H 1008.08 1.93988 2.2529 0
M  V30 10894 H 1005.61 1.09448 1.08906 0
M  V30 10895 H 1007.57 0.25795 4.09689 0
M  V30 10896 H 1006.23 -0.37951 3.11799 0
M  V30 10897 H 1005.42 1.20722 4.89328 0
M  V30 10898 H 1005.02 1.81559 3.26975 0
M  V30 10899 H 1007.32 2.15612 6.42275 0
M  V30 10900 H 1008.26 3.63986 6.07387 0
M  V30 10901 H 1008.67 2.11417 5.23415 0
M  V30 10902 N 1008.06 -1.15214 1.07534 0
M  V30 10903 C 1009.31 -1.86043 0.799629 0
M  V30 10904 C 1009.64 -1.82435 -0.674356 0
M  V30 10905 O 1008.89 -1.24379 -1.51091 0
M  V30 10906 C 1009.19 -3.34623 1.25547 0
M  V30 10907 C 1008.86 -3.58425 2.73573 0
M  V30 10908 C 1007.52 -3.6463 3.14004 0
M  V30 10909 C 1009.87 -3.67977 3.6911 0
M  V30 10910 C 1007.2 -3.779 4.48786 0
M  V30 10911 C 1009.55 -3.82771 5.03656 0
M  V30 10912 C 1008.22 -3.87222 5.43705 0
M  V30 10913 H 1007.49 -0.680781 0.292605 0
M  V30 10914 H 1010.13 -1.36149 1.34669 0
M  V30 10915 H 1008.44 -3.86737 0.627828 0
M  V30 10916 H 1010.14 -3.87836 1.01901 0
M  V30 10917 H 1006.73 -3.54238 2.41275 0
M  V30 10918 H 1010.91 -3.62482 3.39 0
M  V30 10919 H 1006.17 -3.79604 4.79281 0
M  V30 10920 H 1010.34 -3.89104 5.77556 0
M  V30 10921 H 1007.97 -3.97256 6.48145 0
M  V30 10922 N 1009.54 -0.859717 -1.32086 0
M  V30 10923 C 1010.51 -0.313005 -2.27053 0
M  V30 10924 C 1011.51 0.530191 -1.51808 0
M  V30 10925 O 1012.7 0.340972 -1.7083 0
M  V30 10926 C 1009.83 0.5566 -3.36325 0
M  V30 10927 H 1011.02 -1.15125 -2.76923 0
M  V30 10928 H 1008.57 -0.634463 -1.42843 0
M  V30 10929 H 1009.31 1.41645 -2.91731 0
M  V30 10930 H 1009.09 -0.0470197 -3.92072 0
M  V30 10931 H 1010.58 0.931725 -4.07073 0
M  V30 10932 N 1011.02 1.44971 -0.618145 0
M  V30 10933 C 1012.27 2.01372 -0.115004 0
M  V30 10934 C 1012.58 1.49104 1.26599 0
M  V30 10935 O 1013.79 1.97549 1.86244 0
M  V30 10936 C 1012.24 3.59567 -0.154883 0
M  V30 10937 C 1011.85 4.20832 -1.53639 0
M  V30 10938 C 1013.6 4.23491 0.292468 0
M  V30 10939 C 1011.5 5.7121 -1.53208 0
M  V30 10940 H 1010.43 0.752979 -0.0392267 0
M  V30 10941 H 1013.08 1.66329 -0.775032 0
M  V30 10942 H 1011.47 3.91847 0.572001 0
M  V30 10943 H 1012.64 4.00109 -2.28582 0
M  V30 10944 H 1010.96 3.69143 -1.92672 0
M  V30 10945 H 1013.55 5.33771 0.315032 0
M  V30 10946 H 1013.9 3.9491 1.31725 0
M  V30 10947 H 1014.43 3.95967 -0.381493 0
M  V30 10948 H 1011.17 6.04506 -2.53481 0
M  V30 10949 H 1010.69 5.94094 -0.825387 0
M  V30 10950 H 1012.37 6.34606 -1.26032 0
M  V30 10951 N 1012.5 0.357919 1.53482 0
M  V30 10952 C 1013.45 -0.49217 2.25491 0
M  V30 10953 C 1014.42 -1.08382 1.25867 0
M  V30 10954 O 1015.6 -1.11775 1.54632 0
M  V30 10955 C 1012.74 -1.6299 3.04185 0
M  V30 10956 C 1011.85 -1.06416 4.18688 0
M  V30 10957 C 1010.99 -2.17037 4.84839 0
M  V30 10958 C 1010.03 -1.57889 5.91386 0
M  V30 10959 N 1009.16 -2.6231 6.51259 0
M  V30 10960 H 1014 0.128412 2.97723 0
M  V30 10961 H 1011.54 0.0751423 1.46908 0
M  V30 10962 H 1013.5 -2.29993 3.48079 0
M  V30 10963 H 1012.13 -2.22125 2.34223 0
M  V30 10964 H 1011.18 -0.284635 3.79334 0
M  V30 10965 H 1012.49 -0.591654 4.95279 0
M  V30 10966 H 1011.65 -2.91876 5.31877 0
M  V30 10967 H 1010.39 -2.67636 4.07703 0
M  V30 10968 H 1009.39 -0.815605 5.43717 0
M  V30 10969 H 1010.62 -1.08123 6.70437 0
M  V30 10970 H 1008.56 -3.12137 5.7698 0
M  V30 10971 H 1008.48 -2.19724 7.23365 0
M  V30 10972 H 1009.75 -3.36875 7.02948 0
M  V30 10973 N 1013.98 -1.5736 0.0868897 0
M  V30 10974 C 1014.94 -2.12436 -0.860439 0
M  V30 10975 C 1015.94 -1.05175 -1.21634 0
M  V30 10976 O 1017.13 -1.31098 -1.14713 0
M  V30 10977 C 1014.26 -2.63818 -2.159 0
M  V30 10978 H 1015.45 -2.97453 -0.382346 0
M  V30 10979 H 1013.01 -1.55458 -0.162009 0
M  V30 10980 H 1013.74 -1.82298 -2.68212 0
M  V30 10981 H 1013.53 -3.42234 -1.91359 0
M  V30 10982 H 1015.02 -3.06452 -2.83685 0
M  V30 10983 N 1015.45 0.186762 -1.56489 0
M  V30 10984 C 1016.38 1.23395 -1.98232 0
M  V30 10985 C 1017.37 1.4702 -0.855526 0
M  V30 10986 O 1018.55 1.58616 -1.12048 0
M  V30 10987 C 1015.68 2.57635 -2.32898 0
M  V30 10988 C 1014.63 2.48607 -3.48394 0
M  V30 10989 C 1013.96 3.87196 -3.68759 0
M  V30 10990 C 1015.26 2.00398 -4.82325 0
M  V30 10991 H 1016.95 0.887026 -2.85958 0
M  V30 10992 H 1014.5 0.42525 -1.37578 0
M  V30 10993 H 1016.45 3.31082 -2.60696 0
M  V30 10994 H 1015.18 2.94084 -1.42064 0
M  V30 10995 H 1013.84 1.77615 -3.207 0
M  V30 10996 H 1013.48 4.21012 -2.75241 0
M  V30 10997 H 1013.18 3.82029 -4.46462 0
M  V30 10998 H 1014.71 4.62253 -3.98941 0
M  V30 10999 H 1016.12 2.6361 -5.091 0
M  V30 11000 H 1014.52 2.06214 -5.63556 0
M  V30 11001 H 1015.59 0.957562 -4.75351 0
M  V30 11002 N 1016.93 1.50896 0.454776 0
M  V30 11003 C 1017.88 1.70947 1.55067 0
M  V30 11004 C 1018.85 0.550899 1.56698 0
M  V30 11005 O 1020.03 0.783352 1.73978 0
M  V30 11006 C 1017.17 1.82455 2.92924 0
M  V30 11007 C 1016.29 3.09919 3.00956 0
M  V30 11008 C 1015.42 3.12125 4.29827 0
M  V30 11009 C 1014.46 4.33975 4.31662 0
M  V30 11010 N 1013.6 4.33828 5.5203 0
M  V30 11011 H 1018.44 2.645 1.37273 0
M  V30 11012 H 1015.98 1.31101 0.667148 0
M  V30 11013 H 1017.93 1.87108 3.72889 0
M  V30 11014 H 1016.56 0.92327 3.09315 0
M  V30 11015 H 1015.62 3.14659 2.13761 0
M  V30 11016 H 1016.93 3.99869 2.98172 0
M  V30 11017 H 1016.08 3.15598 5.18154 0
M  V30 11018 H 1014.82 2.20033 4.35243 0
M  V30 11019 H 1013.83 4.30697 3.41731 0
M  V30 11020 H 1015.05 5.27312 4.27924 0
M  V30 11021 H 1013 3.44598 5.58201 0
M  V30 11022 H 1012.91 5.17566 5.51055 0
M  V30 11023 H 1014.18 4.4147 6.42437 0
M  V30 11024 N 1018.41 -0.709066 1.40748 0
M  V30 11025 C 1019.36 -1.82312 1.4153 0
M  V30 11026 C 1020.33 -1.63868 0.271392 0
M  V30 11027 O 1021.51 -1.8491 0.470431 0
M  V30 11028 C 1018.65 -3.2008 1.29006 0
M  V30 11029 C 1017.77 -3.50051 2.53156 0
M  V30 11030 C 1016.9 -4.7736 2.33025 0
M  V30 11031 C 1015.94 -5.00255 3.52719 0
M  V30 11032 N 1015.08 -6.18782 3.31743 0
M  V30 11033 H 1019.92 -1.80978 2.36751 0
M  V30 11034 H 1017.45 -0.883975 1.17577 0
M  V30 11035 H 1019.41 -3.99645 1.19749 0
M  V30 11036 H 1018.04 -3.20626 0.374014 0
M  V30 11037 H 1017.09 -2.64993 2.72916 0
M  V30 11038 H 1018.41 -3.62877 3.42231 0
M  V30 11039 H 1017.56 -5.64954 2.21159 0
M  V30 11040 H 1016.3 -4.66756 1.41386 0
M  V30 11041 H 1015.3 -4.11114 3.65055 0
M  V30 11042 H 1016.53 -5.12728 4.45295 0
M  V30 11043 H 1014.47 -6.09416 2.42791 0
M  V30 11044 H 1014.39 -6.32313 4.14386 0
M  V30 11045 H 1015.66 -7.09146 3.23623 0
M  V30 11046 N 1019.89 -1.26353 -0.941956 0
M  V30 11047 C 1021.14 -1.1163 -1.68473 0
M  V30 11048 C 1021.46 0.34108 -1.91994 0
M  V30 11049 O 1020.73 1.24065 -1.51607 0
M  V30 11050 H 1019.31 -0.410113 -0.624353 0
M  V30 11051 H 1021.97 -1.58669 -1.13182 0
M  V30 11052 H 1021.07 -1.63445 -2.6588 0
M  V30 11053 N 1021.37 1.14642 -1.08144 0
M  V30 11054 C 1022.64 1.81774 -0.72232 0
M  V30 11055 C 1023.02 1.95587 0.794294 0
M  V30 11056 O 1022.37 1.51361 1.71178 0
M  V30 11057 C 1022.58 3.1763 -1.44611 0
M  V30 11058 C 1023.93 3.93161 -1.60343 0
M  V30 11059 O 1024.95 3.2721 -1.40755 0
M  V30 11060 O 1023.81 5.11422 -1.9264 0
M  V30 11061 H 1020.91 0.785733 -0.257978 0
M  V30 11062 H 1023.45 1.21683 -1.18285 0
M  V30 11063 H 1022.23 3.02723 -2.4794 0
M  V30 11064 H 1021.85 3.85412 -0.976892 0
M  V30 11065 N 1022.85 0.866709 1.31628 0
M  V30 11066 C 1024.09 0.472185 1.96095 0
M  V30 11067 C 1024.41 -0.979873 1.69286 0
M  V30 11068 O 1025.61 -1.48039 2.27589 0
M  V30 11069 C 1024.07 0.793468 3.51044 0
M  V30 11070 C 1023.68 2.26206 3.86697 0
M  V30 11071 C 1025.42 0.467255 4.21921 0
M  V30 11072 C 1023.33 2.52593 5.34743 0
M  V30 11073 H 1022.26 0.172846 0.733921 0
M  V30 11074 H 1024.91 1.05916 1.49847 0
M  V30 11075 H 1023.29 0.135783 3.95767 0
M  V30 11076 H 1024.47 2.96254 3.52945 0
M  V30 11077 H 1022.78 2.55399 3.28877 0
M  V30 11078 H 1025.38 0.641669 5.30836 0
M  V30 11079 H 1025.72 -0.592065 4.12068 0
M  V30 11080 H 1026.25 1.08134 3.82821 0
M  V30 11081 H 1022.99 3.57196 5.49628 0
M  V30 11082 H 1022.51 1.87136 5.6986 0
M  V30 11083 H 1024.19 2.37156 6.01968 0
M  V30 11084 N 1024.32 -1.44642 0.625825 0
M  V30 11085 C 1025.57 -2.02393 0.128391 0
M  V30 11086 C 1025.9 -1.49075 -1.2446 0
M  V30 11087 O 1025.18 -0.672684 -1.82497 0
M  V30 11088 C 1025.46 -3.59934 0.109279 0
M  V30 11089 C 1025.31 -4.23546 1.51423 0
M  V30 11090 C 1026.63 -4.36406 -0.568985 0
M  V30 11091 H 1023.75 -0.735427 0.0481299 0
M  V30 11092 H 1026.39 -1.72277 0.801286 0
M  V30 11093 H 1024.54 -3.85722 -0.463726 0
M  V30 11094 H 1026.22 -4.08882 2.13572 0
M  V30 11095 H 1024.46 -3.81245 2.06966 0
M  V30 11096 H 1025.13 -5.32535 1.45294 0
M  V30 11097 H 1027.61 -4.1602 -0.0817516 0
M  V30 11098 H 1026.48 -5.46122 -0.551527 0
M  V30 11099 H 1026.74 -4.1062 -1.6384 0
M  V30 11100 N 1025.8 -0.366053 -1.5329 0
M  V30 11101 C 1026.76 0.467904 -2.24373 0
M  V30 11102 C 1027.76 1.00934 -1.25176 0
M  V30 11103 O 1028.95 0.895015 -1.49449 0
M  V30 11104 C 1026.09 1.65405 -2.98084 0
M  V30 11105 H 1027.28 -0.154105 -2.99504 0
M  V30 11106 H 1024.83 -0.117751 -1.55856 0
M  V30 11107 H 1025.57 2.31413 -2.27197 0
M  V30 11108 H 1025.35 1.27277 -3.70868 0
M  V30 11109 H 1026.84 2.24503 -3.52119 0
M  V30 11110 N 1027.28 1.57312 -0.0952337 0
M  V30 11111 C 1028.7 1.57445 0.261416 0
M  V30 11112 C 1028.9 1.10639 1.68408 0
M  V30 11113 O 1027.95 0.782912 2.40056 0
M  V30 11114 C 1029.26 3.00659 0.0497206 0
M  V30 11115 C 1030.81 3.1278 0.117459 0
M  V30 11116 C 1031.29 4.57952 -0.0662441 0
M  V30 11117 N 1032.78 4.63199 -0.0114146 0
M  V30 11118 C 1033.51 5.73255 -0.128799 0
M  V30 11119 N 1033.01 6.92146 -0.301026 0
M  V30 11120 N 1034.8 5.62056 -0.0700599 0
M  V30 11121 H 1026.95 1.86045 -1.02475 0
M  V30 11122 H 1029.22 0.858726 -0.401614 0
M  V30 11123 H 1028.92 3.39102 -0.932888 0
M  V30 11124 H 1028.8 3.68792 0.791975 0
M  V30 11125 H 1031.18 2.74209 1.09057 0
M  V30 11126 H 1031.26 2.47238 -0.656288 0
M  V30 11127 H 1030.91 4.97217 -1.03623 0
M  V30 11128 H 1030.84 5.21555 0.727198 0
M  V30 11129 H 1033.33 3.77712 0.119154 0
M  V30 11130 H 1033.64 7.71855 -0.382104 0
M  V30 11131 H 1031.99 6.94184 -0.336695 0
M  V30 11132 H 1035.18 4.68057 0.0633587 0
M  V30 11133 H 1035.35 6.4779 -0.164991 0
M  V30 11134 N 1028.76 -0.17846 1.56586 0
M  V30 11135 C 1030.03 -0.923096 1.72448 0
M  V30 11136 C 1030.41 -2.00692 0.654659 0
M  V30 11137 O 1029.76 -2.26079 -0.33171 0
M  V30 11138 C 1029.97 -1.49435 3.15389 0
M  V30 11139 C 1031.32 -1.97005 3.76131 0
M  V30 11140 O 1032.34 -1.59244 3.18622 0
M  V30 11141 O 1031.2 -2.66541 4.77094 0
M  V30 11142 H 1028.3 -0.434009 0.703964 0
M  V30 11143 H 1030.84 -0.16685 1.68878 0
M  V30 11144 H 1029.62 -0.713933 3.84732 0
M  V30 11145 H 1029.24 -2.31498 3.23256 0
M  V30 11146 N 1030.24 -1.51135 -0.446768 0
M  V30 11147 C 1031.15 -1.74595 -1.56696 0
M  V30 11148 C 1032.16 -0.629816 -1.62201 0
M  V30 11149 O 1033.34 -0.910987 -1.79619 0
M  V30 11150 C 1030.4 -1.85738 -2.9275 0
M  V30 11151 C 1029.46 -3.09564 -2.97437 0
M  V30 11152 C 1028.7 -3.20165 -4.27001 0
M  V30 11153 O 1028.92 -2.36939 -5.1886 0
M  V30 11154 O 1027.85 -4.13077 -4.3778 0
M  V30 11155 H 1031.68 -2.69601 -1.39817 0
M  V30 11156 H 1029.26 -1.35523 -0.628805 0
M  V30 11157 H 1031.15 -1.95107 -3.73512 0
M  V30 11158 H 1029.82 -0.939184 -3.09776 0
M  V30 11159 H 1028.73 -3.05679 -2.15664 0
M  V30 11160 H 1030.06 -4.01041 -2.85353 0
M  V30 11161 N 1031.71 0.701592 -1.41122 0
M  V30 11162 C 1032.96 1.46376 -1.40363 0
M  V30 11163 C 1033.29 1.94197 -0.0105442 0
M  V30 11164 O 1032.57 1.69121 0.960637 0
M  V30 11165 C 1032.85 2.67994 -2.40523 0
M  V30 11166 C 1032.7 2.25977 -3.88914 0
M  V30 11167 C 1034.02 3.70181 -2.38022 0
M  V30 11168 H 1031.14 0.530929 -0.511159 0
M  V30 11169 H 1033.78 0.799588 -1.72356 0
M  V30 11170 H 1031.93 3.24661 -2.13372 0
M  V30 11171 H 1033.61 1.74684 -4.26946 0
M  V30 11172 H 1031.85 1.57826 -4.04071 0
M  V30 11173 H 1032.52 3.13215 -4.54533 0
M  V30 11174 H 1035 3.23174 -2.62103 0
M  V30 11175 H 1033.87 4.52894 -3.10127 0
M  V30 11176 H 1034.13 4.19458 -1.3967 0
M  V30 11177 N 1033.19 1.2685 0.935242 0
M  V30 11178 C 1034.47 1.03483 1.65984 0
M  V30 11179 C 1034.85 -0.432859 2.06614 0
M  V30 11180 O 1034.2 -1.4145 1.79455 0
M  V30 11181 C 1034.41 1.98924 2.86758 0
M  V30 11182 C 1035.75 2.2787 3.58274 0
M  V30 11183 O 1036.78 1.96838 2.96873 0
M  V30 11184 O 1035.64 2.80734 4.68882 0
M  V30 11185 H 1032.73 0.393932 0.72715 0
M  V30 11186 H 1035.28 1.38085 0.986445 0
M  V30 11187 H 1034.05 2.9794 2.53668 0
M  V30 11188 H 1033.67 1.64839 3.6182 0
M  V30 11189 N 1034.67 -1.14067 1.0875 0
M  V30 11190 C 1035.9 -1.89582 0.841038 0
M  V30 11191 C 1036.32 -1.78226 -0.601436 0
M  V30 11192 O 1035.68 -1.12491 -1.42181 0
M  V30 11193 C 1035.73 -3.37415 1.27213 0
M  V30 11194 O 1034.83 -4.10191 0.426246 0
M  V30 11195 H 1034.17 -0.589716 0.305173 0
M  V30 11196 H 1036.7 -1.44364 1.44984 0
M  V30 11197 H 1036.71 -3.88234 1.25451 0
M  V30 11198 H 1035.39 -3.44999 2.32268 0
M  V30 11199 H 1033.96 -3.69429 0.507585 0
M  V30 11200 N 1036.15 -0.873678 -1.31166 0
M  V30 11201 C 1037.08 -0.348011 -2.30892 0
M  V30 11202 C 1038.06 0.563092 -1.60509 0
M  V30 11203 O 1039.24 0.479332 -1.88192 0
M  V30 11204 C 1036.37 0.448158 -3.44396 0
M  V30 11205 C 1035.33 -0.370179 -4.26396 0
M  V30 11206 C 1034.65 0.551903 -5.31844 0
M  V30 11207 C 1035.95 -1.60624 -4.96988 0
M  V30 11208 H 1037.65 -1.18134 -2.75109 0
M  V30 11209 H 1035.19 -0.569502 -1.3226 0
M  V30 11210 H 1037.15 0.826458 -4.13216 0
M  V30 11211 H 1035.87 1.31503 -2.98956 0
M  V30 11212 H 1034.53 -0.730472 -3.59249 0
M  V30 11213 H 1034.18 1.41616 -4.82653 0
M  V30 11214 H 1033.88 0.00823478 -5.87599 0
M  V30 11215 H 1035.4 0.926965 -6.03523 0
M  V30 11216 H 1036.82 -1.29917 -5.58386 0
M  V30 11217 H 1035.21 -2.08926 -5.62557 0
M  V30 11218 H 1036.28 -2.357 -4.23761 0
M  V30 11219 N 1037.63 1.44308 -0.633487 0
M  V30 11220 C 1038.56 2.27887 0.119397 0
M  V30 11221 C 1039.54 1.38676 0.848981 0
M  V30 11222 O 1040.72 1.68116 0.85259 0
M  V30 11223 C 1037.85 3.17658 1.17521 0
M  V30 11224 C 1036.89 4.22992 0.54589 0
M  V30 11225 S 1037.73 5.31345 -0.6658 0
M  V30 11226 C 1038.88 6.24684 0.389965 0
M  V30 11227 H 1039.12 2.91394 -0.589638 0
M  V30 11228 H 1036.65 1.48529 -0.421727 0
M  V30 11229 H 1038.61 3.69929 1.77941 0
M  V30 11230 H 1037.27 2.53367 1.85645 0
M  V30 11231 H 1036.46 4.85828 1.34115 0
M  V30 11232 H 1036.06 3.73996 0.0162506 0
M  V30 11233 H 1038.36 6.65645 1.26185 0
M  V30 11234 H 1039.3 7.07809 -0.202878 0
M  V30 11235 H 1039.71 5.59929 0.716922 0
M  V30 11236 N 1039.1 0.374177 1.53094 0
M  V30 11237 C 1040.34 -0.21278 2.03289 0
M  V30 11238 C 1040.71 -1.45291 1.25517 0
M  V30 11239 O 1041.91 -2.11605 1.65761 0
M  V30 11240 C 1040.18 -0.48913 3.54037 0
M  V30 11241 S 1041.74 -1.04853 4.26088 0
M  V30 11242 H 1038.56 -0.0612752 0.708355 0
M  V30 11243 H 1041.16 0.519031 1.88484 0
M  V30 11244 H 1039.86 0.420786 4.08237 0
M  V30 11245 H 1039.39 -1.24978 3.7302 0
M  V30 11246 H 1041.41 -2.33213 4.3798 0
M  V30 11247 N 1040.58 -1.57259 0.103575 0
M  V30 11248 C 1041.49 -2.18018 -0.866327 0
M  V30 11249 C 1042.51 -1.15198 -1.30404 0
M  V30 11250 O 1043.68 -1.47605 -1.37021 0
M  V30 11251 C 1040.75 -2.75533 -2.10434 0
M  V30 11252 C 1039.81 -3.93337 -1.72002 0
M  V30 11253 C 1039.04 -4.481 -2.89901 0
M  V30 11254 O 1039.27 -4.01784 -4.04877 0
M  V30 11255 O 1038.2 -5.39004 -2.67877 0
M  V30 11256 H 1042.03 -3.01322 -0.379338 0
M  V30 11257 H 1039.61 -1.48907 -0.121228 0
M  V30 11258 H 1041.49 -3.12259 -2.8297 0
M  V30 11259 H 1040.17 -1.9527 -2.58169 0
M  V30 11260 H 1039.08 -3.61408 -0.966193 0
M  V30 11261 H 1040.41 -4.74989 -1.29022 0
M  V30 11262 N 1042.06 0.170153 -1.56679 0
M  V30 11263 C 1043.01 1.21064 -1.965 0
M  V30 11264 C 1043.98 1.43928 -0.829092 0
M  V30 11265 O 1045.16 1.56649 -1.08931 0
M  V30 11266 C 1042.3 2.54468 -2.33109 0
M  V30 11267 C 1041.42 2.38974 -3.59883 0
M  V30 11268 C 1040.55 3.65252 -3.857 0
M  V30 11269 C 1039.59 3.44696 -5.05817 0
M  V30 11270 N 1038.73 4.63047 -5.27761 0
M  V30 11271 H 1043.57 0.864055 -2.85198 0
M  V30 11272 H 1041.1 0.415243 -1.41117 0
M  V30 11273 H 1043.06 3.32222 -2.52358 0
M  V30 11274 H 1041.69 2.8712 -1.4752 0
M  V30 11275 H 1040.74 1.5239 -3.48542 0
M  V30 11276 H 1042.06 2.19731 -4.47794 0
M  V30 11277 H 1041.21 4.51441 -4.05322 0
M  V30 11278 H 1039.95 3.87475 -2.96166 0
M  V30 11279 H 1038.95 2.56893 -4.86092 0
M  V30 11280 H 1040.18 3.23894 -5.96883 0
M  V30 11281 H 1038.12 4.85487 -4.41179 0
M  V30 11282 H 1038.04 4.46722 -6.09898 0
M  V30 11283 H 1039.31 5.50516 -5.51863 0
M  V30 11284 N 1043.54 1.5137 0.438746 0
M  V30 11285 C 1044.95 1.39514 0.775116 0
M  V30 11286 C 1045.15 0.47638 1.95788 0
M  V30 11287 O 1044.21 -0.0689832 2.52406 0
M  V30 11288 C 1045.52 2.81517 1.05681 0
M  V30 11289 C 1047.07 2.90658 1.16133 0
M  V30 11290 C 1047.55 4.33566 1.47597 0
M  V30 11291 N 1049.04 4.36665 1.54524 0
M  V30 11292 C 1049.77 5.4427 1.80438 0
M  V30 11293 N 1049.27 6.62037 2.04154 0
M  V30 11294 N 1051.06 5.31749 1.82208 0
M  V30 11295 H 1043.21 2.09657 -0.340237 0
M  V30 11296 H 1045.48 0.943736 -0.0898115 0
M  V30 11297 H 1045.18 3.50734 0.260441 0
M  V30 11298 H 1045.06 3.20757 1.98481 0
M  V30 11299 H 1047.44 2.2164 1.94833 0
M  V30 11300 H 1047.52 2.54917 0.212376 0
M  V30 11301 H 1047.17 5.03133 0.694251 0
M  V30 11302 H 1047.1 4.66819 2.43696 0
M  V30 11303 H 1049.59 3.51761 1.38105 0
M  V30 11304 H 1049.9 7.39838 2.23293 0
M  V30 11305 H 1048.25 6.65155 2.01479 0
M  V30 11306 H 1051.44 4.3873 1.63198 0
M  V30 11307 H 1051.61 6.15689 2.02067 0
M  V30 11308 N 1045.02 -0.694098 1.41492 0
M  V30 11309 C 1046.27 -1.4498 1.40227 0
M  V30 11310 C 1046.58 -1.95594 0.0151253 0
M  V30 11311 O 1047.78 -2.71234 -0.120146 0
M  V30 11312 C 1046.24 -2.62171 2.46565 0
M  V30 11313 C 1045.85 -2.18337 3.91194 0
M  V30 11314 C 1047.59 -3.39796 2.54439 0
M  V30 11315 C 1045.5 -3.32495 4.89082 0
M  V30 11316 H 1044.43 -0.544584 0.521483 0
M  V30 11317 H 1047.08 -0.75337 1.67322 0
M  V30 11318 H 1045.46 -3.34089 2.12604 0
M  V30 11319 H 1046.64 -1.53698 4.34412 0
M  V30 11320 H 1044.95 -1.53702 3.86994 0
M  V30 11321 H 1047.55 -4.2478 3.24755 0
M  V30 11322 H 1047.89 -3.85082 1.5817 0
M  V30 11323 H 1048.42 -2.74935 2.87499 0
M  V30 11324 H 1045.16 -2.92219 5.86761 0
M  V30 11325 H 1044.68 -3.95978 4.50512 0
M  V30 11326 H 1046.36 -3.98251 5.09907 0
M  V30 11327 N 1046.49 -1.27344 -0.928501 0
M  V30 11328 C 1047.74 -1.13635 -1.6761 0
M  V30 11329 C 1048.07 0.317957 -1.91884 0
M  V30 11330 O 1047.32 1.24904 -1.50657 0
M  V30 11331 C 1047.62 -1.86439 -3.04918 0
M  V30 11332 C 1047.29 -3.36298 -3.00358 0
M  V30 11333 C 1045.95 -3.77173 -2.98821 0
M  V30 11334 C 1048.3 -4.31921 -2.91708 0
M  V30 11335 C 1045.63 -5.12037 -2.86417 0
M  V30 11336 C 1047.98 -5.66841 -2.80846 0
M  V30 11337 C 1046.65 -6.07011 -2.77659 0
M  V30 11338 H 1045.92 -0.415821 -0.61333 0
M  V30 11339 H 1048.56 -1.57943 -1.08288 0
M  V30 11340 H 1046.87 -1.34638 -3.6794 0
M  V30 11341 H 1048.57 -1.73261 -3.61637 0
M  V30 11342 H 1045.16 -3.0379 -3.0234 0
M  V30 11343 H 1049.34 -4.01314 -2.91994 0
M  V30 11344 H 1044.6 -5.42307 -2.82336 0
M  V30 11345 H 1048.77 -6.40608 -2.73119 0
M  V30 11346 H 1046.4 -7.11467 -2.67804 0
M  V30 11347 N 1047.97 1.13488 -1.09353 0
M  V30 11348 C 1048.88 2.2248 -0.744307 0
M  V30 11349 C 1049.9 1.72145 0.253404 0
M  V30 11350 O 1051.07 2.01176 0.0949339 0
M  V30 11351 C 1048.14 3.46286 -0.16928 0
M  V30 11352 C 1047.2 4.11516 -1.22284 0
M  V30 11353 C 1046.43 5.29412 -0.675161 0
M  V30 11354 O 1046.66 5.68185 0.502182 0
M  V30 11355 O 1045.59 5.8467 -1.42983 0
M  V30 11356 H 1049.42 2.54723 -1.65378 0
M  V30 11357 H 1047 1.21607 -0.867879 0
M  V30 11358 H 1048.88 4.2114 0.14811 0
M  V30 11359 H 1047.56 3.15745 0.713214 0
M  V30 11360 H 1046.47 3.38492 -1.59292 0
M  V30 11361 H 1047.8 4.46186 -2.07796 0
M  V30 11362 N 1049.45 0.880621 1.30701 0
M  V30 11363 C 1050.68 0.511682 2.00473 0
M  V30 11364 C 1051.09 -0.898684 1.6604 0
M  V30 11365 O 1050.45 -1.59035 0.895218 0
M  V30 11366 C 1050.5 0.671723 3.55204 0
M  V30 11367 O 1050.22 2.02656 3.8841 0
M  V30 11368 C 1051.72 0.3052 4.42248 0
M  V30 11369 H 1048.94 0.198231 0.64105 0
M  V30 11370 H 1051.49 1.18472 1.66687 0
M  V30 11371 H 1049.64 0.0461066 3.87373 0
M  V30 11372 H 1050.06 2.04202 4.83117 0
M  V30 11373 H 1051.53 0.468095 5.50012 0
M  V30 11374 H 1052.01 -0.756456 4.32637 0
M  V30 11375 H 1052.61 0.906959 4.15517 0
M  V30 11376 N 1050.93 -1.4397 0.641131 0
M  V30 11377 C 1052.18 -2.02246 0.14985 0
M  V30 11378 C 1052.51 -1.50387 -1.22871 0
M  V30 11379 O 1051.78 -0.692003 -1.81773 0
M  V30 11380 C 1052.07 -3.59798 0.147449 0
M  V30 11381 C 1051.92 -4.21916 1.55907 0
M  V30 11382 C 1053.24 -4.36985 -0.522667 0
M  V30 11383 H 1050.36 -0.734875 0.0559274 0
M  V30 11384 H 1053 -1.71418 0.819513 0
M  V30 11385 H 1051.15 -3.86193 -0.422789 0
M  V30 11386 H 1052.82 -4.06594 2.17896 0
M  V30 11387 H 1051.06 -3.79028 2.10998 0
M  V30 11388 H 1051.74 -5.30964 1.50934 0
M  V30 11389 H 1054.21 -4.16083 -0.0376226 0
M  V30 11390 H 1053.09 -5.46676 -0.493572 0
M  V30 11391 H 1053.35 -4.12335 -1.59475 0
M  V30 11392 N 1052.41 -0.382291 -1.52893 0
M  V30 11393 C 1053.36 0.471187 -2.27778 0
M  V30 11394 C 1054.35 1.0691 -1.31402 0
M  V30 11395 O 1055.56 1.01038 -1.48967 0
M  V30 11396 H 1051.93 0.170696 -0.732371 0
M  V30 11397 H 1053.9 -0.181954 -2.97845 0
M  V30 11398 C 1052.65 1.59012 -3.09209 0
M  V30 11399 H 1051.97 1.13935 -3.83222 0
M  V30 11400 H 1053.41 2.16167 -3.64757 0
M  V30 11401 C 1051.87 2.54212 -2.21084 0
M  V30 11402 O 1052.4 3.57447 -1.83288 0
M  V30 11403 N 1050.61 2.23789 -1.85383 0
M  V30 11404 H 1050.16 1.39872 -2.16318 0
M  V30 11405 H 1050.11 2.87737 -1.26708 0
M  V30 11406 N 1053.89 1.57202 -0.111913 0
M  V30 11407 C 1055.11 1.99723 0.559054 0
M  V30 11408 C 1055.54 0.990968 1.59879 0
M  V30 11409 O 1054.89 -0.038311 1.8126 0
M  V30 11410 C 1054.94 3.41151 1.16826 0
M  V30 11411 O 1054.05 3.43383 2.2839 0
M  V30 11412 H 1053.39 0.649004 0.140319 0
M  V30 11413 H 1055.92 2.03637 -0.198295 0
M  V30 11414 H 1055.93 3.79208 1.50551 0
M  V30 11415 H 1054.6 4.13907 0.406637 0
M  V30 11416 H 1053.18 3.17138 1.96158 0
M  V30 11417 N 1055.36 -0.161842 1.56767 0
M  V30 11418 C 1056.61 -0.878224 1.82798 0
M  V30 11419 C 1056.94 -1.81481 0.691242 0
M  V30 11420 O 1056.22 -1.92075 -0.30618 0
M  V30 11421 C 1056.5 -1.66565 3.19262 0
M  V30 11422 C 1056.35 -0.751551 4.43477 0
M  V30 11423 C 1057.67 -2.63134 3.52773 0
M  V30 11424 H 1054.79 -0.317828 0.664947 0
M  V30 11425 H 1057.43 -0.14402 1.89453 0
M  V30 11426 H 1055.58 -2.29157 3.13719 0
M  V30 11427 H 1057.26 -0.137783 4.61094 0
M  V30 11428 H 1055.5 -0.0601785 4.33758 0
M  V30 11429 H 1056.17 -1.33823 5.35533 0
M  V30 11430 H 1058.65 -2.10666 3.5883 0
M  V30 11431 H 1057.52 -3.15289 4.49315 0
M  V30 11432 H 1057.78 -3.43786 2.77963 0
M  V30 11433 N 1056.84 -1.516 -0.430713 0
M  V30 11434 C 1058.26 -1.39923 -0.767706 0
M  V30 11435 C 1058.46 -0.486756 -1.95532 0
M  V30 11436 O 1057.51 0.0555965 -2.52439 0
M  V30 11437 C 1058.83 -2.82074 -1.04187 0
M  V30 11438 C 1060.37 -2.9127 -1.1459 0
M  V30 11439 C 1060.85 -4.34342 -1.45295 0
M  V30 11440 N 1062.34 -4.37479 -1.52206 0
M  V30 11441 C 1063.08 -5.45219 -1.77549 0
M  V30 11442 N 1062.57 -6.6311 -2.0064 0
M  V30 11443 N 1064.36 -5.32707 -1.79386 0
M  V30 11444 H 1056.52 -2.09474 0.351351 0
M  V30 11445 H 1058.78 -0.943247 0.0948151 0
M  V30 11446 H 1058.48 -3.50868 -0.241837 0
M  V30 11447 H 1058.36 -3.21805 -1.96777 0
M  V30 11448 H 1060.75 -2.2267 -1.93655 0
M  V30 11449 H 1060.83 -2.55026 -0.198854 0
M  V30 11450 H 1060.47 -5.03494 -0.667559 0
M  V30 11451 H 1060.4 -4.68105 -2.41217 0
M  V30 11452 H 1062.89 -3.52488 -1.36237 0
M  V30 11453 H 1063.2 -7.41012 -2.19366 0
M  V30 11454 H 1061.55 -6.66214 -1.97948 0
M  V30 11455 H 1064.74 -4.39589 -1.60869 0
M  V30 11456 H 1064.91 -6.16752 -1.98799 0
M  V30 11457 N 1058.32 0.686584 -1.41858 0
M  V30 11458 C 1059.27 1.79271 -1.40875 0
M  V30 11459 C 1060.25 1.58413 -0.281782 0
M  V30 11460 O 1061.45 1.69093 -0.523132 0
M  V30 11461 C 1058.57 3.17647 -1.30213 0
M  V30 11462 C 1057.66 3.44168 -2.47808 0
M  V30 11463 N 1058.05 3.41339 -3.73258 0
M  V30 11464 C 1056.35 3.74755 -2.41815 0
M  V30 11465 C 1057.05 3.67016 -4.51303 0
M  V30 11466 N 1056.03 3.87203 -3.81543 0
M  V30 11467 H 1059.83 1.75459 -2.35778 0
M  V30 11468 H 1057.34 0.886946 -1.36041 0
M  V30 11469 H 1059.34 3.96896 -1.2759 0
M  V30 11470 H 1058 3.22664 -0.363021 0
M  V30 11471 H 1059.01 3.21511 -4.06018 0
M  V30 11472 H 1055.69 3.87089 -1.56423 0
M  V30 11473 H 1057.08 3.70888 -5.6026 0
M  V30 11474 N 1059.8 1.27835 0.921735 0
M  V30 11475 C 1061.21 1.13151 1.48505 0
M  V30 11476 C 1061.56 -0.281373 1.94172 0
M  V30 11477 O 1060.68 -1.17487 1.8173 0
M  V30 11478 C 1061.28 2.04792 2.69899 0
M  V30 11479 C 1059.84 1.94196 3.22436 0
M  V30 11480 C 1058.99 1.96999 1.95158 0
M  V30 11481 H 1061.94 1.40641 0.735241 0
M  V30 11482 H 1061.96 1.60724 3.44889 0
M  V30 11483 H 1061.47 3.07615 2.36631 0
M  V30 11484 H 1059.57 0.943805 3.60448 0
M  V30 11485 H 1059.68 2.80744 3.88226 0
M  V30 11486 H 1058.05 1.41301 2.11911 0
M  V30 11487 H 1058.83 3.01487 1.64196 0
M  V30 11488 N 1061.28 -1.12907 1.09954 0
M  V30 11489 C 1062.52 -1.84306 0.838912 0
M  V30 11490 C 1062.85 -1.83825 -0.635508 0
M  V30 11491 O 1062.11 -1.27556 -1.48418 0
M  V30 11492 C 1062.4 -3.31885 1.32616 0
M  V30 11493 C 1062.07 -3.52542 2.81114 0
M  V30 11494 C 1060.73 -3.57888 3.21667 0
M  V30 11495 C 1063.08 -3.60065 3.76833 0
M  V30 11496 C 1060.41 -3.68296 4.567 0
M  V30 11497 C 1062.76 -3.72001 5.11662 0
M  V30 11498 C 1061.43 -3.75602 5.51797 0
M  V30 11499 H 1060.7 -0.674422 0.30698 0
M  V30 11500 H 1063.35 -1.33261 1.37527 0
M  V30 11501 H 1061.65 -3.85318 0.709719 0
M  V30 11502 H 1063.35 -3.85588 1.10105 0
M  V30 11503 H 1059.94 -3.4904 2.48735 0
M  V30 11504 H 1064.12 -3.55209 3.46612 0
M  V30 11505 H 1059.38 -3.69352 4.87226 0
M  V30 11506 H 1063.55 -3.76765 5.8568 0
M  V30 11507 H 1061.18 -3.83419 6.56425 0
M  V30 11508 N 1062.75 -0.88754 -1.30232 0
M  V30 11509 C 1063.68 -0.372481 -2.3051 0
M  V30 11510 C 1064.66 0.546037 -1.61098 0
M  V30 11511 O 1065.85 0.459345 -1.88689 0
M  V30 11512 C 1062.98 0.411605 -3.44852 0
M  V30 11513 C 1061.93 -0.415383 -4.2598 0
M  V30 11514 C 1061.26 0.495463 -5.324 0
M  V30 11515 C 1062.56 -1.65886 -4.95257 0
M  V30 11516 H 1064.25 -1.21045 -2.7384 0
M  V30 11517 H 1061.8 -0.583498 -1.31648 0
M  V30 11518 H 1063.75 0.782584 -4.1407 0
M  V30 11519 H 1062.48 1.28325 -3.00334 0
M  V30 11520 H 1061.14 -0.768534 -3.58454 0
M  V30 11521 H 1060.78 1.36489 -4.84128 0
M  V30 11522 H 1060.48 -0.0540885 -5.87575 0
M  V30 11523 H 1062.01 0.862901 -6.04472 0
M  V30 11524 H 1063.42 -1.35832 -5.56976 0
M  V30 11525 H 1061.82 -2.14881 -5.60309 0
M  V30 11526 H 1062.89 -2.40181 -4.21237 0
M  V30 11527 N 1064.23 1.43628 -0.648757 0
M  V30 11528 C 1065.48 2.02163 -0.160574 0
M  V30 11529 C 1065.81 1.51037 1.22072 0
M  V30 11530 O 1065.09 0.701633 1.81404 0
M  V30 11531 C 1065.37 3.59715 -0.166528 0
M  V30 11532 C 1065.22 4.21083 -1.58142 0
M  V30 11533 C 1066.54 4.37256 0.499485 0
M  V30 11534 H 1063.66 0.734568 -0.0598238 0
M  V30 11535 H 1066.3 1.70981 -0.828592 0
M  V30 11536 H 1064.45 3.86411 0.402302 0
M  V30 11537 H 1066.12 4.05433 -2.2005 0
M  V30 11538 H 1064.37 3.77904 -2.13005 0
M  V30 11539 H 1065.04 5.30156 -1.53748 0
M  V30 11540 H 1067.51 4.16097 0.0155561 0
M  V30 11541 H 1066.39 5.4693 0.464574 0
M  V30 11542 H 1066.65 4.13175 1.57286 0
M  V30 11543 N 1065.71 0.390394 1.52688 0
M  V30 11544 C 1066.66 -0.4591 2.28024 0
M  V30 11545 C 1067.65 -1.06212 1.31967 0
M  V30 11546 O 1068.86 -1.00247 1.49501 0
M  V30 11547 H 1065.23 -0.16681 0.733266 0
M  V30 11548 H 1067.2 0.197747 2.97744 0
M  V30 11549 C 1065.95 -1.5737 3.10048 0
M  V30 11550 H 1065.28 -1.11901 3.83821 0
M  V30 11551 H 1066.72 -2.1423 3.65898 0
M  V30 11552 C 1065.18 -2.53036 2.22429 0
M  V30 11553 O 1065.71 -3.5647 1.85181 0
M  V30 11554 N 1063.91 -2.22802 1.86567 0
M  V30 11555 H 1063.46 -1.38723 2.17057 0
M  V30 11556 H 1063.42 -2.87061 1.28233 0
M  V30 11557 N 1067.19 -1.57141 0.120249 0
M  V30 11558 C 1068.12 -2.18398 -0.826112 0
M  V30 11559 C 1069.1 -1.12439 -1.27638 0
M  V30 11560 O 1070.28 -1.40679 -1.33877 0
M  V30 11561 C 1067.41 -2.78438 -2.0758 0
M  V30 11562 C 1066.37 -3.89991 -1.76327 0
M  V30 11563 C 1065.69 -4.36844 -3.08336 0
M  V30 11564 C 1066.99 -5.12031 -1.03062 0
M  V30 11565 H 1068.69 -2.97731 -0.315656 0
M  V30 11566 H 1066.23 -1.43213 -0.150387 0
M  V30 11567 H 1068.19 -3.19951 -2.74243 0
M  V30 11568 H 1066.91 -1.96396 -2.60953 0
M  V30 11569 H 1065.57 -3.49055 -1.12053 0
M  V30 11570 H 1065.22 -3.51659 -3.59646 0
M  V30 11571 H 1064.92 -5.1207 -2.88199 0
M  V30 11572 H 1066.44 -4.81009 -3.76116 0
M  V30 11573 H 1067.86 -5.50555 -1.59881 0
M  V30 11574 H 1066.25 -5.92848 -0.930146 0
M  V30 11575 H 1067.32 -4.84897 -0.017582 0
M  V30 11576 N 1068.67 0.153526 -1.5685 0
M  V30 11577 C 1069.91 0.867232 -1.8299 0
M  V30 11578 C 1070.24 1.81462 -0.700125 0
M  V30 11579 O 1069.5 1.93207 0.311348 0
M  V30 11580 C 1069.8 1.68066 -3.15418 0
M  V30 11581 C 1069.46 0.880635 -4.42217 0
M  V30 11582 C 1068.12 0.659899 -4.76654 0
M  V30 11583 C 1070.48 0.320698 -5.20212 0
M  V30 11584 C 1067.8 -0.131588 -5.86552 0
M  V30 11585 C 1070.16 -0.457794 -6.30941 0
M  V30 11586 C 1068.82 -0.689168 -6.63933 0
M  V30 11587 H 1068.09 0.317343 -0.669608 0
M  V30 11588 H 1070.74 0.131208 -1.9105 0
M  V30 11589 H 1069.04 2.4866 -3.02779 0
M  V30 11590 H 1070.74 2.23623 -3.32857 0
M  V30 11591 H 1067.33 1.06274 -4.15215 0
M  V30 11592 H 1071.51 0.47853 -4.93988 0
M  V30 11593 H 1066.77 -0.320413 -6.1056 0
M  V30 11594 H 1070.94 -0.898839 -6.90575 0
M  V30 11595 H 1068.57 -1.30433 -7.48927 0
M  V30 11596 N 1070.14 1.51827 0.422667 0
M  V30 11597 C 1071.11 1.7359 1.49663 0
M  V30 11598 C 1072.11 0.605811 1.48952 0
M  V30 11599 O 1073.3 0.87354 1.50715 0
M  V30 11600 C 1070.43 1.80585 2.8914 0
M  V30 11601 H 1071.62 2.69453 1.31664 0
M  V30 11602 H 1069.18 1.42038 0.652298 0
M  V30 11603 H 1069.91 0.865895 3.12526 0
M  V30 11604 H 1069.7 2.62729 2.9106 0
M  V30 11605 H 1071.19 1.99212 3.67021 0
M  V30 11606 N 1071.62 -0.679052 1.4222 0
M  V30 11607 C 1072.86 -1.45118 1.43945 0
M  V30 11608 C 1073.23 -1.91928 0.0524851 0
M  V30 11609 O 1074.43 -2.68743 -0.0555318 0
M  V30 11610 C 1072.7 -2.6191 2.43183 0
M  V30 11611 S 1074.26 -3.50819 2.63574 0
M  V30 11612 H 1071.08 -0.495695 0.509713 0
M  V30 11613 H 1073.68 -0.790842 1.7879 0
M  V30 11614 H 1072.38 -2.25752 3.42731 0
M  V30 11615 H 1071.91 -3.3282 2.09748 0
M  V30 11616 H 1073.93 -4.57735 1.91555 0
M  V30 11617 N 1073.1 -1.28322 -0.914942 0
M  V30 11618 C 1074.35 -1.15407 -1.66396 0
M  V30 11619 C 1074.68 0.297587 -1.9221 0
M  V30 11620 O 1073.93 1.23299 -1.51973 0
M  V30 11621 C 1074.23 -1.89663 -3.02924 0
M  V30 11622 C 1073.9 -3.39464 -2.96774 0
M  V30 11623 C 1072.56 -3.80321 -2.94804 0
M  V30 11624 C 1074.91 -4.3499 -2.87111 0
M  V30 11625 C 1072.24 -5.15046 -2.8097 0
M  V30 11626 C 1074.59 -5.69788 -2.74818 0
M  V30 11627 C 1073.25 -6.09921 -2.71205 0
M  V30 11628 H 1072.52 -0.422303 -0.608885 0
M  V30 11629 H 1075.17 -1.59082 -1.06607 0
M  V30 11630 H 1073.48 -1.38533 -3.66491 0
M  V30 11631 H 1075.17 -1.77087 -3.59779 0
M  V30 11632 H 1071.76 -3.06979 -2.99101 0
M  V30 11633 H 1075.95 -4.04389 -2.87721 0
M  V30 11634 H 1071.2 -5.45271 -2.76568 0
M  V30 11635 H 1075.38 -6.43469 -2.66309 0
M  V30 11636 H 1073 -7.14267 -2.60243 0
M  V30 11637 N 1074.58 1.12322 -1.10551 0
M  V30 11638 C 1075.51 2.17819 -0.713263 0
M  V30 11639 C 1076.52 1.6086 0.250604 0
M  V30 11640 O 1077.71 1.78466 0.0348909 0
M  V30 11641 C 1074.81 3.38885 -0.0320325 0
M  V30 11642 C 1073.99 4.25332 -1.02038 0
M  V30 11643 C 1073.04 5.24895 -0.370412 0
M  V30 11644 O 1072.07 5.59958 -1.02157 0
M  V30 11645 N 1073.27 5.73934 0.870633 0
M  V30 11646 H 1076.04 2.52083 -1.62094 0
M  V30 11647 H 1073.6 1.27755 -0.994492 0
M  V30 11648 H 1075.59 4.02574 0.414285 0
M  V30 11649 H 1074.16 3.02762 0.778072 0
M  V30 11650 H 1073.38 3.5824 -1.64492 0
M  V30 11651 H 1074.67 4.79936 -1.68936 0
M  V30 11652 H 1074.07 5.47614 1.419 0
M  V30 11653 H 1072.62 6.39504 1.26008 0
M  V30 11654 N 1076.06 0.894434 1.2976 0
M  V30 11655 C 1077.28 0.532916 1.99919 0
M  V30 11656 C 1077.7 -0.881022 1.66983 0
M  V30 11657 O 1077.06 -1.58076 0.912035 0
M  V30 11658 C 1077.11 0.70936 3.54472 0
M  V30 11659 O 1076.83 2.06764 3.86239 0
M  V30 11660 C 1078.33 0.352089 4.419 0
M  V30 11661 H 1075.55 0.205019 0.638912 0
M  V30 11662 H 1078.09 1.20233 1.65421 0
M  V30 11663 H 1076.25 0.0871901 3.87302 0
M  V30 11664 H 1076.66 2.09315 4.80924 0
M  V30 11665 H 1078.14 0.526405 5.49484 0
M  V30 11666 H 1078.61 -0.710527 4.33415 0
M  V30 11667 H 1079.22 0.950979 4.14532 0
M  V30 11668 N 1077.53 -1.43282 0.656365 0
M  V30 11669 C 1078.48 -2.30776 -0.0333155 0
M  V30 11670 C 1079.45 -1.44928 -0.811493 0
M  V30 11671 O 1080.64 -1.73792 -0.787465 0
M  V30 11672 C 1077.78 -3.30548 -0.991566 0
M  V30 11673 C 1076.89 -4.31493 -0.209159 0
M  V30 11674 C 1076.02 -5.18346 -1.16149 0
M  V30 11675 C 1075.06 -6.10983 -0.369699 0
M  V30 11676 N 1074.2 -6.90449 -1.27378 0
M  V30 11677 H 1079.04 -2.89204 0.718668 0
M  V30 11678 H 1076.58 -1.4247 0.366161 0
M  V30 11679 H 1078.54 -3.86905 -1.56078 0
M  V30 11680 H 1077.17 -2.73762 -1.71039 0
M  V30 11681 H 1076.22 -3.77405 0.476394 0
M  V30 11682 H 1077.53 -4.97142 0.406394 0
M  V30 11683 H 1076.68 -5.79345 -1.80124 0
M  V30 11684 H 1075.42 -4.52831 -1.81095 0
M  V30 11685 H 1074.43 -5.49069 0.283377 0
M  V30 11686 H 1075.65 -6.78541 0.275399 0
M  V30 11687 H 1073.6 -6.27579 -1.90999 0
M  V30 11688 H 1073.52 -7.52631 -0.71287 0
M  V30 11689 H 1074.78 -7.5595 -1.90158 0
M  V30 11690 N 1079.01 -0.398486 -1.52479 0
M  V30 11691 C 1079.92 0.439328 -2.3045 0
M  V30 11692 C 1080.94 1.06322 -1.37738 0
M  V30 11693 O 1082.12 1.06704 -1.7081 0
M  V30 11694 C 1079.18 1.54655 -3.10294 0
M  V30 11695 C 1078.24 0.946824 -4.18729 0
M  V30 11696 C 1077.47 2.00129 -4.94757 0
M  V30 11697 O 1077.7 3.2178 -4.70971 0
M  V30 11698 O 1076.63 1.61345 -5.79872 0
M  V30 11699 H 1080.46 -0.196118 -3.03066 0
M  V30 11700 H 1078.04 -0.161961 -1.4852 0
M  V30 11701 H 1079.92 2.18958 -3.60049 0
M  V30 11702 H 1078.6 2.1668 -2.40482 0
M  V30 11703 H 1077.51 0.266802 -3.73147 0
M  V30 11704 H 1078.84 0.370664 -4.90802 0
M  V30 11705 N 1080.49 1.57075 -0.12858 0
M  V30 11706 C 1081.44 2.12379 0.829418 0
M  V30 11707 C 1082.43 1.04694 1.2218 0
M  V30 11708 O 1083.62 1.30909 1.1913 0
M  V30 11709 C 1080.75 2.73436 2.07575 0
M  V30 11710 C 1079.83 3.88217 1.7073 0
M  V30 11711 N 1080.22 4.94864 1.04609 0
M  V30 11712 C 1078.52 3.9858 2.00125 0
M  V30 11713 C 1079.22 5.7514 0.871137 0
M  V30 11714 N 1078.2 5.25284 1.39918 0
M  V30 11715 H 1082 2.92209 0.314816 0
M  V30 11716 H 1079.51 1.62233 0.0735788 0
M  V30 11717 H 1081.51 3.11406 2.77185 0
M  V30 11718 H 1080.17 1.95073 2.5957 0
M  V30 11719 H 1081.18 5.13025 0.708961 0
M  V30 11720 H 1077.86 3.3127 2.541 0
M  V30 11721 H 1079.25 6.7098 0.351395 0
M  V30 11722 N 1081.97 -0.145205 1.5693 0
M  V30 11723 C 1083.22 -0.858786 1.83719 0
M  V30 11724 C 1083.55 -1.80738 0.710452 0
M  V30 11725 O 1082.82 -1.92389 -0.285791 0
M  V30 11726 C 1083.11 -1.6317 3.2101 0
M  V30 11727 C 1082.96 -0.704472 4.44249 0
M  V30 11728 C 1084.28 -2.59377 3.55544 0
M  V30 11729 H 1081.4 -0.310757 0.66828 0
M  V30 11730 H 1084.04 -0.123918 1.89595 0
M  V30 11731 H 1082.19 -2.25816 3.16132 0
M  V30 11732 H 1083.86 -0.08887 4.61214 0
M  V30 11733 H 1082.1 -0.0141693 4.33798 0
M  V30 11734 H 1082.78 -1.28135 5.36922 0
M  V30 11735 H 1085.25 -2.06848 3.61044 0
M  V30 11736 H 1084.13 -3.10506 4.52634 0
M  V30 11737 H 1084.39 -3.40819 2.81594 0
M  V30 11738 N 1083.45 -1.52049 -0.414609 0
M  V30 11739 C 1084.69 -1.67511 -1.17129 0
M  V30 11740 C 1085.05 -0.39383 -1.87917 0
M  V30 11741 O 1086.25 -0.424496 -2.65427 0
M  V30 11742 C 1084.52 -2.85982 -2.14357 0
M  V30 11743 S 1086.08 -3.21898 -2.98206 0
M  V30 11744 H 1082.9 -0.589923 -0.396877 0
M  V30 11745 H 1085.5 -1.90025 -0.459409 0
M  V30 11746 H 1084.21 -3.77488 -1.6103 0
M  V30 11747 H 1083.74 -2.65725 -2.90092 0
M  V30 11748 H 1085.75 -2.70095 -4.16249 0
M  V30 11749 N 1084.93 0.6715 -1.42579 0
M  V30 11750 C 1086.17 1.43154 -1.43224 0
M  V30 11751 C 1086.5 1.94436 -0.0498695 0
M  V30 11752 O 1085.76 1.71521 0.942282 0
M  V30 11753 C 1086.05 2.64256 -2.40632 0
M  V30 11754 C 1085.72 2.31497 -3.86937 0
M  V30 11755 C 1084.38 2.22274 -4.26788 0
M  V30 11756 C 1086.73 2.04957 -4.7921 0
M  V30 11757 C 1084.06 1.84642 -5.56888 0
M  V30 11758 C 1086.41 1.68828 -6.09656 0
M  V30 11759 C 1085.08 1.58118 -6.48502 0
M  V30 11760 H 1084.35 0.523838 -0.524094 0
M  V30 11761 H 1087 0.765363 -1.7554 0
M  V30 11762 H 1085.3 3.35921 -2.01654 0
M  V30 11763 H 1087 3.22443 -2.38394 0
M  V30 11764 H 1083.59 2.39578 -3.55387 0
M  V30 11765 H 1087.77 2.11014 -4.49207 0
M  V30 11766 H 1083.03 1.74921 -5.85843 0
M  V30 11767 H 1087.2 1.47319 -6.8064 0
M  V30 11768 H 1084.83 1.28728 -7.49222 0
M  V30 11769 N 1086.4 1.28806 0.908124 0
M  V30 11770 C 1087.65 1.1646 1.66027 0
M  V30 11771 C 1087.98 -0.285025 1.92097 0
M  V30 11772 O 1087.26 -1.20675 1.52538 0
M  V30 11773 C 1087.54 1.96951 3.01467 0
M  V30 11774 C 1087.39 3.50007 2.82515 0
M  V30 11775 C 1088.71 1.78932 4.02084 0
M  V30 11776 H 1085.83 0.424435 0.602515 0
M  V30 11777 H 1088.47 1.58185 1.0525 0
M  V30 11778 H 1086.62 1.61495 3.53344 0
M  V30 11779 H 1088.3 3.95401 2.37605 0
M  V30 11780 H 1086.54 3.75356 2.17463 0
M  V30 11781 H 1087.21 4.01591 3.7872 0
M  V30 11782 H 1089.69 2.09885 3.59287 0
M  V30 11783 H 1088.56 2.37615 4.94803 0
M  V30 11784 H 1088.82 0.742286 4.35824 0
M  V30 11785 N 1087.88 -1.11734 1.11145 0
M  V30 11786 C 1088.81 -2.16847 0.710809 0
M  V30 11787 C 1089.79 -1.59966 -0.291494 0
M  V30 11788 O 1090.98 -1.87554 -0.188645 0
M  V30 11789 C 1088.1 -3.38663 0.0499744 0
M  V30 11790 C 1087.15 -4.14199 1.01693 0
M  V30 11791 S 1087.98 -4.7154 2.53793 0
M  V30 11792 C 1089.14 -5.96682 1.89001 0
M  V30 11793 H 1089.37 -2.50497 1.60121 0
M  V30 11794 H 1086.9 -1.23311 0.929182 0
M  V30 11795 H 1088.86 -4.09212 -0.324959 0
M  V30 11796 H 1087.52 -3.03279 -0.817335 0
M  V30 11797 H 1086.72 -5.01494 0.501933 0
M  V30 11798 H 1086.32 -3.49395 1.33414 0
M  V30 11799 H 1088.61 -6.6634 1.22462 0
M  V30 11800 H 1089.55 -6.52821 2.74282 0
M  V30 11801 H 1089.96 -5.48084 1.35145 0
M  V30 11802 N 1089.36 -0.901303 -1.29284 0
M  V30 11803 C 1090.27 -0.3849 -2.31421 0
M  V30 11804 C 1091.29 0.521163 -1.66012 0
M  V30 11805 O 1092.46 0.410356 -1.97175 0
M  V30 11806 C 1089.53 0.377804 -3.44635 0
M  V30 11807 C 1088.59 -0.559974 -4.25632 0
M  V30 11808 C 1087.82 0.166425 -5.3344 0
M  V30 11809 O 1088.04 1.39012 -5.53202 0
M  V30 11810 O 1086.98 -0.491875 -5.99887 0
M  V30 11811 H 1090.8 -1.2323 -2.77575 0
M  V30 11812 H 1088.39 -0.665683 -1.3375 0
M  V30 11813 H 1090.27 0.809041 -4.13561 0
M  V30 11814 H 1088.95 1.20124 -3.00586 0
M  V30 11815 H 1087.85 -1.04036 -3.59343 0
M  V30 11816 H 1089.19 -1.34987 -4.73328 0
M  V30 11817 N 1090.84 1.42931 -0.663954 0
M  V30 11818 C 1092.07 2.05729 -0.189532 0
M  V30 11819 C 1092.48 1.49914 1.15423 0
M  V30 11820 O 1091.82 0.629324 1.72584 0
M  V30 11821 C 1091.88 3.59482 -0.0354748 0
M  V30 11822 C 1091.54 4.37935 -1.30622 0
M  V30 11823 C 1092.54 4.69297 -2.23733 0
M  V30 11824 C 1090.23 4.77761 -1.5508 0
M  V30 11825 C 1092.22 5.39407 -3.39586 0
M  V30 11826 C 1089.91 5.47613 -2.71224 0
M  V30 11827 C 1090.91 5.7836 -3.63302 0
M  V30 11828 O 1090.59 6.46783 -4.77417 0
M  V30 11829 H 1090.33 0.669678 -0.0922342 0
M  V30 11830 H 1092.88 1.84243 -0.907943 0
M  V30 11831 H 1091.11 3.79584 0.738412 0
M  V30 11832 H 1092.8 4.03947 0.397679 0
M  V30 11833 H 1093.56 4.39038 -2.06084 0
M  V30 11834 H 1089.44 4.53229 -0.842863 0
M  V30 11835 H 1092.99 5.63323 -4.11476 0
M  V30 11836 H 1088.88 5.77289 -2.88804 0
M  V30 11837 H 1089.65 6.6527 -4.76821 0
M  V30 11838 N 1092.32 0.406567 1.52266 0
M  V30 11839 C 1093.28 -0.408251 2.25535 0
M  V30 11840 C 1094.28 -0.975795 1.27808 0
M  V30 11841 O 1095.47 -0.855077 1.5177 0
M  V30 11842 C 1092.6 -1.57443 3.02365 0
M  V30 11843 H 1093.79 0.233459 2.9899 0
M  V30 11844 H 1091.35 0.159032 1.55489 0
M  V30 11845 H 1092.08 -2.25308 2.33252 0
M  V30 11846 H 1091.87 -1.17399 3.74112 0
M  V30 11847 H 1093.36 -2.15088 3.57948 0
M  V30 11848 N 1093.79 -1.57004 0.136909 0
M  V30 11849 C 1094.76 -2.15066 -0.792419 0
M  V30 11850 C 1095.76 -1.08991 -1.18226 0
M  V30 11851 O 1096.95 -1.34681 -1.10484 0
M  V30 11852 C 1094.08 -2.70554 -2.07397 0
M  V30 11853 H 1095.27 -2.98519 -0.28752 0
M  V30 11854 H 1092.83 -1.55895 -0.112469 0
M  V30 11855 H 1093.56 -1.90739 -2.62277 0
M  V30 11856 H 1093.35 -3.48149 -1.80374 0
M  V30 11857 H 1094.84 -3.15322 -2.73792 0
M  V30 11858 N 1095.27 0.136881 -1.57004 0
M  V30 11859 C 1096.52 0.8461 -1.83536 0
M  V30 11860 C 1096.84 1.81246 -0.71937 0
M  V30 11861 O 1096.11 1.94191 0.258161 0
M  V30 11862 H 1094.69 0.315446 -0.677128 0
M  V30 11863 H 1097.35 0.128469 -1.94476 0
M  V30 11864 H 1096.45 1.40221 -2.78827 0
M  V30 11865 N 1096.75 1.52266 0.40654 0
M  V30 11866 C 1098 1.66123 1.15097 0
M  V30 11867 C 1098.32 0.394836 1.90961 0
M  V30 11868 O 1097.59 -0.590349 1.86793 0
M  V30 11869 H 1096.17 0.612317 0.427875 0
M  V30 11870 H 1098.83 1.89318 0.463106 0
M  V30 11871 H 1097.93 2.50351 1.86361 0
M  V30 11872 N 1098.23 -0.663929 1.42933 0
M  V30 11873 C 1099.51 -1.42054 1.34462 0
M  V30 11874 C 1099.89 -2.11096 -0.0127801 0
M  V30 11875 O 1099.23 -2.04027 -1.02884 0
M  V30 11876 C 1099.44 -2.41406 2.5204 0
M  V30 11877 C 1100.79 -3.05726 2.94647 0
M  V30 11878 O 1101.82 -2.51733 2.52009 0
M  V30 11879 O 1100.67 -4.03593 3.68477 0
M  V30 11880 H 1097.77 -0.634149 0.530834 0
M  V30 11881 H 1100.31 -0.691738 1.54962 0
M  V30 11882 H 1099.09 -1.89263 3.42484 0
M  V30 11883 H 1098.71 -3.21752 2.33584 0
M  V30 11884 N 1099.71 -1.29285 -0.901281 0
M  V30 11885 C 1100.64 -1.16832 -2.0217 0
M  V30 11886 C 1101.62 -0.0629265 -1.69984 0
M  V30 11887 O 1102.8 -0.242123 -1.92685 0
M  V30 11888 C 1099.93 -0.842406 -3.36929 0
M  V30 11889 C 1098.89 -1.90394 -3.8332 0
M  V30 11890 C 1098.21 -1.43138 -5.15185 0
M  V30 11891 C 1099.51 -3.31254 -4.03817 0
M  V30 11892 H 1101.21 -2.10562 -2.12847 0
M  V30 11893 H 1098.75 -1.01375 -1.0227 0
M  V30 11894 H 1100.71 -0.741999 -4.14816 0
M  V30 11895 H 1099.43 0.130598 -3.26339 0
M  V30 11896 H 1098.09 -1.99371 -3.07647 0
M  V30 11897 H 1097.74 -0.447091 -5.01009 0
M  V30 11898 H 1097.44 -2.14129 -5.47195 0
M  V30 11899 H 1098.96 -1.34444 -5.95615 0
M  V30 11900 H 1100.37 -3.25129 -4.72191 0
M  V30 11901 H 1098.77 -4.00189 -4.47178 0
M  V30 11902 H 1099.84 -3.74349 -3.08206 0
M  V30 11903 N 1101.18 1.11143 -1.11736 0
M  V30 11904 C 1102.12 2.16467 -0.722299 0
M  V30 11905 C 1103.1 1.60118 0.283006 0
M  V30 11906 O 1104.28 1.87651 0.178696 0
M  V30 11907 C 1101.41 3.38632 -0.0679339 0
M  V30 11908 C 1100.45 4.13654 -1.03888 0
M  V30 11909 S 1101.29 4.70187 -2.5629 0
M  V30 11910 C 1102.44 5.95671 -1.92163 0
M  V30 11911 H 1102.67 2.49644 -1.61447 0
M  V30 11912 H 1100.21 1.22816 -0.935708 0
M  V30 11913 H 1102.17 4.09378 0.303253 0
M  V30 11914 H 1100.83 3.03709 0.80124 0
M  V30 11915 H 1100.02 5.01221 -0.528522 0
M  V30 11916 H 1099.62 3.48683 -1.35265 0
M  V30 11917 H 1101.91 6.65681 -1.25994 0
M  V30 11918 H 1102.86 6.51357 -2.77741 0
M  V30 11919 H 1103.26 5.47359 -1.3805 0
M  V30 11920 N 1102.66 0.908147 1.28804 0
M  V30 11921 C 1103.6 0.336764 2.25701 0
M  V30 11922 C 1104.57 -0.555849 1.52804 0
M  V30 11923 O 1105.76 -0.500763 1.81727 0
M  V30 11924 C 1102.88 -0.519154 3.34698 0
M  V30 11925 C 1101.93 0.307304 4.25391 0
M  V30 11926 S 1102.76 1.71048 5.07447 0
M  V30 11927 C 1103.92 0.861715 6.1994 0
M  V30 11928 H 1104.15 1.15806 2.73818 0
M  V30 11929 H 1101.69 0.709033 1.37157 0
M  V30 11930 H 1103.64 -1.00718 3.97952 0
M  V30 11931 H 1102.3 -1.31477 2.85259 0
M  V30 11932 H 1101.5 -0.346906 5.02805 0
M  V30 11933 H 1101.1 0.728777 3.66831 0
M  V30 11934 H 1103.39 0.088851 6.77442 0
M  V30 11935 H 1104.33 1.60821 6.89596 0
M  V30 11936 H 1104.74 0.412366 5.62992 0
M  V30 11937 N 1104.14 -1.42577 0.671525 0
M  V30 11938 C 1105.09 -2.27978 -0.0315286 0
M  V30 11939 C 1106.07 -1.40907 -0.776796 0
M  V30 11940 O 1107.27 -1.64385 -0.656248 0
M  V30 11941 C 1104.4 -3.28884 -0.9844 0
M  V30 11942 C 1103.48 -4.23439 -0.236647 0
M  V30 11943 N 1103.87 -5.00107 0.756714 0
M  V30 11944 C 1102.17 -4.43457 -0.475551 0
M  V30 11945 C 1102.87 -5.69141 1.20221 0
M  V30 11946 N 1101.85 -5.40983 0.532802 0
M  V30 11947 H 1105.65 -2.84678 0.730455 0
M  V30 11948 H 1103.16 -1.54501 0.500317 0
M  V30 11949 H 1105.16 -3.88864 -1.50302 0
M  V30 11950 H 1103.82 -2.73745 -1.74625 0
M  V30 11951 H 1104.83 -5.05285 1.13613 0
M  V30 11952 H 1101.51 -3.99364 -1.21715 0
M  V30 11953 H 1102.9 -6.40653 2.02517 0
M  V30 11954 N 1105.62 -0.414636 -1.52048 0
M  V30 11955 C 1106.87 0.16073 -2.01059 0
M  V30 11956 C 1107.18 1.45753 -1.30443 0
M  V30 11957 O 1108.39 2.11448 -1.703 0
M  V30 11958 C 1106.84 0.336993 -3.58319 0
M  V30 11959 C 1106.45 -0.948037 -4.37854 0
M  V30 11960 C 1108.19 0.867353 -4.15545 0
M  V30 11961 C 1106.1 -0.738662 -5.86769 0
M  V30 11962 H 1105.03 0.0638419 -0.751292 0
M  V30 11963 H 1107.68 -0.540925 -1.75346 0
M  V30 11964 H 1106.06 1.10111 -3.80383 0
M  V30 11965 H 1107.24 -1.71873 -4.27547 0
M  V30 11966 H 1105.55 -1.40522 -3.91972 0
M  V30 11967 H 1108.15 1.04012 -5.24486 0
M  V30 11968 H 1108.49 1.84358 -3.73253 0
M  V30 11969 H 1109.03 0.162148 -3.97469 0
M  V30 11970 H 1105.77 -1.6866 -6.3343 0
M  V30 11971 H 1105.29 -0.00736294 -5.998 0
M  V30 11972 H 1106.96 -0.382978 -6.45866 0
M  V30 11973 N 1107.1 1.56929 -0.145233 0
M  V30 11974 C 1108.05 2.13246 0.806846 0
M  V30 11975 C 1109.03 1.05984 1.21063 0
M  V30 11976 O 1110.22 1.32165 1.17734 0
M  V30 11977 C 1107.35 2.75622 2.04663 0
M  V30 11978 C 1106.44 3.90006 1.66603 0
M  V30 11979 N 1106.83 4.95946 0.993545 0
M  V30 11980 C 1105.13 4.0068 1.95886 0
M  V30 11981 C 1105.83 5.76032 0.810087 0
M  V30 11982 N 1104.8 5.26739 1.34339 0
M  V30 11983 H 1108.61 2.92527 0.283806 0
M  V30 11984 H 1106.12 1.62302 0.0563676 0
M  V30 11985 H 1108.12 3.14329 2.73867 0
M  V30 11986 H 1106.78 1.97815 2.57487 0
M  V30 11987 H 1107.79 5.13748 0.654508 0
M  V30 11988 H 1104.46 3.33946 2.50572 0
M  V30 11989 H 1105.85 6.71315 0.280209 0
M  V30 11990 N 1108.58 -0.128553 1.57075 0
M  V30 11991 C 1109.8 -0.85245 1.88523 0
M  V30 11992 C 1110.22 -1.73886 0.735459 0
M  V30 11993 O 1109.58 -1.80114 -0.294113 0
M  V30 11994 C 1109.63 -1.69384 3.19361 0
M  V30 11995 O 1109.35 -0.84313 4.2991 0
M  V30 11996 C 1110.85 -2.52373 3.64449 0
M  V30 11997 H 1108.07 -0.245556 0.624454 0
M  V30 11998 H 1110.61 -0.115807 2.04172 0
M  V30 11999 H 1108.77 -2.38335 3.0541 0
M  V30 12000 H 1109.18 -1.42255 5.0484 0
M  V30 12001 H 1110.66 -3.06955 4.58784 0
M  V30 12002 H 1111.13 -3.29283 2.90636 0
M  V30 12003 H 1111.74 -1.88681 3.81155 0
M  V30 12004 N 1110.05 -1.5248 -0.398459 0
M  V30 12005 C 1111.33 -1.57634 -1.15805 0
M  V30 12006 C 1111.71 -0.363785 -2.07942 0
M  V30 12007 O 1111.06 0.648598 -2.19101 0
M  V30 12008 C 1111.27 -2.91042 -1.92602 0
M  V30 12009 C 1112.62 -3.44433 -2.48296 0
M  V30 12010 O 1113.64 -2.92853 -2.0277 0
M  V30 12011 O 1112.5 -4.34529 -3.31432 0
M  V30 12012 H 1109.59 -0.63539 -0.529347 0
M  V30 12013 H 1112.14 -1.64812 -0.404376 0
M  V30 12014 H 1110.91 -3.7074 -1.25169 0
M  V30 12015 H 1110.53 -2.87206 -2.74952 0
M  V30 12016 N 1111.53 0.65634 -1.43283 0
M  V30 12017 C 1112.78 1.41837 -1.44949 0
M  V30 12018 C 1113.11 1.94065 -0.0723212 0
M  V30 12019 O 1112.39 1.72092 0.906346 0
M  V30 12020 C 1112.67 2.60206 -2.48927 0
M  V30 12021 C 1112.52 2.1349 -3.95907 0
M  V30 12022 C 1113.84 3.62421 -2.49678 0
M  V30 12023 H 1110.96 0.514398 -0.527792 0
M  V30 12024 H 1113.6 0.74435 -1.74813 0
M  V30 12025 H 1111.75 3.17708 -2.23592 0
M  V30 12026 H 1113.42 1.61012 -4.32288 0
M  V30 12027 H 1111.67 1.4489 -4.08888 0
M  V30 12028 H 1112.34 2.98596 -4.64268 0
M  V30 12029 H 1114.81 3.14671 -2.72252 0
M  V30 12030 H 1113.69 4.42798 -3.24378 0
M  V30 12031 H 1113.95 4.14802 -1.52944 0
M  V30 12032 N 1113.01 1.29761 0.894412 0
M  V30 12033 C 1114.26 1.18039 1.64539 0
M  V30 12034 C 1114.58 -0.26697 1.92659 0
M  V30 12035 O 1113.84 -1.20865 1.53916 0
M  V30 12036 C 1114.14 1.94458 2.99868 0
M  V30 12037 C 1113.8 3.44143 2.91336 0
M  V30 12038 C 1112.47 3.84963 2.88716 0
M  V30 12039 C 1114.82 4.39503 2.80154 0
M  V30 12040 C 1112.15 5.19451 2.72741 0
M  V30 12041 C 1114.5 5.74088 2.65718 0
M  V30 12042 C 1113.16 6.14159 2.61467 0
M  V30 12043 H 1112.43 0.431936 0.60209 0
M  V30 12044 H 1115.08 1.60758 1.04063 0
M  V30 12045 H 1113.38 1.44346 3.64241 0
M  V30 12046 H 1115.08 1.82788 3.56917 0
M  V30 12047 H 1111.67 3.11699 2.9418 0
M  V30 12048 H 1115.86 4.08915 2.81251 0
M  V30 12049 H 1111.11 5.49602 2.67858 0
M  V30 12050 H 1115.29 6.47625 2.56038 0
M  V30 12051 H 1112.91 7.18317 2.48847 0
M  V30 12052 N 1114.49 -1.10549 1.12324 0
M  V30 12053 C 1115.71 -1.8681 0.900927 0
M  V30 12054 C 1116.14 -1.80049 -0.54443 0
M  V30 12055 O 1115.5 -1.16957 -1.38531 0
M  V30 12056 C 1115.54 -3.33197 1.37883 0
M  V30 12057 O 1114.65 -4.08628 0.556529 0
M  V30 12058 H 1113.99 -0.579709 0.32378 0
M  V30 12059 H 1116.52 -1.39678 1.49503 0
M  V30 12060 H 1116.53 -3.84047 1.37739 0
M  V30 12061 H 1115.2 -3.37435 2.43127 0
M  V30 12062 H 1113.78 -3.67627 0.62486 0
M  V30 12063 N 1115.97 -0.914965 -1.28321 0
M  V30 12064 C 1116.88 -0.409424 -2.31 0
M  V30 12065 C 1117.89 0.503526 -1.66555 0
M  V30 12066 O 1119.07 0.38942 -1.97599 0
M  V30 12067 C 1116.13 0.34123 -3.45017 0
M  V30 12068 C 1115.19 -0.605087 -4.25014 0
M  V30 12069 C 1114.43 0.109837 -5.33587 0
M  V30 12070 O 1114.65 1.33136 -5.54645 0
M  V30 12071 O 1113.58 -0.555474 -5.99331 0
M  V30 12072 H 1117.41 -1.26167 -2.76253 0
M  V30 12073 H 1114.99 -0.679831 -1.33036 0
M  V30 12074 H 1116.88 0.765132 -4.14396 0
M  V30 12075 H 1115.55 1.16929 -3.01843 0
M  V30 12076 H 1114.46 -1.07841 -3.58219 0
M  V30 12077 H 1115.79 -1.39999 -4.7187 0
M  V30 12078 N 1117.44 1.42219 -0.679077 0
M  V30 12079 C 1118.85 1.8459 -0.279877 0
M  V30 12080 C 1119.21 1.56839 1.17881 0
M  V30 12081 O 1118.33 1.03039 1.90294 0
M  V30 12082 C 1118.93 3.35072 -0.501185 0
M  V30 12083 C 1117.48 3.76076 -0.156065 0
M  V30 12084 C 1116.63 2.65763 -0.791549 0
M  V30 12085 H 1119.58 1.32005 -0.880932 0
M  V30 12086 H 1119.6 3.79708 0.245349 0
M  V30 12087 H 1119.12 3.55239 -1.56291 0
M  V30 12088 H 1117.22 3.61516 0.90205 0
M  V30 12089 H 1117.33 4.75334 -0.599572 0
M  V30 12090 H 1115.69 2.53726 -0.222514 0
M  V30 12091 H 1116.48 2.88751 -1.85682 0
M  V30 12092 N 1118.92 0.422693 1.51826 0
M  V30 12093 C 1120.34 0.0742364 1.59427 0
M  V30 12094 C 1120.54 -1.41491 1.43466 0
M  V30 12095 O 1119.59 -2.18326 1.26846 0
M  V30 12096 C 1120.91 0.581272 2.95028 0
M  V30 12097 C 1122.45 0.54043 3.08299 0
M  V30 12098 C 1122.93 1.0242 4.46401 0
M  V30 12099 N 1124.42 0.981576 4.5268 0
M  V30 12100 C 1125.16 1.32693 5.57835 0
M  V30 12101 N 1124.65 1.74441 6.70479 0
M  V30 12102 N 1126.44 1.24603 5.48115 0
M  V30 12103 H 1118.6 1.39178 1.60447 0
M  V30 12104 H 1120.86 0.572607 0.75553 0
M  V30 12105 H 1120.56 1.62261 3.12032 0
M  V30 12106 H 1120.44 -0.00176969 3.772 0
M  V30 12107 H 1122.83 -0.491895 2.90971 0
M  V30 12108 H 1122.91 1.15969 2.28002 0
M  V30 12109 H 1122.55 2.05491 4.64474 0
M  V30 12110 H 1122.48 0.381613 5.25215 0
M  V30 12111 H 1124.97 0.674808 3.71826 0
M  V30 12112 H 1125.28 1.99068 7.46721 0
M  V30 12113 H 1123.63 1.78356 6.71725 0
M  V30 12114 H 1126.82 0.918641 4.58997 0
M  V30 12115 H 1126.99 1.51847 6.29958 0
M  V30 12116 N 1120.4 -1.5685 0.153553 0
M  V30 12117 C 1121.36 -2.15894 -0.769564 0
M  V30 12118 C 1122.36 -1.10239 -1.17064 0
M  V30 12119 O 1123.55 -1.35845 -1.09049 0
M  V30 12120 C 1120.68 -2.72738 -2.04516 0
M  V30 12121 H 1121.88 -2.98807 -0.255842 0
M  V30 12122 H 1119.43 -1.56005 -0.0959279 0
M  V30 12123 H 1120.17 -1.9351 -2.60239 0
M  V30 12124 H 1119.95 -3.50042 -1.76672 0
M  V30 12125 H 1121.44 -3.18208 -2.70432 0
M  V30 12126 N 1121.88 0.120221 -1.57141 0
M  V30 12127 C 1123.12 0.829449 -1.85062 0
M  V30 12128 C 1123.46 1.79585 -0.739116 0
M  V30 12129 O 1122.73 1.92819 0.255147 0
M  V30 12130 C 1123.01 1.58042 -3.23566 0
M  V30 12131 C 1122.87 0.633706 -4.45314 0
M  V30 12132 C 1124.19 2.53688 -3.59625 0
M  V30 12133 H 1121.31 0.300086 -0.67314 0
M  V30 12134 H 1123.95 0.0937393 -1.89769 0
M  V30 12135 H 1122.1 2.20758 -3.19684 0
M  V30 12136 H 1123.77 0.0154836 -4.61297 0
M  V30 12137 H 1122.01 -0.054846 -4.33765 0
M  V30 12138 H 1122.68 1.19577 -5.38893 0
M  V30 12139 H 1125.16 2.01078 -3.6429 0
M  V30 12140 H 1124.04 3.03265 -4.57516 0
M  V30 12141 H 1124.3 3.36296 -2.8698 0
M  V30 12142 N 1123.36 1.52689 0.390367 0
M  V30 12143 C 1124.6 1.67666 1.13553 0
M  V30 12144 C 1124.93 0.415903 1.90001 0
M  V30 12145 O 1124.19 -0.601664 1.86222 0
M  V30 12146 C 1124.49 2.86177 2.14096 0
M  V30 12147 C 1124.15 4.23671 1.54316 0
M  V30 12148 C 1122.81 4.61066 1.37739 0
M  V30 12149 C 1125.17 5.09278 1.1084 0
M  V30 12150 C 1122.49 5.81727 0.76231 0
M  V30 12151 C 1124.85 6.30562 0.507433 0
M  V30 12152 C 1123.51 6.66689 0.328945 0
M  V30 12153 H 1122.78 0.613533 0.415521 0
M  V30 12154 H 1125.43 1.8683 0.420339 0
M  V30 12155 H 1123.73 2.61424 2.9183 0
M  V30 12156 H 1125.43 2.9496 2.7166 0
M  V30 12157 H 1122.02 3.94214 1.68207 0
M  V30 12158 H 1126.2 4.80957 1.2245 0
M  V30 12159 H 1121.46 6.08327 0.612208 0
M  V30 12160 H 1125.63 6.96211 0.162248 0
M  V30 12161 H 1123.26 7.60052 -0.149748 0
M  V30 12162 N 1124.83 -0.648732 1.43629 0
M  V30 12163 C 1126.06 -1.43412 1.48716 0
M  V30 12164 C 1126.47 -1.88908 0.105051 0
M  V30 12165 O 1125.82 -1.60373 -0.895896 0
M  V30 12166 C 1125.88 -2.69906 2.37468 0
M  V30 12167 C 1125.54 -2.46321 3.84935 0
M  V30 12168 C 1126.54 -2.09259 4.75927 0
M  V30 12169 C 1124.22 -2.60506 4.29467 0
M  V30 12170 C 1126.22 -1.86686 6.09448 0
M  V30 12171 C 1123.9 -2.37548 5.6304 0
M  V30 12172 C 1124.9 -2.00694 6.52848 0
M  V30 12173 O 1124.59 -1.77979 7.83951 0
M  V30 12174 H 1124.32 -0.446883 0.507219 0
M  V30 12175 H 1126.88 -0.802218 1.89086 0
M  V30 12176 H 1125.11 -3.35672 1.91993 0
M  V30 12177 H 1126.8 -3.31867 2.33707 0
M  V30 12178 H 1127.56 -1.97872 4.428 0
M  V30 12179 H 1123.44 -2.88165 3.59836 0
M  V30 12180 H 1126.98 -1.57844 6.79508 0
M  V30 12181 H 1122.88 -2.48539 5.95734 0
M  V30 12182 H 1123.65 -1.92368 7.95573 0
M  V30 12183 N 1126.31 -1.30234 -0.887518 0
M  V30 12184 C 1127.28 -1.16384 -1.97452 0
M  V30 12185 C 1128.28 -0.0957942 -1.60514 0
M  V30 12186 O 1129.47 -0.343706 -1.70776 0
M  V30 12187 C 1126.6 -0.782514 -3.31797 0
M  V30 12188 H 1127.79 -2.12952 -2.11167 0
M  V30 12189 H 1125.34 -1.13594 -1.07359 0
M  V30 12190 H 1126.08 0.18278 -3.23785 0
M  V30 12191 H 1125.86 -1.55434 -3.59976 0
M  V30 12192 H 1127.35 -0.709011 -4.11537 0
M  V30 12193 N 1127.79 1.09952 -1.12909 0
M  V30 12194 C 1128.75 2.14615 -0.804548 0
M  V30 12195 C 1129.75 1.5975 0.18345 0
M  V30 12196 O 1130.94 1.74147 -0.0429623 0
M  V30 12197 C 1128.08 3.40333 -0.196471 0
M  V30 12198 H 1129.27 2.44835 -1.73193 0
M  V30 12199 H 1126.82 1.25399 -0.932997 0
M  V30 12200 H 1127.56 3.15735 0.740388 0
M  V30 12201 H 1127.34 3.81444 -0.907886 0
M  V30 12202 H 1128.83 4.17598 0.0139264 0
M  V30 12203 N 1129.27 0.921757 1.27833 0
M  V30 12204 C 1130.51 0.566288 1.96399 0
M  V30 12205 C 1130.87 -0.875149 1.70895 0
M  V30 12206 O 1132.07 -1.3386 2.33099 0
M  V30 12207 C 1130.34 0.876329 3.4649 0
M  V30 12208 S 1131.9 0.628481 4.34276 0
M  V30 12209 H 1128.72 0.209246 0.679512 0
M  V30 12210 H 1131.32 1.18892 1.55193 0
M  V30 12211 H 1130.03 1.92319 3.62549 0
M  V30 12212 H 1129.56 0.242658 3.92651 0
M  V30 12213 H 1131.57 -0.516493 4.93505 0
M  V30 12214 N 1130.75 -1.41857 0.686609 0
M  V30 12215 C 1131.99 -2.01666 0.214118 0
M  V30 12216 C 1132.33 -1.5422 -1.18025 0
M  V30 12217 O 1131.6 -0.749482 -1.7948 0
M  V30 12218 C 1131.88 -3.59147 0.261841 0
M  V30 12219 C 1131.74 -4.16742 1.69251 0
M  V30 12220 C 1133.06 -4.38427 -0.383378 0
M  V30 12221 H 1130.17 -0.732724 0.0792785 0
M  V30 12222 H 1132.82 -1.68724 0.873633 0
M  V30 12223 H 1130.97 -3.87342 -0.29971 0
M  V30 12224 H 1132.64 -3.99456 2.30722 0
M  V30 12225 H 1130.88 -3.72124 2.2295 0
M  V30 12226 H 1131.55 -5.25894 1.6775 0
M  V30 12227 H 1134.03 -4.15992 0.0947701 0
M  V30 12228 H 1132.9 -5.4797 -0.319401 0
M  V30 12229 H 1133.17 -4.172 -1.46276 0
M  V30 12230 N 1132.22 -0.430739 -1.51599 0
M  V30 12231 C 1133.47 0.138133 -2.02329 0
M  V30 12232 C 1133.8 1.42934 -1.31466 0
M  V30 12233 O 1133.08 1.89743 -0.427551 0
M  V30 12234 C 1133.36 0.363677 -3.58259 0
M  V30 12235 C 1133.21 -0.94572 -4.39746 0
M  V30 12236 C 1134.53 1.13637 -4.25176 0
M  V30 12237 H 1131.65 0.0487287 -0.735387 0
M  V30 12238 H 1134.29 -0.568444 -1.81297 0
M  V30 12239 H 1132.44 0.965552 -3.7631 0
M  V30 12240 H 1134.12 -1.58107 -4.33359 0
M  V30 12241 H 1132.36 -1.55183 -4.05094 0
M  V30 12242 H 1133.03 -0.742031 -5.4699 0
M  V30 12243 H 1135.51 0.626608 -4.11355 0
M  V30 12244 H 1134.38 1.26294 -5.34173 0
M  V30 12245 H 1134.64 2.16273 -3.85588 0
M  V30 12246 N 1133.7 1.56767 -0.161869 0
M  V30 12247 C 1134.63 2.20511 0.767918 0
M  V30 12248 C 1135.61 1.15783 1.24612 0
M  V30 12249 O 1136.8 1.44179 1.301 0
M  V30 12250 C 1133.93 2.83844 2.00125 0
M  V30 12251 C 1132.88 3.94528 1.65926 0
M  V30 12252 C 1132.21 4.44866 2.96646 0
M  V30 12253 C 1133.51 5.14583 0.894497 0
M  V30 12254 H 1135.2 2.98464 0.236607 0
M  V30 12255 H 1132.75 1.43561 0.112363 0
M  V30 12256 H 1134.7 3.27109 2.65664 0
M  V30 12257 H 1133.43 2.03246 2.55654 0
M  V30 12258 H 1132.08 3.51904 1.02759 0
M  V30 12259 H 1131.73 3.61071 3.50196 0
M  V30 12260 H 1131.43 5.19531 2.74521 0
M  V30 12261 H 1132.96 4.90812 3.6323 0
M  V30 12262 H 1134.37 5.54601 1.45228 0
M  V30 12263 H 1132.77 5.95105 0.772636 0
M  V30 12264 H 1133.84 4.84773 -0.110986 0
M  V30 12265 N 1135.18 -0.111886 1.57202 0
M  V30 12266 C 1136.43 -0.816794 1.84859 0
M  V30 12267 C 1136.75 -1.80079 0.748113 0
M  V30 12268 O 1136.02 -1.94578 -0.227235 0
M  V30 12269 H 1134.6 -0.304633 0.682061 0
M  V30 12270 H 1137.26 -0.097513 1.94656 0
M  V30 12271 H 1136.36 -1.35768 2.81022 0
M  V30 12272 N 1136.66 -1.52894 -0.382264 0
M  V30 12273 C 1137.59 -1.81122 -1.47367 0
M  V30 12274 C 1138.57 -0.663653 -1.56619 0
M  V30 12275 O 1139.75 -0.911898 -1.71459 0
M  V30 12276 C 1136.88 -1.98615 -2.84902 0
M  V30 12277 C 1135.84 -3.14328 -2.90485 0
M  V30 12278 C 1135.16 -3.17086 -4.30535 0
M  V30 12279 C 1136.46 -4.53263 -2.59519 0
M  V30 12280 H 1138.16 -2.72518 -1.23993 0
M  V30 12281 H 1135.7 -1.3113 -0.595049 0
M  V30 12282 H 1137.66 -2.16946 -3.61265 0
M  V30 12283 H 1136.38 -1.03915 -3.09628 0
M  V30 12284 H 1135.04 -2.95791 -2.16572 0
M  V30 12285 H 1134.69 -2.20055 -4.52311 0
M  V30 12286 H 1134.39 -3.94821 -4.3519 0
M  V30 12287 H 1135.91 -3.3758 -5.08795 0
M  V30 12288 H 1137.33 -4.71867 -3.25598 0
M  V30 12289 H 1135.72 -5.33115 -2.75514 0
M  V30 12290 H 1136.79 -4.59516 -1.54831 0
M  V30 12291 N 1138.14 0.641106 -1.43971 0
M  V30 12292 C 1139.07 1.76645 -1.46046 0
M  V30 12293 C 1140.08 1.58881 -0.355049 0
M  V30 12294 O 1141.27 1.67379 -0.620207 0
M  V30 12295 C 1138.37 3.14237 -1.26918 0
M  V30 12296 C 1137.54 3.5855 -2.50521 0
M  V30 12297 C 1136.6 4.74986 -2.26438 0
M  V30 12298 O 1135.63 4.83807 -2.99866 0
M  V30 12299 N 1136.83 5.66016 -1.28866 0
M  V30 12300 H 1139.6 1.75339 -2.43056 0
M  V30 12301 H 1137.16 0.82535 -1.39282 0
M  V30 12302 H 1139.15 3.89837 -1.0867 0
M  V30 12303 H 1137.72 3.10244 -0.383082 0
M  V30 12304 H 1136.94 2.73265 -2.84112 0
M  V30 12305 H 1138.23 3.84906 -3.32754 0
M  V30 12306 H 1137.63 5.61574 -0.682018 0
M  V30 12307 H 1136.18 6.41286 -1.16599 0
M  V30 12308 N 1139.62 1.30703 0.880598 0
M  V30 12309 C 1140.85 1.22536 1.66339 0
M  V30 12310 C 1141.25 -0.213507 1.87991 0
M  V30 12311 O 1140.6 -1.15236 1.43061 0
M  V30 12312 C 1140.66 1.88798 3.05934 0
M  V30 12313 C 1140.32 3.38131 3.07435 0
M  V30 12314 C 1141.32 4.34053 2.86171 0
M  V30 12315 C 1139 3.79651 3.28893 0
M  V30 12316 C 1141 5.69469 2.86328 0
M  V30 12317 C 1138.69 5.15182 3.2868 0
M  V30 12318 C 1139.68 6.09902 3.07423 0
M  V30 12319 O 1139.37 7.42957 3.07034 0
M  V30 12320 H 1139.1 0.425018 0.525677 0
M  V30 12321 H 1141.66 1.72939 1.1082 0
M  V30 12322 H 1139.89 1.3293 3.63134 0
M  V30 12323 H 1141.58 1.74691 3.66385 0
M  V30 12324 H 1142.34 4.03307 2.69385 0
M  V30 12325 H 1138.22 3.06365 3.44473 0
M  V30 12326 H 1141.77 6.43375 2.69655 0
M  V30 12327 H 1137.66 5.45567 3.45002 0
M  V30 12328 H 1138.43 7.52 3.23169 0
M  V30 12329 N 1141.09 -1.09351 1.1349 0
M  V30 12330 C 1142.02 -2.18037 0.835588 0
M  V30 12331 C 1143 -1.68856 -0.205373 0
M  V30 12332 O 1144.19 -1.94094 -0.0641357 0
M  V30 12333 C 1141.32 -3.45987 0.301661 0
M  V30 12334 C 1140.27 -4.08507 1.27696 0
M  V30 12335 C 1139.6 -5.31292 0.602758 0
M  V30 12336 C 1140.9 -4.50916 2.63575 0
M  V30 12337 H 1142.59 -2.43332 1.74441 0
M  V30 12338 H 1140.14 -1.1695 0.840166 0
M  V30 12339 H 1142.09 -4.21324 0.079928 0
M  V30 12340 H 1140.82 -3.20217 -0.642552 0
M  V30 12341 H 1139.48 -3.3519 1.4847 0
M  V30 12342 H 1139.12 -5.01802 -0.346953 0
M  V30 12343 H 1138.82 -5.74075 1.25345 0
M  V30 12344 H 1140.35 -6.09351 0.390325 0
M  V30 12345 H 1141.76 -5.17474 2.46765 0
M  V30 12346 H 1140.16 -5.04586 3.24827 0
M  V30 12347 H 1141.23 -3.63279 3.2118 0
M  V30 12348 N 1142.57 -0.928524 -1.27343 0
M  V30 12349 C 1143.52 -0.399267 -2.24477 0
M  V30 12350 C 1144.51 0.496927 -1.53034 0
M  V30 12351 O 1145.7 0.334237 -1.73816 0
M  V30 12352 C 1142.83 0.346059 -3.41551 0
M  V30 12353 C 1141.91 -0.566699 -4.20297 0
M  V30 12354 N 1142.3 -1.6869 -4.76841 0
M  V30 12355 C 1140.6 -0.369865 -4.44464 0
M  V30 12356 C 1141.3 -2.25466 -5.36228 0
M  V30 12357 N 1140.28 -1.54414 -5.21207 0
M  V30 12358 H 1144.08 -1.25456 -2.65778 0
M  V30 12359 H 1141.59 -0.782894 -1.42283 0
M  V30 12360 H 1143.59 0.742171 -4.10241 0
M  V30 12361 H 1142.25 1.19827 -3.01781 0
M  V30 12362 H 1143.26 -2.06926 -4.74765 0
M  V30 12363 H 1139.94 0.441619 -4.15158 0
M  V30 12364 H 1141.33 -3.19779 -5.90924 0
M  V30 12365 N 1144.05 1.41491 -0.694123 0
M  V30 12366 C 1144.96 2.34583 -0.0283414 0
M  V30 12367 C 1145.98 1.5615 0.767662 0
M  V30 12368 O 1147.15 1.88637 0.705556 0
M  V30 12369 C 1144.22 3.34876 0.897726 0
M  V30 12370 C 1143.28 4.29197 0.0940905 0
M  V30 12371 C 1142.51 5.24699 0.976051 0
M  V30 12372 O 1142.73 5.25613 2.21556 0
M  V30 12373 O 1141.67 6.00387 0.426503 0
M  V30 12374 H 1145.49 2.93092 -0.795656 0
M  V30 12375 H 1143.08 1.4232 -0.45445 0
M  V30 12376 H 1144.96 3.96438 1.4288 0
M  V30 12377 H 1143.64 2.78812 1.64456 0
M  V30 12378 H 1142.54 3.70988 -0.481552 0
M  V30 12379 H 1143.88 4.88355 -0.614045 0
M  V30 12380 N 1145.53 0.438773 1.51369 0
M  V30 12381 C 1146.48 -0.389921 2.24641 0
M  V30 12382 C 1147.46 -0.988871 1.26926 0
M  V30 12383 O 1148.65 -0.906774 1.52009 0
M  V30 12384 C 1145.78 -1.48972 3.09293 0
M  V30 12385 C 1144.87 -0.900093 4.14438 0
M  V30 12386 N 1145.26 -0.0397688 5.05784 0
M  V30 12387 C 1143.56 -1.16752 4.30447 0
M  V30 12388 C 1144.26 0.291527 5.80969 0
M  V30 12389 N 1143.23 -0.325219 5.42626 0
M  V30 12390 H 1147.04 0.273335 2.92626 0
M  V30 12391 H 1144.55 0.250934 1.6045 0
M  V30 12392 H 1146.55 -2.09627 3.60364 0
M  V30 12393 H 1145.21 -2.1553 2.42852 0
M  V30 12394 H 1146.22 0.326771 5.16868 0
M  V30 12395 H 1142.9 -1.83049 3.75232 0
M  V30 12396 H 1144.29 0.991699 6.64541 0
M  V30 12397 N 1147.01 -1.56678 0.170181 0
M  V30 12398 C 1147.95 -2.17909 -0.760556 0
M  V30 12399 C 1148.92 -1.11875 -1.22773 0
M  V30 12400 O 1150.11 -1.40021 -1.2961 0
M  V30 12401 C 1147.25 -2.82305 -1.9849 0
M  V30 12402 C 1146.36 -4.02796 -1.5614 0
M  V30 12403 C 1145.5 -4.55121 -2.73932 0
M  V30 12404 C 1144.53 -5.68025 -2.28067 0
M  V30 12405 N 1143.67 -6.14865 -3.38947 0
M  V30 12406 H 1148.51 -2.97098 -0.231629 0
M  V30 12407 H 1146.05 -1.46742 -0.102602 0
M  V30 12408 H 1148.01 -3.17797 -2.70298 0
M  V30 12409 H 1146.64 -2.05721 -2.48755 0
M  V30 12410 H 1145.69 -3.73131 -0.740097 0
M  V30 12411 H 1147 -4.84526 -1.18472 0
M  V30 12412 H 1146.15 -4.92789 -3.53898 0
M  V30 12413 H 1144.89 -3.72445 -3.14858 0
M  V30 12414 H 1143.9 -5.2991 -1.46546 0
M  V30 12415 H 1145.12 -6.52501 -1.88199 0
M  V30 12416 H 1143.07 -5.35119 -3.79452 0
M  V30 12417 H 1142.99 -6.91582 -3.05369 0
M  V30 12418 H 1144.25 -6.57183 -4.19203 0
M  V30 12419 N 1148.48 0.103547 -1.57259 0
M  V30 12420 C 1149.73 0.807231 -1.84842 0
M  V30 12421 C 1150.05 1.80308 -0.758181 0
M  V30 12422 O 1151.25 2.55406 -0.920877 0
M  V30 12423 C 1149.71 1.4864 -3.27771 0
M  V30 12424 C 1149.32 0.53075 -4.44845 0
M  V30 12425 C 1151.06 2.17431 -3.64587 0
M  V30 12426 C 1148.97 1.21403 -5.78805 0
M  V30 12427 H 1147.9 0.305212 -0.689465 0
M  V30 12428 H 1150.55 0.0600855 -1.83402 0
M  V30 12429 H 1148.93 2.28071 -3.23728 0
M  V30 12430 H 1150.1 -0.231455 -4.60218 0
M  V30 12431 H 1148.42 -0.0510078 -4.16369 0
M  V30 12432 H 1151.02 2.6927 -4.6195 0
M  V30 12433 H 1151.36 2.9594 -2.92789 0
M  V30 12434 H 1151.89 1.4487 -3.70483 0
M  V30 12435 H 1148.63 0.469918 -6.53813 0
M  V30 12436 H 1148.15 1.94787 -5.6729 0
M  V30 12437 H 1149.83 1.74289 -6.23083 0
M  V30 12438 N 1149.96 1.53094 0.37415 0
M  V30 12439 C 1151.21 1.69111 1.11934 0
M  V30 12440 C 1151.54 0.437252 1.89213 0
M  V30 12441 O 1150.82 -0.565298 1.86104 0
M  V30 12442 C 1151.1 2.93559 2.08554 0
M  V30 12443 C 1150.95 4.29082 1.3494 0
M  V30 12444 C 1152.27 3.13586 3.08791 0
M  V30 12445 H 1149.39 0.615383 0.405553 0
M  V30 12446 H 1152.03 1.85719 0.401078 0
M  V30 12447 H 1150.18 2.79531 2.69805 0
M  V30 12448 H 1151.85 4.54906 0.765402 0
M  V30 12449 H 1150.1 4.28884 0.651238 0
M  V30 12450 H 1150.77 5.12275 2.05616 0
M  V30 12451 H 1153.24 3.26743 2.57639 0
M  V30 12452 H 1152.12 4.02112 3.73627 0
M  V30 12453 H 1152.38 2.28475 3.78486 0
M  V30 12454 N 1151.44 -0.633461 1.44309 0
M  V30 12455 C 1152.67 -1.41827 1.50229 0
M  V30 12456 C 1153.08 -1.88786 0.125082 0
M  V30 12457 O 1152.42 -1.61314 -0.878836 0
M  V30 12458 C 1152.48 -2.67372 2.40317 0
M  V30 12459 C 1152.15 -2.42224 3.87526 0
M  V30 12460 C 1153.14 -2.04199 4.7812 0
M  V30 12461 C 1150.83 -2.55936 4.32206 0
M  V30 12462 C 1152.82 -1.80211 6.11394 0
M  V30 12463 C 1150.51 -2.31563 5.65528 0
M  V30 12464 C 1151.51 -1.93758 6.5494 0
M  V30 12465 O 1151.2 -1.69654 7.85794 0
M  V30 12466 H 1150.93 -0.441478 0.51193 0
M  V30 12467 H 1153.48 -0.782118 1.89927 0
M  V30 12468 H 1151.71 -3.33616 1.95543 0
M  V30 12469 H 1153.4 -3.2937 2.37214 0
M  V30 12470 H 1154.17 -1.93164 4.44874 0
M  V30 12471 H 1150.05 -2.84333 3.62872 0
M  V30 12472 H 1153.59 -1.50628 6.81144 0
M  V30 12473 H 1149.49 -2.42206 5.98336 0
M  V30 12474 H 1150.25 -1.83919 7.97569 0
M  V30 12475 N 1152.92 -1.31168 -0.873655 0
M  V30 12476 C 1154.33 -1.09745 -1.1588 0
M  V30 12477 C 1154.53 0.134471 -2.01051 0
M  V30 12478 O 1153.59 0.824857 -2.38647 0
M  V30 12479 C 1154.9 -2.36704 -1.85451 0
M  V30 12480 C 1156.45 -2.42278 -1.98167 0
M  V30 12481 C 1156.93 -3.69108 -2.71152 0
M  V30 12482 N 1158.42 -3.69981 -2.7869 0
M  V30 12483 C 1159.15 -4.64811 -3.35765 0
M  V30 12484 N 1158.65 -5.69995 -3.938 0
M  V30 12485 N 1160.44 -4.52337 -3.33688 0
M  V30 12486 H 1152.59 -2.10184 -0.306021 0
M  V30 12487 H 1154.86 -0.927058 -0.198159 0
M  V30 12488 H 1154.56 -3.26666 -1.30316 0
M  V30 12489 H 1154.44 -2.46219 -2.85755 0
M  V30 12490 H 1156.82 -1.52787 -2.52468 0
M  V30 12491 H 1156.9 -2.3673 -0.969164 0
M  V30 12492 H 1156.55 -4.58963 -2.1752 0
M  V30 12493 H 1156.48 -3.71922 -3.72803 0
M  V30 12494 H 1158.97 -2.93944 -2.37498 0
M  V30 12495 H 1159.28 -6.38438 -4.3545 0
M  V30 12496 H 1157.63 -5.73773 -3.92186 0
M  V30 12497 H 1160.82 -3.69341 -2.87584 0
M  V30 12498 H 1160.99 -5.2642 -3.77871 0
M  V30 12499 N 1154.4 1.08748 -1.14068 0
M  V30 12500 C 1155.67 1.7769 -0.81766 0
M  V30 12501 C 1156.05 1.99522 0.689501 0
M  V30 12502 O 1155.4 1.60222 1.62914 0
M  V30 12503 C 1155.61 3.09517 -1.61245 0
M  V30 12504 C 1156.96 3.84108 -1.80958 0
M  V30 12505 O 1157.98 3.19289 -1.57902 0
M  V30 12506 O 1156.84 5.00491 -2.19479 0
M  V30 12507 H 1153.94 0.770953 -0.299265 0
M  V30 12508 H 1156.48 1.15242 -1.24569 0
M  V30 12509 H 1155.25 2.89155 -2.63638 0
M  V30 12510 H 1154.88 3.79692 -1.17982 0
M  V30 12511 N 1155.87 0.935264 1.26849 0
M  V30 12512 C 1156.8 0.457776 2.28969 0
M  V30 12513 C 1157.79 -0.48587 1.63013 0
M  V30 12514 O 1158.97 -0.388998 1.90264 0
M  V30 12515 C 1156.1 -0.283332 3.46142 0
M  V30 12516 C 1155.05 0.573196 4.24144 0
M  V30 12517 C 1154.38 -0.297525 5.33872 0
M  V30 12518 C 1155.68 1.84153 4.88759 0
M  V30 12519 H 1157.37 1.31125 2.69159 0
M  V30 12520 H 1154.92 0.631956 1.29392 0
M  V30 12521 H 1156.87 -0.628366 4.16689 0
M  V30 12522 H 1155.6 -1.1709 3.04889 0
M  V30 12523 H 1154.26 0.901043 3.55354 0
M  V30 12524 H 1153.9 -1.18427 4.8886 0
M  V30 12525 H 1153.6 0.272126 5.8697 0
M  V30 12526 H 1155.13 -0.637961 6.07258 0
M  V30 12527 H 1156.54 1.5641 5.51551 0
M  V30 12528 H 1154.94 2.35528 5.51948 0
M  V30 12529 H 1156.01 2.5565 4.12033 0
M  V30 12530 N 1157.35 -1.41121 0.701616 0
M  V30 12531 C 1158.3 -2.30765 0.040121 0
M  V30 12532 C 1159.27 -1.47436 -0.764975 0
M  V30 12533 O 1160.45 -1.76209 -0.731775 0
M  V30 12534 C 1157.59 -3.33535 -0.885903 0
M  V30 12535 C 1156.71 -4.3194 -0.0717765 0
M  V30 12536 C 1155.84 -5.21779 -0.995996 0
M  V30 12537 C 1154.88 -6.11849 -0.175133 0
M  V30 12538 N 1154.02 -6.94151 -1.05348 0
M  V30 12539 H 1158.86 -2.86772 0.810312 0
M  V30 12540 H 1156.4 -1.41233 0.411301 0
M  V30 12541 H 1158.35 -3.91675 -1.4369 0
M  V30 12542 H 1156.98 -2.79065 -1.62243 0
M  V30 12543 H 1156.04 -3.75698 0.596221 0
M  V30 12544 H 1157.35 -4.95597 0.56435 0
M  V30 12545 H 1156.5 -5.84782 -1.61601 0
M  V30 12546 H 1155.24 -4.58363 -1.66597 0
M  V30 12547 H 1154.25 -5.4789 0.457916 0
M  V30 12548 H 1155.47 -6.77322 0.491133 0
M  V30 12549 H 1153.42 -6.33338 -1.70936 0
M  V30 12550 H 1153.33 -7.54518 -0.473065 0
M  V30 12551 H 1154.6 -7.61617 -1.66012 0
M  V30 12552 N 1158.83 -0.446794 -1.51134 0
M  V30 12553 C 1159.76 0.350229 -2.30858 0
M  V30 12554 C 1160.74 1.0125 -1.36684 0
M  V30 12555 O 1161.93 1.01433 -1.65605 0
M  V30 12556 C 1159.06 1.4464 -3.15748 0
M  V30 12557 C 1158.01 0.907102 -4.18277 0
M  V30 12558 C 1157.34 2.09974 -4.91747 0
M  V30 12559 C 1158.64 -0.0649758 -5.2226 0
M  V30 12560 H 1160.33 -0.315105 -2.97737 0
M  V30 12561 H 1157.88 -0.152985 -1.43185 0
M  V30 12562 H 1159.83 2.01127 -3.70305 0
M  V30 12563 H 1158.55 2.14016 -2.46708 0
M  V30 12564 H 1157.21 0.364382 -3.64785 0
M  V30 12565 H 1156.86 2.77991 -4.19202 0
M  V30 12566 H 1156.56 1.74523 -5.61084 0
M  V30 12567 H 1158.08 2.66996 -5.49131 0
M  V30 12568 H 1159.5 0.4099 -5.71833 0
M  V30 12569 H 1157.9 -0.332529 -5.99178 0
M  V30 12570 H 1158.97 -0.998681 -4.74504 0
M  V30 12571 N 1160.31 1.56586 -0.178487 0
M  V30 12572 C 1161.59 1.88798 0.511356 0
M  V30 12573 C 1161.97 1.08949 1.80813 0
M  V30 12574 O 1161.31 0.185551 2.27745 0
M  V30 12575 C 1161.52 3.40927 0.746298 0
M  V30 12576 C 1162.87 4.10816 1.0731 0
M  V30 12577 O 1163.9 3.46285 0.834592 0
M  V30 12578 O 1162.75 5.24837 1.52343 0
M  V30 12579 H 1159.85 0.783574 0.264463 0
M  V30 12580 H 1162.39 1.68301 -0.21746 0
M  V30 12581 H 1161.17 3.9093 -0.17015 0
M  V30 12582 H 1160.79 3.67059 1.52817 0
M  V30 12583 N 1161.79 -0.095206 1.57312 0
M  V30 12584 C 1162.73 -1.13438 2.03063 0
M  V30 12585 C 1163.73 -1.41478 0.931679 0
M  V30 12586 O 1164.93 -1.41161 1.11686 0
M  V30 12587 H 1161.31 -0.383042 0.647134 0
M  V30 12588 H 1163.28 -0.722186 2.89529 0
M  V30 12589 C 1162.03 -2.44641 2.47075 0
M  V30 12590 H 1161.35 -2.23908 3.31218 0
M  V30 12591 H 1162.79 -3.15855 2.82863 0
M  V30 12592 C 1161.25 -3.08931 1.34399 0
M  V30 12593 O 1161.78 -3.96021 0.673071 0
M  V30 12594 N 1159.99 -2.6918 1.09501 0
M  V30 12595 H 1159.53 -1.98451 1.6424 0
M  V30 12596 H 1159.49 -3.12522 0.34311 0
M  V30 12597 N 1163.26 -1.53291 -0.366026 0
M  V30 12598 C 1164.19 -1.82675 -1.45437 0
M  V30 12599 C 1165.18 -0.680227 -1.55907 0
M  V30 12600 O 1166.36 -0.930032 -1.70482 0
M  V30 12601 C 1163.49 -2.01626 -2.8278 0
M  V30 12602 C 1162.44 -3.17391 -2.87135 0
M  V30 12603 C 1161.77 -3.21634 -4.27148 0
M  V30 12604 C 1163.07 -4.5599 -2.54697 0
M  V30 12605 H 1164.76 -2.73818 -1.21096 0
M  V30 12606 H 1162.31 -1.31754 -0.581108 0
M  V30 12607 H 1164.26 -2.20765 -3.58944 0
M  V30 12608 H 1162.99 -1.07193 -3.08508 0
M  V30 12609 H 1161.65 -2.98071 -2.13422 0
M  V30 12610 H 1161.29 -2.2484 -4.49951 0
M  V30 12611 H 1160.99 -3.99414 -4.30978 0
M  V30 12612 H 1162.52 -3.42957 -5.05186 0
M  V30 12613 H 1163.93 -4.75294 -3.20575 0
M  V30 12614 H 1162.33 -5.36008 -2.69844 0
M  V30 12615 H 1163.4 -4.61133 -1.49949 0
M  V30 12616 N 1164.74 0.6258 -1.44643 0
M  V30 12617 C 1165.67 1.74858 -1.54748 0
M  V30 12618 C 1166.65 1.65327 -0.400138 0
M  V30 12619 O 1167.84 1.84005 -0.620948 0
M  V30 12620 C 1164.97 3.13408 -1.49643 0
M  V30 12621 C 1163.92 3.37733 -2.62908 0
M  V30 12622 C 1163.25 4.76367 -2.42855 0
M  V30 12623 C 1164.55 3.29771 -4.05029 0
M  V30 12624 H 1166.24 1.66658 -2.48728 0
M  V30 12625 H 1163.79 0.800363 -1.19709 0
M  V30 12626 H 1165.74 3.91735 -1.55312 0
M  V30 12627 H 1164.47 3.22404 -0.521824 0
M  V30 12628 H 1163.12 2.61788 -2.56637 0
M  V30 12629 H 1162.77 4.82074 -1.43575 0
M  V30 12630 H 1162.47 4.936 -3.18799 0
M  V30 12631 H 1164 5.56917 -2.50351 0
M  V30 12632 H 1165.41 3.97996 -4.12641 0
M  V30 12633 H 1163.81 3.58538 -4.81218 0
M  V30 12634 H 1164.88 2.27493 -4.28223 0
M  V30 12635 N 1166.22 1.31629 0.866686 0
M  V30 12636 C 1167.15 1.22151 1.99001 0
M  V30 12637 C 1168.13 0.107972 1.69757 0
M  V30 12638 O 1169.32 0.293125 1.91975 0
M  V30 12639 C 1166.45 0.93144 3.34577 0
M  V30 12640 C 1165.4 2.0049 3.78137 0
M  V30 12641 C 1164.73 1.56747 5.11209 0
M  V30 12642 C 1166.03 3.41844 3.94892 0
M  V30 12643 H 1167.72 2.16132 2.0719 0
M  V30 12644 H 1165.27 1.04051 0.995463 0
M  V30 12645 H 1167.22 0.851719 4.12703 0
M  V30 12646 H 1165.94 -0.0440289 3.2657 0
M  V30 12647 H 1164.6 2.07457 3.02253 0
M  V30 12648 H 1164.25 0.579767 4.99648 0
M  V30 12649 H 1163.95 2.28562 5.41326 0
M  V30 12650 H 1165.47 1.50188 5.91841 0
M  V30 12651 H 1166.89 3.37534 4.63405 0
M  V30 12652 H 1165.29 4.11905 4.36411 0
M  V30 12653 H 1166.36 3.82389 2.98172 0
M  V30 12654 N 1167.7 -1.08142 1.14644 0
M  V30 12655 C 1168.98 -1.77254 0.827071 0
M  V30 12656 C 1169.36 -1.99885 -0.67891 0
M  V30 12657 O 1168.7 -1.61084 -1.62062 0
M  V30 12658 C 1168.91 -3.08658 1.62884 0
M  V30 12659 C 1170.26 -3.83143 1.82993 0
M  V30 12660 O 1171.29 -3.18447 1.59593 0
M  V30 12661 O 1170.15 -4.9932 2.2213 0
M  V30 12662 H 1167.24 -0.769356 0.30335 0
M  V30 12663 H 1169.79 -1.1458 1.25178 0
M  V30 12664 H 1168.56 -2.87753 2.65168 0
M  V30 12665 H 1168.18 -3.79061 1.19994 0
M  V30 12666 N 1169.18 -0.941978 -1.26351 0
M  V30 12667 C 1170.41 -0.606748 -1.97803 0
M  V30 12668 C 1170.82 0.818441 -1.70138 0
M  V30 12669 O 1170.18 1.54583 -0.970076 0
M  V30 12670 C 1170.23 -0.840431 -3.51595 0
M  V30 12671 O 1169.95 -2.20957 -3.78299 0
M  V30 12672 C 1171.45 -0.515855 -4.40288 0
M  V30 12673 H 1168.67 -0.228591 -0.630862 0
M  V30 12674 H 1171.21 -1.2629 -1.60845 0
M  V30 12675 H 1169.37 -0.230875 -3.86711 0
M  V30 12676 H 1169.78 -2.2702 -4.72824 0
M  V30 12677 H 1171.26 -0.72998 -5.47152 0
M  V30 12678 H 1171.73 0.549178 -4.35753 0
M  V30 12679 H 1172.34 -1.10417 -4.10717 0
M  V30 12680 N 1170.66 1.40747 -0.709091 0
M  V30 12681 C 1171.57 2.3454 -0.0532205 0
M  V30 12682 C 1172.58 1.56956 0.751057 0
M  V30 12683 O 1173.76 1.89375 0.685509 0
M  V30 12684 C 1170.82 3.35809 0.862157 0
M  V30 12685 C 1169.88 4.29273 0.0485632 0
M  V30 12686 C 1169.12 5.25705 0.920345 0
M  V30 12687 O 1169.34 5.27933 2.15969 0
M  V30 12688 O 1168.27 6.00806 0.3628 0
M  V30 12689 H 1172.1 2.92232 -0.826698 0
M  V30 12690 H 1169.68 1.4183 -0.469519 0
M  V30 12691 H 1171.57 3.97931 1.38668 0
M  V30 12692 H 1170.24 2.8054 1.61489 0
M  V30 12693 H 1169.15 3.70456 -0.520873 0
M  V30 12694 H 1170.48 4.87676 -0.665807 0
M  V30 12695 N 1172.13 0.454803 1.50895 0
M  V30 12696 C 1173.38 -0.105562 2.01824 0
M  V30 12697 C 1173.7 -1.41673 1.33992 0
M  V30 12698 O 1172.97 -1.89929 0.479994 0
M  V30 12699 H 1171.55 -0.0420011 0.745818 0
M  V30 12700 H 1174.21 0.601504 1.85386 0
M  V30 12701 H 1173.31 -0.268872 3.1094 0
M  V30 12702 N 1173.61 -1.56489 0.186789 0
M  V30 12703 C 1174.86 -1.97341 -0.454158 0
M  V30 12704 C 1175.19 -1.07337 -1.622 0
M  V30 12705 O 1174.44 -0.1107 -1.95387 0
M  V30 12706 C 1174.74 -3.44145 -0.964315 0
M  V30 12707 C 1174.41 -4.50812 0.0892734 0
M  V30 12708 C 1173.07 -4.79707 0.378794 0
M  V30 12709 C 1175.42 -5.14968 0.8036 0
M  V30 12710 C 1172.75 -5.70051 1.38776 0
M  V30 12711 C 1175.1 -6.06402 1.80166 0
M  V30 12712 C 1173.76 -6.33657 2.09847 0
M  V30 12713 H 1173.03 -0.722124 -0.166188 0
M  V30 12714 H 1175.68 -1.89412 0.282008 0
M  V30 12715 H 1173.99 -3.49103 -1.7786 0
M  V30 12716 H 1175.68 -3.73104 -1.4695 0
M  V30 12717 H 1172.27 -4.28349 -0.146552 0
M  V30 12718 H 1176.46 -4.92743 0.593147 0
M  V30 12719 H 1171.71 -5.89445 1.62373 0
M  V30 12720 H 1175.89 -6.55176 2.36045 0
M  V30 12721 H 1173.51 -7.03462 2.88175 0
M  V30 12722 N 1175.09 0.086862 -1.5736 0
M  V30 12723 C 1176.34 0.790008 -1.8678 0
M  V30 12724 C 1176.67 1.77977 -0.777042 0
M  V30 12725 O 1175.94 1.93317 0.21419 0
M  V30 12726 C 1176.23 1.51143 -3.26845 0
M  V30 12727 C 1176.08 0.539106 -4.46558 0
M  V30 12728 C 1177.4 2.46003 -3.64926 0
M  V30 12729 H 1174.52 0.285741 -0.679354 0
M  V30 12730 H 1177.16 0.0534655 -1.89925 0
M  V30 12731 H 1175.31 2.13928 -3.24295 0
M  V30 12732 H 1176.98 -0.0823679 -4.61226 0
M  V30 12733 H 1175.22 -0.146842 -4.33551 0
M  V30 12734 H 1175.9 1.0812 -5.41308 0
M  V30 12735 H 1178.37 1.93306 -3.68473 0
M  V30 12736 H 1177.25 2.93493 -4.63846 0
M  V30 12737 H 1177.51 3.30133 -2.94049 0
M  V30 12738 N 1176.57 1.53483 0.357892 0
M  V30 12739 C 1177.51 1.80463 1.43881 0
M  V30 12740 C 1178.48 0.649438 1.52877 0
M  V30 12741 O 1179.67 0.892409 1.68644 0
M  V30 12742 C 1176.81 2.00714 2.80727 0
M  V30 12743 C 1175.92 3.28431 2.80637 0
M  V30 12744 C 1175.06 3.38828 4.09107 0
M  V30 12745 C 1174.1 4.60549 4.03189 0
M  V30 12746 N 1173.23 4.68057 5.23323 0
M  V30 12747 H 1178.07 2.72694 1.20174 0
M  V30 12748 H 1175.61 1.35079 0.582422 0
M  V30 12749 H 1177.57 2.10444 3.60235 0
M  V30 12750 H 1176.2 1.11811 3.02817 0
M  V30 12751 H 1175.25 3.27617 1.93317 0
M  V30 12752 H 1176.56 4.18022 2.72138 0
M  V30 12753 H 1175.72 3.47911 4.97034 0
M  V30 12754 H 1174.46 2.47267 4.20369 0
M  V30 12755 H 1173.46 4.51558 3.13649 0
M  V30 12756 H 1174.69 5.53459 3.93523 0
M  V30 12757 H 1172.63 3.794 5.35156 0
M  V30 12758 H 1172.55 5.51563 5.17024 0
M  V30 12759 H 1173.82 4.81433 6.1306 0
M  V30 12760 N 1178.05 -0.61812 1.44973 0
M  V30 12761 C 1179.29 -1.37343 1.47715 0
M  V30 12762 C 1179.61 -1.95239 0.118784 0
M  V30 12763 O 1180.81 -2.7149 0.0237981 0
M  V30 12764 C 1179.27 -2.48732 2.60116 0
M  V30 12765 C 1178.88 -1.97294 4.02218 0
M  V30 12766 C 1180.62 -3.25831 2.72093 0
M  V30 12767 C 1178.53 -3.06102 5.06019 0
M  V30 12768 H 1177.46 -0.516175 0.549617 0
M  V30 12769 H 1180.11 -0.663617 1.7108 0
M  V30 12770 H 1178.49 -3.2235 2.30014 0
M  V30 12771 H 1179.67 -1.30455 4.41948 0
M  V30 12772 H 1177.98 -1.32972 3.94598 0
M  V30 12773 H 1180.58 -4.06968 3.46815 0
M  V30 12774 H 1180.92 -3.76156 1.7836 0
M  V30 12775 H 1181.45 -2.59309 3.01668 0
M  V30 12776 H 1178.19 -2.60706 6.01426 0
M  V30 12777 H 1177.71 -3.71541 4.70869 0
M  V30 12778 H 1179.39 -3.70662 5.30301 0
M  V30 12779 N 1179.52 -1.32087 -0.859693 0
M  V30 12780 C 1180.49 -1.20546 -1.94939 0
M  V30 12781 C 1181.49 -0.12982 -1.60275 0
M  V30 12782 O 1182.68 -0.379853 -1.70008 0
M  V30 12783 C 1179.81 -0.852717 -3.30063 0
M  V30 12784 H 1181 -2.17384 -2.06602 0
M  V30 12785 H 1178.55 -1.15846 -1.04926 0
M  V30 12786 H 1179.29 0.114059 -3.24099 0
M  V30 12787 H 1179.07 -1.63035 -3.56598 0
M  V30 12788 H 1180.56 -0.796145 -4.09941 0
M  V30 12789 N 1181 1.07532 -1.15215 0
M  V30 12790 C 1182.28 1.76813 -0.83646 0
M  V30 12791 C 1182.66 2.00242 0.6683 0
M  V30 12792 O 1182.01 1.61941 1.61206 0
M  V30 12793 C 1182.22 3.0779 -1.64519 0
M  V30 12794 C 1183.56 3.82168 -1.85022 0
M  V30 12795 O 1184.59 3.17596 -1.61279 0
M  V30 12796 O 1183.45 4.98135 -2.24775 0
M  V30 12797 H 1180.54 0.767736 -0.307426 0
M  V30 12798 H 1183.09 1.13914 -1.25784 0
M  V30 12799 H 1181.86 2.86342 -2.6669 0
M  V30 12800 H 1181.48 3.78419 -1.22002 0
M  V30 12801 N 1182.48 0.948665 1.2585 0
M  V30 12802 C 1183.73 0.600236 1.934 0
M  V30 12803 C 1184.06 -0.86185 1.74363 0
M  V30 12804 O 1183.31 -1.63294 1.07858 0
M  V30 12805 C 1183.61 0.89784 3.45939 0
M  V30 12806 C 1183.28 2.345 3.85124 0
M  V30 12807 C 1181.94 2.74058 3.95532 0
M  V30 12808 C 1184.29 3.2851 4.04636 0
M  V30 12809 C 1181.62 4.06707 4.22855 0
M  V30 12810 C 1183.97 4.60764 4.3345 0
M  V30 12811 C 1182.63 5.00127 4.42074 0
M  V30 12812 H 1181.9 0.219642 0.707699 0
M  V30 12813 H 1184.55 1.19658 1.49513 0
M  V30 12814 H 1182.86 0.219037 3.91187 0
M  V30 12815 H 1184.55 0.606916 3.96381 0
M  V30 12816 H 1181.14 2.02819 3.77574 0
M  V30 12817 H 1185.33 2.99141 3.96015 0
M  V30 12818 H 1180.58 4.36856 4.27746 0
M  V30 12819 H 1184.76 5.33594 4.47493 0
M  V30 12820 H 1182.38 6.02939 4.63 0
M  V30 12821 N 1183.96 -1.40369 0.716545 0
M  V30 12822 C 1185.21 -2.00473 0.255959 0
M  V30 12823 C 1185.53 -1.57104 -1.15514 0
M  V30 12824 O 1184.8 -0.810925 -1.78328 0
M  V30 12825 H 1183.38 -0.741357 0.0916427 0
M  V30 12826 H 1186.04 -1.71692 0.922389 0
M  V30 12827 H 1185.14 -3.10752 0.289806 0
M  V30 12828 N 1185.44 -0.462799 -1.50652 0
M  V30 12829 C 1186.37 0.325724 -2.31217 0
M  V30 12830 C 1187.35 0.997942 -1.3775 0
M  V30 12831 O 1188.53 0.996707 -1.66671 0
M  V30 12832 C 1185.66 1.41283 -3.17264 0
M  V30 12833 C 1184.62 0.862687 -4.19216 0
M  V30 12834 C 1183.94 2.04746 -4.93946 0
M  V30 12835 C 1185.24 -0.120365 -5.22161 0
M  V30 12836 H 1186.94 -0.346666 -2.97386 0
M  V30 12837 H 1184.48 -0.168163 -1.43015 0
M  V30 12838 H 1186.44 1.97188 -3.72418 0
M  V30 12839 H 1185.16 2.11387 -2.48964 0
M  V30 12840 H 1183.82 0.325671 -3.65151 0
M  V30 12841 H 1183.47 2.73529 -4.22127 0
M  V30 12842 H 1183.17 1.68562 -5.62904 0
M  V30 12843 H 1184.69 2.61157 -5.51932 0
M  V30 12844 H 1186.1 0.349226 -5.72235 0
M  V30 12845 H 1184.5 -0.396061 -5.98792 0
M  V30 12846 H 1185.57 -1.04895 -4.73418 0
M  V30 12847 N 1186.91 1.56388 -0.195085 0
M  V30 12848 C 1188.15 1.99478 0.445855 0
M  V30 12849 C 1188.52 1.0792 1.588 0
M  V30 12850 O 1189.72 1.40246 2.29313 0
M  V30 12851 C 1187.99 3.46032 0.894248 0
M  V30 12852 S 1189.55 4.11149 1.53303 0
M  V30 12853 H 1186.37 0.696558 0.142575 0
M  V30 12854 H 1188.97 1.93213 -0.298149 0
M  V30 12855 H 1187.67 4.10366 0.0529258 0
M  V30 12856 H 1187.2 3.56114 1.67172 0
M  V30 12857 H 1189.22 4.08155 2.82177 0
M  V30 12858 N 1188.39 -0.0785156 1.57404 0
M  V30 12859 C 1189.34 -1.09402 2.03224 0
M  V30 12860 C 1190.31 -1.38849 0.911596 0
M  V30 12861 O 1191.49 -1.50031 1.17878 0
M  V30 12862 C 1188.63 -2.40444 2.47549 0
M  V30 12863 C 1187.75 -2.17585 3.73203 0
M  V30 12864 C 1186.88 -3.42143 4.06339 0
M  V30 12865 C 1185.92 -3.14619 5.25054 0
M  V30 12866 N 1185.06 -4.31489 5.5386 0
M  V30 12867 H 1189.9 -0.696307 2.89751 0
M  V30 12868 H 1187.44 -0.332261 1.43298 0
M  V30 12869 H 1189.39 -3.16944 2.71298 0
M  V30 12870 H 1188.02 -2.78031 1.64009 0
M  V30 12871 H 1187.08 -1.3181 3.56834 0
M  V30 12872 H 1188.39 -1.93249 4.59844 0
M  V30 12873 H 1187.54 -4.27042 4.30953 0
M  V30 12874 H 1186.28 -3.69549 3.18253 0
M  V30 12875 H 1185.29 -2.28116 5.00243 0
M  V30 12876 H 1186.51 -2.88543 6.14752 0
M  V30 12877 H 1184.46 -4.58939 4.68734 0
M  V30 12878 H 1184.37 -4.10403 6.34906 0
M  V30 12879 H 1185.64 -5.17404 5.83021 0
M  V30 12880 N 1189.87 -1.5367 -0.349747 0
M  V30 12881 C 1190.78 -1.84207 -1.45275 0
M  V30 12882 C 1191.8 -0.731695 -1.57868 0
M  V30 12883 O 1192.97 -1.02337 -1.73462 0
M  V30 12884 C 1190.04 -2.0398 -2.80345 0
M  V30 12885 C 1189.1 -3.27853 -2.77148 0
M  V30 12886 C 1188.33 -3.46673 -4.05775 0
M  V30 12887 O 1188.55 -2.69457 -5.02741 0
M  V30 12888 O 1187.49 -4.40082 -4.10623 0
M  V30 12889 H 1191.31 -2.77947 -1.22389 0
M  V30 12890 H 1188.9 -1.39247 -0.541345 0
M  V30 12891 H 1190.78 -2.18466 -3.60348 0
M  V30 12892 H 1189.46 -1.13429 -3.03176 0
M  V30 12893 H 1188.36 -3.18776 -1.95787 0
M  V30 12894 H 1189.7 -4.18377 -2.59271 0
M  V30 12895 N 1191.35 0.610423 -1.45298 0
M  V30 12896 C 1192.6 1.3668 -1.48872 0
M  V30 12897 C 1192.92 1.94562 -0.130686 0
M  V30 12898 O 1192.19 1.76996 0.839607 0
M  V30 12899 H 1190.77 0.507393 -0.548235 0
M  V30 12900 H 1193.43 0.716997 -1.81232 0
M  V30 12901 H 1192.53 2.18766 -2.22593 0
M  V30 12902 N 1192.83 1.32541 0.852676 0
M  V30 12903 C 1193.76 1.15977 1.96531 0
M  V30 12904 C 1194.74 0.0587267 1.62494 0
M  V30 12905 O 1195.92 0.218404 1.8723 0
M  V30 12906 C 1193.05 0.77587 3.29694 0
M  V30 12907 C 1192.09 1.88244 3.82709 0
M  V30 12908 S 1192.93 3.49108 4.06059 0
M  V30 12909 C 1194.08 3.12693 5.42193 0
M  V30 12910 H 1194.32 2.10165 2.1028 0
M  V30 12911 H 1191.85 1.17225 1.00487 0
M  V30 12912 H 1193.81 0.561136 4.06647 0
M  V30 12913 H 1192.47 -0.14718 3.13755 0
M  V30 12914 H 1191.66 1.56687 4.79025 0
M  V30 12915 H 1191.26 2.05313 3.12606 0
M  V30 12916 H 1193.56 2.62661 6.24512 0
M  V30 12917 H 1194.5 4.08038 5.78714 0
M  V30 12918 H 1194.91 2.4966 5.06291 0
M  V30 12919 N 1194.3 -1.0692 1.15784 0
M  V30 12920 C 1195.55 -1.79245 0.933581 0
M  V30 12921 C 1195.87 -1.87362 -0.540427 0
M  V30 12922 O 1195.14 -1.37769 -1.39271 0
M  V30 12923 H 1193.72 -0.663898 0.342416 0
M  V30 12924 H 1196.39 -1.29189 1.45932 0
M  V30 12925 H 1195.48 -2.81546 1.34679 0
M  V30 12926 N 1195.78 -0.955326 -1.25345 0
M  V30 12927 C 1197.01 -0.626783 -1.96863 0
M  V30 12928 C 1197.42 0.80547 -1.71198 0
M  V30 12929 O 1196.76 1.55049 -0.985163 0
M  V30 12930 C 1196.83 -0.806404 -3.50339 0
M  V30 12931 C 1196.49 -2.21595 -3.99681 0
M  V30 12932 C 1197.49 -3.19268 -4.10322 0
M  V30 12933 C 1195.17 -2.54032 -4.33328 0
M  V30 12934 C 1197.17 -4.47471 -4.53926 0
M  V30 12935 C 1194.85 -3.82465 -4.76617 0
M  V30 12936 C 1195.85 -4.78997 -4.86879 0
M  V30 12937 O 1195.54 -6.0514 -5.29208 0
M  V30 12938 H 1195.27 -0.233854 -0.634262 0
M  V30 12939 H 1197.82 -1.28232 -1.60455 0
M  V30 12940 H 1196.05 -0.0937184 -3.86586 0
M  V30 12941 H 1197.74 -0.47881 -4.03066 0
M  V30 12942 H 1198.51 -2.95534 -3.84558 0
M  V30 12943 H 1194.39 -1.79623 -4.24566 0
M  V30 12944 H 1197.93 -5.22819 -4.6185 0
M  V30 12945 H 1193.83 -4.06005 -5.01827 0
M  V30 12946 H 1194.6 -6.08527 -5.47392 0
M  V30 12947 N 1197.26 1.39987 -0.723979 0
M  V30 12948 C 1198.51 2.00334 -0.266587 0
M  V30 12949 C 1198.83 1.57714 1.14679 0
M  V30 12950 O 1198.1 0.82037 1.77895 0
M  V30 12951 H 1196.68 0.740861 -0.095573 0
M  V30 12952 H 1199.34 1.712 -0.931481 0
M  V30 12953 H 1198.44 3.10594 -0.306282 0
M  V30 12954 N 1198.74 0.470782 1.50404 0
M  V30 12955 C 1200.02 -0.145879 1.95055 0
M  V30 12956 C 1200.4 -1.57004 1.41114 0
M  V30 12957 O 1199.74 -2.20152 0.612006 0
M  V30 12958 C 1199.95 -0.0895071 3.48885 0
M  V30 12959 C 1201.3 -0.278548 4.23685 0
M  V30 12960 O 1202.33 -0.166105 3.55812 0
M  V30 12961 O 1201.19 -0.505606 5.44156 0
M  V30 12962 H 1198.28 -0.111838 0.819403 0
M  V30 12963 H 1200.83 0.531162 1.61173 0
M  V30 12964 H 1199.6 0.904836 3.80695 0
M  V30 12965 H 1199.22 -0.808019 3.89303 0
M  V30 12966 N 1200.22 -1.56282 0.203376 0
M  V30 12967 C 1201.63 -1.58871 -0.152335 0
M  V30 12968 C 1201.83 -1.21978 -1.60386 0
M  V30 12969 O 1200.89 -0.946422 -2.34092 0
M  V30 12970 C 1202.2 -3.00287 0.157515 0
M  V30 12971 C 1203.75 -3.12846 0.098287 0
M  V30 12972 C 1204.23 -4.56408 0.38156 0
M  V30 12973 N 1205.72 -4.6202 0.330475 0
M  V30 12974 C 1206.45 -5.71006 0.523397 0
M  V30 12975 N 1205.95 -6.88428 0.777115 0
M  V30 12976 N 1207.74 -5.60238 0.457082 0
M  V30 12977 H 1199.89 -1.78543 1.15048 0
M  V30 12978 H 1202.15 -0.829019 0.459816 0
M  V30 12979 H 1201.86 -3.3187 1.16427 0
M  V30 12980 H 1201.73 -3.73372 -0.536041 0
M  V30 12981 H 1204.12 -2.8107 -0.899085 0
M  V30 12982 H 1204.2 -2.42129 0.825045 0
M  V30 12983 H 1203.85 -4.88897 1.37629 0
M  V30 12984 H 1203.78 -5.25325 -0.366182 0
M  V30 12985 H 1206.27 -3.77636 0.141327 0
M  V30 12986 H 1206.58 -7.67389 0.912911 0
M  V30 12987 H 1204.93 -6.90215 0.814104 0
M  V30 12988 H 1208.12 -4.67382 0.259226 0
M  V30 12989 H 1208.29 -6.45114 0.610848 0
M  V30 12990 N 1201.7 0.070167 -1.57444 0
M  V30 12991 C 1202.92 0.781894 -1.91557 0
M  V30 12992 C 1203.34 1.71037 -0.799489 0
M  V30 12993 O 1202.7 1.81082 0.227062 0
M  V30 12994 C 1202.75 1.57415 -3.25427 0
M  V30 12995 O 1202.47 0.682991 -4.32743 0
M  V30 12996 C 1203.97 2.38673 -3.73564 0
M  V30 12997 H 1201.19 0.222211 -0.633138 0
M  V30 12998 H 1203.73 0.0399504 -2.04461 0
M  V30 12999 H 1201.89 2.26835 -3.14045 0
M  V30 13000 H 1202.3 1.2342 -5.09772 0
M  V30 13001 H 1203.78 2.89716 -4.6986 0
M  V30 13002 H 1204.25 3.18269 -3.02657 0
M  V30 13003 H 1204.86 1.74405 -3.87896 0
M  V30 13004 N 1203.17 1.53854 0.341593 0
M  V30 13005 C 1204.4 1.75447 1.10604 0
M  V30 13006 C 1204.82 0.493225 1.81518 0
M  V30 13007 O 1204.18 -0.554253 1.7262 0
M  V30 13008 C 1204.23 2.93593 2.09369 0
M  V30 13009 O 1203.33 2.63878 3.16926 0
M  V30 13010 H 1202.67 0.581923 0.319783 0
M  V30 13011 H 1205.2 2.00822 0.391388 0
M  V30 13012 H 1205.21 3.20437 2.52556 0
M  V30 13013 H 1203.89 3.85067 1.57151 0
M  V30 13014 H 1202.47 2.47929 2.78542 0
M  V30 13015 N 1204.65 -0.602709 1.4562 0
M  V30 13016 C 1205.88 -1.3881 1.53426 0
M  V30 13017 C 1206.29 -1.88046 0.16851 0
M  V30 13018 O 1205.65 -1.62493 -0.830791 0
M  V30 13019 C 1205.7 -2.58927 2.52268 0
M  V30 13020 O 1205.42 -2.11735 3.83536 0
M  V30 13021 C 1206.92 -3.51728 2.69819 0
M  V30 13022 H 1204.14 -0.424744 0.519455 0
M  V30 13023 H 1206.69 -0.73459 1.90851 0
M  V30 13024 H 1204.84 -3.20309 2.17902 0
M  V30 13025 H 1205.26 -2.89814 4.37159 0
M  V30 13026 H 1206.73 -4.32542 3.42945 0
M  V30 13027 H 1207.21 -4.02383 1.76024 0
M  V30 13028 H 1207.81 -2.96196 3.05202 0
M  V30 13029 N 1206.13 -1.32992 -0.845635 0
M  V30 13030 C 1207.38 -1.24065 -1.60044 0
M  V30 13031 C 1207.7 0.195282 -1.93517 0
M  V30 13032 O 1206.96 1.1507 -1.58296 0
M  V30 13033 C 1207.26 -2.05454 -2.92444 0
M  V30 13034 C 1206.92 -3.54718 -2.78362 0
M  V30 13035 C 1205.59 -3.95413 -2.74229 0
M  V30 13036 C 1207.94 -4.49598 -2.63649 0
M  V30 13037 C 1205.27 -5.29216 -2.53274 0
M  V30 13038 C 1207.62 -5.83554 -2.44228 0
M  V30 13039 C 1206.28 -6.2344 -2.38493 0
M  V30 13040 H 1205.55 -0.453985 -0.585644 0
M  V30 13041 H 1208.2 -1.6451 -0.980244 0
M  V30 13042 H 1206.5 -1.57765 -3.58633 0
M  V30 13043 H 1208.2 -1.95909 -3.49887 0
M  V30 13044 H 1204.79 -3.22403 -2.82409 0
M  V30 13045 H 1208.98 -4.19072 -2.65881 0
M  V30 13046 H 1204.23 -5.59164 -2.47275 0
M  V30 13047 H 1208.41 -6.56681 -2.31825 0
M  V30 13048 H 1206.03 -7.27058 -2.22015 0
M  V30 13049 N 1207.61 1.06304 -1.1635 0
M  V30 13050 C 1208.85 1.80686 -0.955614 0
M  V30 13051 C 1209.21 1.85171 0.507525 0
M  V30 13052 O 1210.41 2.55531 0.834103 0
M  V30 13053 C 1208.68 3.21276 -1.56577 0
M  V30 13054 S 1210.24 4.12274 -1.50251 0
M  V30 13055 H 1207.06 0.622426 -0.343666 0
M  V30 13056 H 1209.66 1.27628 -1.48092 0
M  V30 13057 H 1208.37 3.15607 -2.62336 0
M  V30 13058 H 1207.9 3.7941 -1.03978 0
M  V30 13059 H 1209.91 4.93647 -0.502703 0
M  V30 13060 N 1209.09 0.96196 1.24836 0
M  V30 13061 C 1210.33 0.619489 1.92371 0
M  V30 13062 C 1210.65 -0.847233 1.75633 0
M  V30 13063 O 1209.92 -1.60419 1.12439 0
M  V30 13064 H 1208.5 0.226129 0.711951 0
M  V30 13065 H 1211.17 1.22179 1.5185 0
M  V30 13066 H 1210.26 0.855128 3.00157 0
M  V30 13067 N 1210.56 -1.39601 0.731392 0
M  V30 13068 C 1211.79 -2.04887 0.28789 0
M  V30 13069 C 1212.21 -1.55138 -1.076 0
M  V30 13070 O 1211.56 -0.71471 -1.67923 0
M  V30 13071 C 1211.61 -3.6044 0.276629 0
M  V30 13072 O 1211.34 -4.08358 1.58668 0
M  V30 13073 C 1212.84 -4.4292 -0.183485 0
M  V30 13074 H 1210.06 -0.658976 0.126459 0
M  V30 13075 H 1212.6 -1.78716 0.994031 0
M  V30 13076 H 1210.76 -3.85526 -0.380597 0
M  V30 13077 H 1211.17 -5.02659 1.4978 0
M  V30 13078 H 1212.64 -5.51822 -0.140207 0
M  V30 13079 H 1213.12 -4.2168 -1.22811 0
M  V30 13080 H 1213.73 -4.22976 0.444042 0
M  V30 13081 N 1212.04 -0.478751 -1.50152 0
M  V30 13082 C 1213.45 -0.0254907 -1.86683 0
M  V30 13083 C 1213.8 1.38171 -1.39295 0
M  V30 13084 O 1212.93 2.0257 -0.761207 0
M  V30 13085 C 1213.52 -0.0394819 -3.38777 0
M  V30 13086 C 1212.08 0.35834 -3.7469 0
M  V30 13087 C 1211.23 -0.421667 -2.74075 0
M  V30 13088 H 1214.18 -0.692653 -1.42787 0
M  V30 13089 H 1214.2 0.760957 -3.72813 0
M  V30 13090 H 1213.71 -1.06378 -3.73236 0
M  V30 13091 H 1211.82 1.38671 -3.45834 0
M  V30 13092 H 1211.93 0.0543589 -4.79069 0
M  V30 13093 H 1210.29 0.125634 -2.5439 0
M  V30 13094 H 1211.08 -1.44562 -3.11379 0
M  V30 13095 N 1213.52 1.56172 -0.211661 0
M  V30 13096 C 1214.43 2.23468 0.714081 0
M  V30 13097 C 1215.45 1.23908 1.22159 0
M  V30 13098 O 1216.62 1.56693 1.26528 0
M  V30 13099 C 1213.69 2.89375 1.90953 0
M  V30 13100 C 1212.75 4.04251 1.44497 0
M  V30 13101 C 1211.98 4.67006 2.58343 0
M  V30 13102 O 1212.2 4.28721 3.76237 0
M  V30 13103 O 1211.14 5.56177 2.3011 0
M  V30 13104 H 1214.96 3.03219 0.170862 0
M  V30 13105 H 1212.55 1.49389 0.0183607 0
M  V30 13106 H 1214.43 3.3101 2.60787 0
M  V30 13107 H 1213.11 2.12591 2.44104 0
M  V30 13108 H 1212.01 3.67205 0.714932 0
M  V30 13109 H 1213.35 4.82748 0.959947 0
M  V30 13110 N 1215 -0.0618163 1.57479 0
M  V30 13111 C 1216.25 -0.759069 1.87735 0
M  V30 13112 C 1216.57 -1.77071 0.804732 0
M  V30 13113 O 1215.83 -1.94694 -0.198173 0
M  V30 13114 C 1216.13 -1.4939 3.2468 0
M  V30 13115 C 1215.79 -0.621312 4.46599 0
M  V30 13116 C 1214.46 -0.380873 4.7969 0
M  V30 13117 C 1216.81 -0.0168537 5.21197 0
M  V30 13118 C 1214.14 0.473341 5.84787 0
M  V30 13119 C 1216.49 0.824872 6.27199 0
M  V30 13120 C 1215.15 1.07509 6.58785 0
M  V30 13121 H 1214.42 -0.277763 0.686971 0
M  V30 13122 H 1217.07 -0.0195971 1.9149 0
M  V30 13123 H 1215.37 -2.30584 3.16762 0
M  V30 13124 H 1217.07 -2.03837 3.45328 0
M  V30 13125 H 1213.66 -0.818848 4.20705 0
M  V30 13126 H 1217.84 -0.189707 4.95937 0
M  V30 13127 H 1213.1 0.675842 6.07653 0
M  V30 13128 H 1217.27 1.29993 6.8416 0
M  V30 13129 H 1214.9 1.73876 7.40048 0
M  V30 13130 N 1216.48 -1.54033 -0.333429 0
M  V30 13131 C 1217.41 -1.85719 -1.4153 0
M  V30 13132 C 1218.39 -0.713144 -1.54429 0
M  V30 13133 O 1219.57 -0.965984 -1.68471 0
M  V30 13134 C 1216.7 -2.07578 -2.78439 0
M  V30 13135 C 1215.66 -3.23411 -2.80338 0
M  V30 13136 C 1214.98 -3.30622 -4.2023 0
M  V30 13137 C 1216.28 -4.6129 -2.44968 0
M  V30 13138 H 1217.98 -2.76325 -1.15261 0
M  V30 13139 H 1215.52 -1.32957 -0.55303 0
M  V30 13140 H 1217.48 -2.28329 -3.5418 0
M  V30 13141 H 1216.2 -1.13713 -3.06165 0
M  V30 13142 H 1214.86 -3.02531 -2.07052 0
M  V30 13143 H 1214.51 -2.34333 -4.45081 0
M  V30 13144 H 1214.21 -4.08466 -4.22409 0
M  V30 13145 H 1215.73 -3.53596 -4.97798 0
M  V30 13146 H 1217.14 -4.81987 -3.10421 0
M  V30 13147 H 1215.54 -5.41611 -2.58414 0
M  V30 13148 H 1216.61 -4.6421 -1.40134 0
M  V30 13149 N 1217.95 0.594978 -1.45938 0
M  V30 13150 C 1218.92 1.68688 -1.55168 0
M  V30 13151 C 1219.92 1.54945 -0.429951 0
M  V30 13152 O 1221.11 1.59785 -0.693859 0
M  V30 13153 C 1218.24 3.0804 -1.46027 0
M  V30 13154 H 1219.43 1.61866 -2.52467 0
M  V30 13155 H 1216.99 0.811785 -1.33565 0
M  V30 13156 H 1217.72 3.20428 -0.499614 0
M  V30 13157 H 1217.51 3.19423 -2.27401 0
M  V30 13158 H 1219 3.8755 -1.55546 0
M  V30 13159 N 1219.43 1.33438 0.838571 0
M  V30 13160 C 1220.84 1.22366 1.41009 0
M  V30 13161 C 1221.19 -0.157317 1.95568 0
M  V30 13162 O 1220.32 -1.05692 1.88834 0
M  V30 13163 C 1220.91 2.21542 2.56329 0
M  V30 13164 C 1219.47 2.14309 3.09433 0
M  V30 13165 C 1218.62 2.09012 1.82235 0
M  V30 13166 H 1221.57 1.45032 0.64431 0
M  V30 13167 H 1221.59 1.82332 3.33969 0
M  V30 13168 H 1221.1 3.22042 2.16589 0
M  V30 13169 H 1219.21 1.17113 3.53717 0
M  V30 13170 H 1219.32 3.04866 3.69586 0
M  V30 13171 H 1217.68 1.54492 2.02495 0
M  V30 13172 H 1218.47 3.11319 1.4469 0
M  V30 13173 N 1220.91 -1.05686 1.16912 0
M  V30 13174 C 1221.82 -2.16824 0.8958 0
M  V30 13175 C 1222.84 -1.73482 -0.134215 0
M  V30 13176 O 1224.01 -2.01352 0.0438776 0
M  V30 13177 C 1221.08 -3.44298 0.407427 0
M  V30 13178 C 1220.14 -4.02114 1.50342 0
M  V30 13179 C 1219.37 -5.23503 1.03826 0
M  V30 13180 O 1219.59 -5.70295 -0.109579 0
M  V30 13181 O 1218.53 -5.73432 1.8292 0
M  V30 13182 H 1222.35 -2.42725 1.82533 0
M  V30 13183 H 1219.94 -1.15339 0.949589 0
M  V30 13184 H 1221.82 -4.21159 0.142356 0
M  V30 13185 H 1220.5 -3.19908 -0.494009 0
M  V30 13186 H 1219.4 -3.26715 1.82231 0
M  V30 13187 H 1220.74 -4.30811 2.38039 0
M  V30 13188 N 1222.39 -0.968567 -1.24324 0
M  V30 13189 C 1223.63 -0.631863 -1.92705 0
M  V30 13190 C 1223.97 0.83096 -1.75524 0
M  V30 13191 O 1223.24 1.59795 -1.10887 0
M  V30 13192 C 1223.53 -1.00845 -3.45691 0
M  V30 13193 C 1223.38 -2.52803 -3.72036 0
M  V30 13194 C 1224.7 -0.543647 -4.36729 0
M  V30 13195 H 1221.82 -0.231027 -0.699854 0
M  V30 13196 H 1224.46 -1.20773 -1.46676 0
M  V30 13197 H 1222.61 -0.518434 -3.85025 0
M  V30 13198 H 1224.28 -3.09289 -3.42255 0
M  V30 13199 H 1222.52 -2.95963 -3.17157 0
M  V30 13200 H 1223.19 -2.74203 -4.79079 0
M  V30 13201 H 1225.67 -0.964182 -4.04775 0
M  V30 13202 H 1224.55 -0.8357 -5.42501 0
M  V30 13203 H 1224.81 0.556256 -4.38587 0
M  V30 13204 N 1223.87 1.39211 -0.738786 0
M  V30 13205 C 1224.8 2.33209 -0.11647 0
M  V30 13206 C 1225.78 1.54108 0.720056 0
M  V30 13207 O 1226.96 1.82486 0.664264 0
M  V30 13208 C 1224.09 3.38226 0.78872 0
M  V30 13209 C 1223.05 4.27963 0.0560636 0
M  V30 13210 C 1222.37 5.2371 1.07852 0
M  V30 13211 C 1223.67 5.10508 -1.1036 0
M  V30 13212 H 1225.37 2.85501 -0.901649 0
M  V30 13213 H 1222.91 1.37272 -0.435032 0
M  V30 13214 H 1224.87 4.02938 1.23364 0
M  V30 13215 H 1223.59 2.84382 1.60606 0
M  V30 13216 H 1222.25 3.64735 -0.369274 0
M  V30 13217 H 1221.9 4.66161 1.88953 0
M  V30 13218 H 1221.6 5.846 0.593048 0
M  V30 13219 H 1223.12 5.91299 1.52307 0
M  V30 13220 H 1224.53 5.68544 -0.736943 0
M  V30 13221 H 1222.93 5.80558 -1.51895 0
M  V30 13222 H 1224 4.45117 -1.92352 0
M  V30 13223 N 1225.34 0.486708 1.49896 0
M  V30 13224 C 1226.57 -0.0600816 2.06813 0
M  V30 13225 C 1226.99 -1.32112 1.34877 0
M  V30 13226 O 1226.34 -1.77537 0.422725 0
M  V30 13227 C 1226.4 -0.332266 3.5997 0
M  V30 13228 O 1226.12 0.878771 4.29196 0
M  V30 13229 C 1227.62 -0.924289 4.33557 0
M  V30 13230 H 1224.84 0.0140611 0.670853 0
M  V30 13231 H 1227.38 0.67997 1.92864 0
M  V30 13232 H 1225.54 -1.02227 3.73669 0
M  V30 13233 H 1225.95 0.632873 5.20668 0
M  V30 13234 H 1227.42 -1.06441 5.4164 0
M  V30 13235 H 1227.9 -1.91844 3.95085 0
M  V30 13236 H 1228.51 -0.272189 4.24428 0
M  V30 13237 N 1226.82 -1.56058 0.219941 0
M  V30 13238 C 1227.73 -2.23844 -0.70222 0
M  V30 13239 C 1228.75 -1.24554 -1.215 0
M  V30 13240 O 1229.93 -1.57362 -1.25695 0
M  V30 13241 C 1226.99 -2.90384 -1.89416 0
M  V30 13242 C 1226.05 -4.05012 -1.42351 0
M  V30 13243 C 1225.28 -4.68369 -2.55863 0
M  V30 13244 O 1225.51 -4.3071 -3.73958 0
M  V30 13245 O 1224.44 -5.5739 -2.27157 0
M  V30 13246 H 1228.27 -3.03305 -0.15478 0
M  V30 13247 H 1225.85 -1.49396 -0.010438 0
M  V30 13248 H 1227.73 -3.32389 -2.59028 0
M  V30 13249 H 1226.41 -2.13883 -2.42973 0
M  V30 13250 H 1225.32 -3.67579 -0.695448 0
M  V30 13251 H 1226.65 -4.83251 -0.934332 0
M  V30 13252 N 1228.3 0.053464 -1.57509 0
M  V30 13253 C 1229.53 0.761533 -1.92375 0
M  V30 13254 C 1229.94 1.70179 -0.817585 0
M  V30 13255 O 1229.3 1.81313 0.207843 0
M  V30 13256 C 1229.35 1.53954 -3.27078 0
M  V30 13257 O 1229.07 0.637054 -4.33443 0
M  V30 13258 C 1230.57 2.34697 -3.76075 0
M  V30 13259 H 1227.79 0.215483 -0.635459 0
M  V30 13260 H 1230.34 0.0182624 -2.04492 0
M  V30 13261 H 1228.49 2.23492 -3.16434 0
M  V30 13262 H 1228.91 1.18006 -5.11053 0
M  V30 13263 H 1230.38 2.84716 -4.72906 0
M  V30 13264 H 1230.86 3.15041 -3.06016 0
M  V30 13265 H 1231.46 1.70281 -3.89724 0
M  V30 13266 N 1229.78 1.54207 0.325255 0
M  V30 13267 C 1231 1.7661 1.08736 0
M  V30 13268 C 1231.43 0.512449 1.80985 0
M  V30 13269 O 1230.79 -0.535913 1.73198 0
M  V30 13270 C 1230.84 2.95797 2.06243 0
M  V30 13271 O 1229.94 2.67225 3.14109 0
M  V30 13272 H 1229.28 0.585282 0.313593 0
M  V30 13273 H 1231.81 2.01225 0.370066 0
M  V30 13274 H 1231.82 3.23097 2.49143 0
M  V30 13275 H 1230.5 3.86712 1.53058 0
M  V30 13276 H 1229.07 2.50869 2.75897 0
M  V30 13277 N 1231.26 -0.58723 1.46251 0
M  V30 13278 C 1232.49 -1.36976 1.54665 0
M  V30 13279 C 1232.9 -1.88293 0.185079 0
M  V30 13280 O 1232.24 -1.64028 -0.82707 0
M  V30 13281 C 1232.3 -2.59591 2.48702 0
M  V30 13282 C 1231.96 -2.29773 3.95036 0
M  V30 13283 C 1232.96 -1.88885 4.84374 0
M  V30 13284 C 1230.65 -2.42057 4.40129 0
M  V30 13285 C 1232.64 -1.60669 6.16818 0
M  V30 13286 C 1230.33 -2.13454 5.72609 0
M  V30 13287 C 1231.33 -1.72824 6.60773 0
M  V30 13288 O 1231.01 -1.44569 7.90794 0
M  V30 13289 H 1230.75 -0.424968 0.525717 0
M  V30 13290 H 1233.3 -0.721298 1.92319 0
M  V30 13291 H 1231.53 -3.27226 2.06058 0
M  V30 13292 H 1233.22 -3.21656 2.47573 0
M  V30 13293 H 1233.98 -1.78913 4.50794 0
M  V30 13294 H 1229.86 -2.72644 3.71734 0
M  V30 13295 H 1233.41 -1.28882 6.85591 0
M  V30 13296 H 1229.3 -2.23048 6.05739 0
M  V30 13297 H 1230.07 -1.58452 8.03016 0
M  V30 13298 N 1232.74 -1.33881 -0.831482 0
M  V30 13299 C 1233.96 -1.28812 -1.61911 0
M  V30 13300 C 1234.38 0.139519 -1.88284 0
M  V30 13301 O 1233.74 1.08397 -1.46821 0
M  V30 13302 C 1233.79 -2.06806 -2.96502 0
M  V30 13303 O 1233.51 -3.44 -2.71285 0
M  V30 13304 C 1235.01 -2.09033 -3.90922 0
M  V30 13305 H 1232.23 -0.443473 -0.50356 0
M  V30 13306 H 1234.77 -1.76365 -1.03516 0
M  V30 13307 H 1232.93 -1.62915 -3.51479 0
M  V30 13308 H 1233.34 -3.84213 -3.57044 0
M  V30 13309 H 1234.82 -2.68044 -4.82552 0
M  V30 13310 H 1235.29 -1.08249 -4.25651 0
M  V30 13311 H 1235.9 -2.52975 -3.41883 0
M  V30 13312 N 1234.21 1.05064 -1.1747 0
M  V30 13313 C 1235.63 1.30256 -0.922248 0
M  V30 13314 C 1235.83 1.97119 0.417896 0
M  V30 13315 O 1234.89 2.24557 1.15457 0
M  V30 13316 C 1236.2 2.17109 -2.08049 0
M  V30 13317 C 1237.75 2.30487 -2.11766 0
M  V30 13318 C 1238.22 3.20701 -3.26979 0
M  V30 13319 N 1239.71 3.28287 -3.26775 0
M  V30 13320 C 1240.45 3.98218 -4.12565 0
M  V30 13321 N 1239.94 4.70567 -5.08467 0
M  V30 13322 N 1241.74 3.94395 -4.00511 0
M  V30 13323 H 1233.89 0.600653 -2.0373 0
M  V30 13324 H 1236.15 0.327475 -0.889643 0
M  V30 13325 H 1235.86 1.75273 -3.04914 0
M  V30 13326 H 1235.73 3.1775 -2.03261 0
M  V30 13327 H 1238.12 2.71564 -1.15486 0
M  V30 13328 H 1238.2 1.29471 -2.20615 0
M  V30 13329 H 1237.84 2.80337 -4.23525 0
M  V30 13330 H 1237.77 4.21725 -3.15366 0
M  V30 13331 H 1240.26 2.76739 -2.5734 0
M  V30 13332 H 1240.58 5.21492 -5.70321 0
M  V30 13333 H 1238.92 4.69505 -5.12436 0
M  V30 13334 H 1242.11 3.37 -3.24882 0
M  V30 13335 H 1242.29 4.48626 -4.67588 0
M  V30 13336 N 1235.69 0.975146 1.23809 0
M  V30 13337 C 1236.65 0.516157 2.23312 0
M  V30 13338 C 1237.65 -0.39136 1.55965 0
M  V30 13339 O 1238.84 -0.185783 1.73206 0
M  V30 13340 C 1235.98 -0.251534 3.39971 0
M  V30 13341 H 1237.17 1.3959 2.65433 0
M  V30 13342 H 1234.72 0.760493 1.36551 0
M  V30 13343 H 1235.46 -1.14805 3.03299 0
M  V30 13344 H 1235.24 0.399825 3.90056 0
M  V30 13345 H 1236.73 -0.561438 4.13809 0
M  V30 13346 N 1237.17 -1.38817 0.746158 0
M  V30 13347 C 1238.42 -2.00577 0.299458 0
M  V30 13348 C 1238.75 -1.59087 -1.11378 0
M  V30 13349 O 1238.02 -0.824932 -1.7614 0
M  V30 13350 C 1238.31 -3.57713 0.413932 0
M  V30 13351 C 1238.16 -4.09189 1.86774 0
M  V30 13352 C 1239.48 -4.39659 -0.197082 0
M  V30 13353 H 1236.6 -0.728702 0.110285 0
M  V30 13354 H 1239.24 -1.64866 0.944408 0
M  V30 13355 H 1237.39 -3.88265 -0.135155 0
M  V30 13356 H 1239.06 -3.89311 2.47456 0
M  V30 13357 H 1237.3 -3.62333 2.38532 0
M  V30 13358 H 1237.98 -5.18305 1.89904 0
M  V30 13359 H 1240.45 -4.15216 0.271121 0
M  V30 13360 H 1239.33 -5.48832 -0.0867011 0
M  V30 13361 H 1239.59 -4.23028 -1.2845 0
M  V30 13362 N 1238.65 -0.49465 -1.49636 0
M  V30 13363 C 1239.92 0.114829 -1.95263 0
M  V30 13364 C 1240.3 1.54739 -1.43593 0
M  V30 13365 O 1239.65 2.1915 -0.646953 0
M  V30 13366 C 1239.86 0.0339912 -3.48983 0
M  V30 13367 C 1241.21 0.211108 -4.24075 0
M  V30 13368 O 1242.23 0.109478 -3.56032 0
M  V30 13369 O 1241.09 0.418971 -5.44892 0
M  V30 13370 H 1238.19 0.0987883 -0.821078 0
M  V30 13371 H 1240.73 -0.556736 -1.60308 0
M  V30 13372 H 1239.51 -0.965287 -3.79207 0
M  V30 13373 H 1239.13 0.745982 -3.90539 0
M  V30 13374 N 1240.13 1.55939 -0.228214 0
M  V30 13375 C 1241.37 1.99518 0.395485 0
M  V30 13376 C 1241.73 1.11339 1.56912 0
M  V30 13377 O 1241.02 0.164788 1.9089 0
M  V30 13378 C 1241.21 3.46581 0.872732 0
M  V30 13379 C 1241.04 4.48987 -0.253122 0
M  V30 13380 C 1239.81 5.0012 -0.721702 0
M  V30 13381 C 1242.01 5.02967 -1.0737 0
M  V30 13382 N 1239.99 5.86242 -1.82192 0
M  V30 13383 C 1241.36 5.86079 -2.02265 0
M  V30 13384 C 1243.42 4.85315 -1.11238 0
M  V30 13385 C 1242.12 6.53424 -3.00716 0
M  V30 13386 C 1244.15 5.53423 -2.0851 0
M  V30 13387 C 1243.51 6.36308 -3.02144 0
M  V30 13388 H 1239.61 0.774053 0.1112 0
M  V30 13389 H 1242.19 1.91681 -0.341512 0
M  V30 13390 H 1240.36 3.54852 1.57907 0
M  V30 13391 H 1242.1 3.77066 1.46981 0
M  V30 13392 H 1238.85 4.7259 -0.309119 0
M  V30 13393 H 1239.27 6.34003 -2.37423 0
M  V30 13394 H 1243.92 4.20881 -0.402389 0
M  V30 13395 H 1241.63 7.17035 -3.72674 0
M  V30 13396 H 1245.22 5.41727 -2.12186 0
M  V30 13397 H 1244.1 6.88081 -3.76183 0
M  V30 13398 N 1241.6 -0.0451101 1.57535 0
M  V30 13399 C 1242.85 -0.734819 1.89663 0
M  V30 13400 C 1243.21 -1.73814 0.82502 0
M  V30 13401 O 1242.5 -1.90861 -0.168067 0
M  V30 13402 C 1242.69 -1.45938 3.26247 0
M  V30 13403 C 1242.52 -0.52775 4.46593 0
M  V30 13404 C 1241.29 -0.154735 5.05063 0
M  V30 13405 C 1243.49 0.187025 5.1396 0
M  V30 13406 N 1241.47 0.77983 6.08927 0
M  V30 13407 C 1242.84 0.977812 6.12241 0
M  V30 13408 C 1244.9 0.255673 4.97243 0
M  V30 13409 C 1243.6 1.83091 6.95608 0
M  V30 13410 C 1245.63 1.09584 5.81159 0
M  V30 13411 C 1244.99 1.8746 6.78998 0
M  V30 13412 H 1241.09 -0.243486 0.743128 0
M  V30 13413 H 1243.67 0.00462003 1.94699 0
M  V30 13414 H 1241.84 -2.16938 3.22169 0
M  V30 13415 H 1243.57 -2.10021 3.45938 0
M  V30 13416 H 1240.33 -0.513447 4.70809 0
M  V30 13417 H 1240.75 1.24114 6.65526 0
M  V30 13418 H 1245.4 -0.332093 4.21494 0
M  V30 13419 H 1243.11 2.42954 7.70713 0
M  V30 13420 H 1246.7 1.15228 5.70275 0
M  V30 13421 H 1245.58 2.51422 7.42803 0
M  V30 13422 N 1243.08 -1.54377 -0.317073 0
M  V30 13423 C 1244.33 -1.72551 -1.05216 0
M  V30 13424 C 1244.65 -0.5055 -1.88334 0
M  V30 13425 O 1243.92 0.480439 -1.89917 0
M  V30 13426 H 1242.5 -0.636222 -0.391447 0
M  V30 13427 H 1245.16 -1.91696 -0.35194 0
M  V30 13428 H 1244.26 -2.60791 -1.71448 0
M  V30 13429 N 1244.56 0.579466 -1.4656 0
M  V30 13430 C 1245.49 1.69846 -1.60233 0
M  V30 13431 C 1246.47 1.6397 -0.452533 0
M  V30 13432 O 1247.66 1.81936 -0.679174 0
M  V30 13433 C 1244.79 3.08488 -1.59538 0
M  V30 13434 C 1243.74 3.29197 -2.7352 0
M  V30 13435 C 1243.07 4.684 -2.57887 0
M  V30 13436 C 1244.37 3.16718 -4.15315 0
M  V30 13437 H 1246.06 1.5866 -2.53904 0
M  V30 13438 H 1243.61 0.761873 -1.22194 0
M  V30 13439 H 1245.56 3.86595 -1.67696 0
M  V30 13440 H 1244.28 3.20581 -0.62413 0
M  V30 13441 H 1242.94 2.53491 -2.64836 0
M  V30 13442 H 1242.59 4.77262 -1.58839 0
M  V30 13443 H 1242.29 4.83208 -3.34341 0
M  V30 13444 H 1243.81 5.48671 -2.67942 0
M  V30 13445 H 1245.23 3.84666 -4.25094 0
M  V30 13446 H 1243.63 3.43047 -4.92381 0
M  V30 13447 H 1244.7 2.13755 -4.35244 0
M  V30 13448 N 1246.04 1.3432 0.824371 0
M  V30 13449 C 1247.29 1.26345 1.57738 0
M  V30 13450 C 1247.61 -0.166836 1.94285 0
M  V30 13451 O 1246.88 -1.09911 1.62162 0
M  V30 13452 H 1245.46 0.46466 0.584893 0
M  V30 13453 H 1248.12 1.68214 0.984373 0
M  V30 13454 H 1247.22 1.8672 2.50084 0
M  V30 13455 N 1247.52 -1.0444 1.18026 0
M  V30 13456 C 1248.76 -1.77838 0.974756 0
M  V30 13457 C 1249.1 -1.87792 -0.494755 0
M  V30 13458 O 1248.37 -1.38327 -1.36733 0
M  V30 13459 C 1248.65 -3.21315 1.62569 0
M  V30 13460 C 1248.51 -3.19327 3.16781 0
M  V30 13461 C 1249.83 -4.19337 1.33583 0
M  V30 13462 H 1246.94 -0.645575 0.35553 0
M  V30 13463 H 1249.59 -1.22023 1.45638 0
M  V30 13464 H 1247.74 -3.68974 1.21617 0
M  V30 13465 H 1249.41 -2.79687 3.66842 0
M  V30 13466 H 1247.65 -2.57461 3.49137 0
M  V30 13467 H 1248.32 -4.20626 3.5746 0
M  V30 13468 H 1250.8 -3.80208 1.69059 0
M  V30 13469 H 1249.67 -5.17953 1.81702 0
M  V30 13470 H 1249.94 -4.41346 0.258016 0
M  V30 13471 N 1248.99 -0.981699 -1.2329 0
M  V30 13472 C 1249.92 -0.542441 -2.27112 0
M  V30 13473 C 1250.91 0.425034 -1.64704 0
M  V30 13474 O 1252.09 0.318114 -1.91577 0
M  V30 13475 C 1249.22 0.154668 -3.46955 0
M  V30 13476 C 1248.17 -0.73022 -4.21725 0
M  V30 13477 C 1247.5 0.0991766 -5.34608 0
M  V30 13478 C 1248.8 -2.02166 -4.81587 0
M  V30 13479 H 1250.49 -1.41024 -2.64107 0
M  V30 13480 H 1248.04 -0.679544 -1.26957 0
M  V30 13481 H 1249.99 0.473281 -4.18734 0
M  V30 13482 H 1248.72 1.05693 -3.09025 0
M  V30 13483 H 1247.38 -1.03231 -3.51765 0
M  V30 13484 H 1247.02 1.00201 -4.92919 0
M  V30 13485 H 1246.72 -0.489788 -5.85555 0
M  V30 13486 H 1248.25 0.412141 -6.09207 0
M  V30 13487 H 1249.66 -1.76773 -5.45366 0
M  V30 13488 H 1248.06 -2.55851 -5.42826 0
M  V30 13489 H 1249.13 -2.70766 -4.02261 0
M  V30 13490 N 1250.47 1.3842 -0.753509 0
M  V30 13491 C 1251.72 1.99359 -0.306416 0
M  V30 13492 C 1252.03 1.60492 1.11811 0
M  V30 13493 O 1253.24 2.14401 1.66567 0
M  V30 13494 C 1251.7 3.56453 -0.496895 0
M  V30 13495 C 1251.3 4.04272 -1.9305 0
M  V30 13496 C 1253.05 4.24351 -0.11251 0
M  V30 13497 C 1250.96 5.54007 -2.06955 0
M  V30 13498 H 1249.89 0.745812 -0.110818 0
M  V30 13499 H 1252.54 1.58185 -0.930039 0
M  V30 13500 H 1250.92 3.95515 0.195912 0
M  V30 13501 H 1252.09 3.765 -2.65677 0
M  V30 13502 H 1250.41 3.49098 -2.26979 0
M  V30 13503 H 1253 5.34344 -0.195161 0
M  V30 13504 H 1253.35 4.05668 0.934849 0
M  V30 13505 H 1253.88 3.90528 -0.757168 0
M  V30 13506 H 1250.62 5.77594 -3.09944 0
M  V30 13507 H 1250.14 5.83522 -1.38788 0
M  V30 13508 H 1251.82 6.19704 -1.85945 0
M  V30 13509 N 1251.95 0.502579 1.49372 0
M  V30 13510 C 1253.18 -0.0380876 2.06565 0
M  V30 13511 C 1253.59 -1.31224 1.36297 0
M  V30 13512 O 1252.93 -1.78463 0.435517 0
M  V30 13513 C 1252.99 -0.360462 3.57688 0
M  V30 13514 C 1252.66 0.816203 4.49652 0
M  V30 13515 C 1253.65 1.70713 4.91073 0
M  V30 13516 C 1251.34 1.01545 4.91929 0
M  V30 13517 C 1253.33 2.78144 5.73511 0
M  V30 13518 C 1251.02 2.09294 5.74142 0
M  V30 13519 C 1252.02 2.97428 6.14838 0
M  V30 13520 O 1251.71 4.03317 6.95407 0
M  V30 13521 H 1251.44 0.0179548 0.675762 0
M  V30 13522 H 1253.99 0.699609 1.93118 0
M  V30 13523 H 1252.22 -1.15177 3.69149 0
M  V30 13524 H 1253.91 -0.839931 3.97115 0
M  V30 13525 H 1254.68 1.56502 4.59056 0
M  V30 13526 H 1250.56 0.338822 4.59753 0
M  V30 13527 H 1254.1 3.46965 6.05195 0
M  V30 13528 H 1250 2.235 6.05572 0
M  V30 13529 H 1250.77 4.00689 7.13716 0
M  V30 13530 N 1253.43 -1.55816 0.23648 0
M  V30 13531 C 1254.34 -2.24576 -0.678439 0
M  V30 13532 C 1255.35 -1.25836 -1.20172 0
M  V30 13533 O 1256.53 -1.58686 -1.24019 0
M  V30 13534 C 1253.6 -2.92376 -1.86325 0
M  V30 13535 C 1252.66 -4.06499 -1.38047 0
M  V30 13536 C 1251.89 -4.71057 -2.50881 0
M  V30 13537 O 1252.11 -4.34652 -3.69369 0
M  V30 13538 O 1251.05 -5.59768 -2.21232 0
M  V30 13539 H 1254.87 -3.03452 -0.122601 0
M  V30 13540 H 1252.46 -1.49399 0.00540803 0
M  V30 13541 H 1254.34 -3.35117 -2.55488 0
M  V30 13542 H 1253.01 -2.16448 -2.40691 0
M  V30 13543 H 1251.92 -3.68296 -0.656422 0
M  V30 13544 H 1253.25 -4.84214 -0.883024 0
M  V30 13545 N 1254.91 0.036755 -1.57557 0
M  V30 13546 C 1255.84 1.07261 -2.01421 0
M  V30 13547 C 1256.82 1.35609 -0.897161 0
M  V30 13548 O 1258 1.48395 -1.16237 0
M  V30 13549 C 1255.13 2.40912 -2.38074 0
M  V30 13550 C 1254.17 2.28471 -3.60143 0
M  V30 13551 S 1255.01 1.64544 -5.09594 0
M  V30 13552 C 1256.16 2.99701 -5.49482 0
M  V30 13553 H 1256.4 0.698959 -2.88967 0
M  V30 13554 H 1253.93 0.246481 -1.5242 0
M  V30 13555 H 1255.89 3.17776 -2.59862 0
M  V30 13556 H 1254.55 2.75427 -1.50993 0
M  V30 13557 H 1253.74 3.27117 -3.8342 0
M  V30 13558 H 1253.34 1.59749 -3.38166 0
M  V30 13559 H 1255.64 3.96032 -5.49695 0
M  V30 13560 H 1256.58 2.81166 -6.49885 0
M  V30 13561 H 1256.99 3.0192 -4.76975 0
M  V30 13562 N 1256.39 1.54543 0.308881 0
M  V30 13563 C 1257.32 1.87947 1.38557 0
M  V30 13564 C 1258.3 0.737622 1.53275 0
M  V30 13565 O 1259.48 0.992664 1.66913 0
M  V30 13566 C 1256.61 2.11982 2.75102 0
M  V30 13567 C 1255.57 3.2783 2.75158 0
M  V30 13568 C 1254.89 3.37266 4.14917 0
M  V30 13569 C 1256.19 4.65129 2.37598 0
M  V30 13570 H 1257.89 2.78123 1.1085 0
M  V30 13571 H 1255.43 1.3382 0.531808 0
M  V30 13572 H 1257.38 2.33935 3.50503 0
M  V30 13573 H 1256.11 1.18569 3.04317 0
M  V30 13574 H 1254.77 3.05787 2.02212 0
M  V30 13575 H 1254.42 2.41384 4.41296 0
M  V30 13576 H 1254.12 4.15135 4.15857 0
M  V30 13577 H 1255.64 3.61471 4.92109 0
M  V30 13578 H 1257.05 4.86865 3.02714 0
M  V30 13579 H 1255.45 5.45653 2.49765 0
M  V30 13580 H 1256.52 4.6638 1.32731 0
M  V30 13581 N 1257.86 -0.571685 1.46866 0
M  V30 13582 C 1259.11 -1.33145 1.52972 0
M  V30 13583 C 1259.44 -1.93314 0.185344 0
M  V30 13584 O 1258.72 -1.77083 -0.80447 0
M  V30 13585 C 1259 -2.4525 2.63675 0
M  V30 13586 C 1258.85 -1.90044 4.0768 0
M  V30 13587 C 1260.17 -3.47247 2.70384 0
M  V30 13588 H 1257.29 -0.482751 0.556885 0
M  V30 13589 H 1259.93 -0.641163 1.78855 0
M  V30 13590 H 1258.08 -3.04132 2.41735 0
M  V30 13591 H 1259.76 -1.35535 4.4094 0
M  V30 13592 H 1258 -1.20805 4.1664 0
M  V30 13593 H 1258.67 -2.71019 4.80887 0
M  V30 13594 H 1261.15 -2.98263 2.90135 0
M  V30 13595 H 1260.02 -4.23132 3.49643 0
M  V30 13596 H 1260.28 -4.05179 1.76868 0
M  V30 13597 N 1259.34 -1.34755 -0.817236 0
M  V30 13598 C 1260.59 -1.2718 -1.57066 0
M  V30 13599 C 1260.91 0.156531 -1.94371 0
M  V30 13600 O 1260.18 1.09049 -1.62742 0
M  V30 13601 H 1258.76 -0.467755 -0.582421 0
M  V30 13602 H 1261.42 -1.68734 -0.975438 0
M  V30 13603 H 1260.52 -1.88043 -2.49091 0
M  V30 13604 N 1260.82 1.03812 -1.18578 0
M  V30 13605 C 1261.73 2.15371 -0.930182 0
M  V30 13606 C 1262.75 1.73673 0.106599 0
M  V30 13607 O 1263.92 2.01257 -0.0759054 0
M  V30 13608 C 1260.99 3.43606 -0.462151 0
M  V30 13609 C 1260.05 3.99671 -1.5672 0
M  V30 13610 C 1259.28 5.21785 -1.12141 0
M  V30 13611 O 1259.5 5.70397 0.0188357 0
M  V30 13612 O 1258.44 5.70449 -1.9202 0
M  V30 13613 H 1262.26 2.39791 -1.86371 0
M  V30 13614 H 1259.85 1.13814 -0.967819 0
M  V30 13615 H 1261.73 4.2088 -0.20934 0
M  V30 13616 H 1260.41 3.20654 0.443052 0
M  V30 13617 H 1259.31 3.23774 -1.87406 0
M  V30 13618 H 1260.65 4.2697 -2.44862 0
M  V30 13619 N 1262.3 0.988223 1.22768 0
M  V30 13620 C 1263.52 0.679426 1.95955 0
M  V30 13621 C 1263.95 -0.748483 1.72567 0
M  V30 13622 O 1263.31 -1.51097 1.00197 0
M  V30 13623 C 1263.35 0.985284 3.46878 0
M  V30 13624 O 1262.46 0.0814607 4.1232 0
M  V30 13625 H 1261.8 0.254749 0.613188 0
M  V30 13626 H 1264.33 1.32393 1.55991 0
M  V30 13627 H 1264.34 0.925198 3.97371 0
M  V30 13628 H 1263.01 2.02581 3.63227 0
M  V30 13629 H 1261.59 0.196629 3.72381 0
M  V30 13630 N 1263.78 -1.38018 0.760839 0
M  V30 13631 C 1265.19 -1.82645 0.387022 0
M  V30 13632 C 1265.54 -1.63445 -1.08536 0
M  V30 13633 O 1264.66 -1.13958 -1.83963 0
M  V30 13634 C 1265.26 -3.3158 0.69569 0
M  V30 13635 C 1263.82 -3.74527 0.375063 0
M  V30 13636 C 1262.96 -2.60696 0.94515 0
M  V30 13637 H 1265.91 -1.26644 0.956396 0
M  V30 13638 H 1265.94 -3.80493 -0.0235511 0
M  V30 13639 H 1265.45 -3.45522 1.76737 0
M  V30 13640 H 1263.55 -3.6616 -0.689741 0
M  V30 13641 H 1263.66 -4.71029 0.875685 0
M  V30 13642 H 1262.03 -2.51997 0.370065 0
M  V30 13643 H 1262.81 -2.77434 2.02201 0
M  V30 13644 N 1265.25 -0.510493 -1.49103 0
M  V30 13645 C 1266.5 0.0306436 -2.02477 0
M  V30 13646 C 1266.83 1.36113 -1.38937 0
M  V30 13647 O 1266.08 1.88731 -0.517584 0
M  V30 13648 C 1266.38 0.221921 -3.5671 0
M  V30 13649 C 1266.05 -1.03176 -4.38937 0
M  V30 13650 C 1264.71 -1.37539 -4.61125 0
M  V30 13651 C 1267.06 -1.86464 -4.86704 0
M  V30 13652 C 1264.39 -2.55124 -5.28326 0
M  V30 13653 C 1266.74 -3.03211 -5.55199 0
M  V30 13654 C 1265.41 -3.37943 -5.75631 0
M  V30 13655 H 1264.68 0.0112133 -0.740915 0
M  V30 13656 H 1267.32 -0.672574 -1.79301 0
M  V30 13657 H 1265.63 1.00775 -3.78618 0
M  V30 13658 H 1267.33 0.655223 -3.95611 0
M  V30 13659 H 1263.92 -0.754105 -4.21914 0
M  V30 13660 H 1268.1 -1.61229 -4.69381 0
M  V30 13661 H 1263.36 -2.8226 -5.42346 0
M  V30 13662 H 1267.53 -3.68068 -5.91185 0
M  V30 13663 H 1265.16 -4.29158 -6.27477 0
M  V30 13664 N 1266.73 1.55688 -0.24474 0
M  V30 13665 C 1268.14 1.84897 0.25882 0
M  V30 13666 C 1268.49 1.16653 1.57755 0
M  V30 13667 O 1267.62 0.444162 2.11793 0
M  V30 13668 C 1268.21 3.35434 0.476385 0
M  V30 13669 C 1266.77 3.64877 0.924213 0
M  V30 13670 C 1265.92 2.773 0.00021322 0
M  V30 13671 H 1268.87 1.51662 -0.467358 0
M  V30 13672 H 1268.89 3.56896 1.31929 0
M  V30 13673 H 1268.4 3.85076 -0.483567 0
M  V30 13674 H 1266.5 3.20711 1.89671 0
M  V30 13675 H 1266.62 4.72665 0.78257 0
M  V30 13676 H 1264.98 2.49517 0.511194 0
M  V30 13677 H 1265.76 3.29747 -0.955072 0
M  V30 13678 N 1268.21 -0.0283989 1.57574 0
M  V30 13679 C 1269.46 -0.717656 1.88929 0
M  V30 13680 C 1269.78 -1.7586 0.842517 0
M  V30 13681 O 1269.05 -1.95509 -0.123774 0
M  V30 13682 H 1267.63 -0.268051 0.69725 0
M  V30 13683 H 1270.29 0.00580691 1.94899 0
M  V30 13684 H 1269.39 -1.2068 2.87824 0
M  V30 13685 N 1269.69 -1.54705 -0.300681 0
M  V30 13686 C 1270.96 -1.6468 -1.05546 0
M  V30 13687 C 1271.34 -0.495292 -2.05207 0
M  V30 13688 O 1270.69 0.507944 -2.22783 0
M  V30 13689 C 1270.9 -3.02702 -1.73703 0
M  V30 13690 C 1272.25 -3.59527 -2.25888 0
M  V30 13691 O 1273.27 -3.05156 -1.83735 0
M  V30 13692 O 1272.13 -4.54727 -3.03126 0
M  V30 13693 H 1269.23 -0.667769 -0.487867 0
M  V30 13694 H 1271.77 -1.6705 -0.298743 0
M  V30 13695 H 1270.55 -3.7795 -1.01338 0
M  V30 13696 H 1270.17 -3.0411 -2.5613 0
M  V30 13697 N 1271.17 0.563888 -1.47167 0
M  V30 13698 C 1272.44 1.32454 -1.43928 0
M  V30 13699 C 1272.82 2.10683 -0.13267 0
M  V30 13700 O 1272.17 2.1063 0.885845 0
M  V30 13701 C 1272.38 2.2347 -2.68071 0
M  V30 13702 C 1273.73 2.84702 -3.15008 0
M  V30 13703 O 1274.75 2.33775 -2.68752 0
M  V30 13704 O 1273.61 3.77251 -3.95404 0
M  V30 13705 H 1270.71 0.596074 -0.573258 0
M  V30 13706 H 1273.25 0.583345 -1.59359 0
M  V30 13707 H 1272.02 1.6522 -3.54708 0
M  V30 13708 H 1271.65 3.04897 -2.55193 0
M  V30 13709 N 1272.64 1.35187 0.810078 0
M  V30 13710 C 1273.55 1.29926 1.95337 0
M  V30 13711 C 1274.57 0.204748 1.72791 0
M  V30 13712 O 1275.75 0.433507 1.96679 0
M  V30 13713 C 1272.81 1.06736 3.29861 0
M  V30 13714 C 1271.87 2.25466 3.65326 0
M  V30 13715 C 1271.11 2.03373 4.93432 0
M  V30 13716 O 1271.33 0.998419 5.61594 0
M  V30 13717 O 1270.26 2.90648 5.27075 0
M  V30 13718 H 1274.09 2.26137 2.02721 0
M  V30 13719 H 1271.67 1.15523 0.947354 0
M  V30 13720 H 1273.56 0.956367 4.10404 0
M  V30 13721 H 1272.23 0.135735 3.23415 0
M  V30 13722 H 1271.14 2.42129 2.85175 0
M  V30 13723 H 1272.47 3.17063 3.76473 0
M  V30 13724 N 1274.12 -1.03182 1.19127 0
M  V30 13725 C 1275.03 -2.14875 0.94159 0
M  V30 13726 C 1276.05 -1.73727 -0.0973872 0
M  V30 13727 O 1277.22 -2.01214 0.0865775 0
M  V30 13728 C 1274.29 -3.43356 0.480366 0
M  V30 13729 C 1273.35 -3.98835 1.58838 0
M  V30 13730 C 1272.58 -5.21183 1.14907 0
M  V30 13731 O 1272.81 -5.70399 0.0114141 0
M  V30 13732 O 1271.74 -5.69423 1.95042 0
M  V30 13733 H 1275.57 -2.38799 1.8764 0
M  V30 13734 H 1273.15 -1.13299 0.973841 0
M  V30 13735 H 1275.03 -4.20763 0.231658 0
M  V30 13736 H 1273.71 -3.20884 -0.426041 0
M  V30 13737 H 1272.62 -3.22776 1.8912 0
M  V30 13738 H 1273.95 -4.25665 2.47123 0
M  V30 13739 N 1275.6 -0.99472 -1.22242 0
M  V30 13740 C 1276.51 -0.555502 -2.27928 0
M  V30 13741 C 1277.53 0.396584 -1.6942 0
M  V30 13742 O 1278.7 0.262965 -1.99676 0
M  V30 13743 C 1275.77 0.121121 -3.46488 0
M  V30 13744 C 1274.83 -0.874155 -4.20306 0
M  V30 13745 C 1274.06 -0.229726 -5.33205 0
M  V30 13746 O 1274.28 0.975935 -5.61989 0
M  V30 13747 O 1273.22 -0.935501 -5.94586 0
M  V30 13748 H 1277.04 -1.4348 -2.6767 0
M  V30 13749 H 1274.63 -0.763061 -1.28444 0
M  V30 13750 H 1276.51 0.500043 -4.18423 0
M  V30 13751 H 1275.19 0.974959 -3.08668 0
M  V30 13752 H 1274.09 -1.30404 -3.50636 0
M  V30 13753 H 1275.43 -1.69725 -4.62011 0
M  V30 13754 N 1277.08 1.37613 -0.768148 0
M  V30 13755 C 1278.32 2.00075 -0.331331 0
M  V30 13756 C 1278.66 1.60839 1.08833 0
M  V30 13757 O 1277.93 0.852849 1.74805 0
M  V30 13758 C 1278.22 3.57009 -0.470789 0
M  V30 13759 C 1278.07 4.06166 -1.9326 0
M  V30 13760 C 1279.39 4.39916 0.127111 0
M  V30 13761 H 1276.51 0.726855 -0.121864 0
M  V30 13762 H 1279.15 1.63343 -0.970518 0
M  V30 13763 H 1277.3 3.88431 0.0733688 0
M  V30 13764 H 1278.97 3.85325 -2.53618 0
M  V30 13765 H 1277.21 3.58492 -2.44266 0
M  V30 13766 H 1277.88 5.15219 -1.98125 0
M  V30 13767 H 1280.36 4.14732 -0.337144 0
M  V30 13768 H 1279.24 5.489 -0.000624226 0
M  V30 13769 H 1279.5 4.25018 1.21704 0
M  V30 13770 N 1278.56 0.518393 1.4883 0
M  V30 13771 C 1279.8 -0.0199053 2.0249 0
M  V30 13772 C 1280.13 -1.35375 1.39657 0
M  V30 13773 O 1279.39 -1.88454 0.527586 0
M  V30 13774 C 1279.69 -0.203001 3.56823 0
M  V30 13775 C 1279.35 1.05502 4.38384 0
M  V30 13776 C 1278.01 1.39982 4.60389 0
M  V30 13777 C 1280.37 1.89042 4.85708 0
M  V30 13778 C 1277.69 2.57922 5.26966 0
M  V30 13779 C 1280.05 3.06151 5.53583 0
M  V30 13780 C 1278.71 3.40991 5.73831 0
M  V30 13781 H 1277.98 -0.00728388 0.740964 0
M  V30 13782 H 1280.63 0.682073 1.78941 0
M  V30 13783 H 1278.93 -0.987653 3.79147 0
M  V30 13784 H 1280.63 -0.634234 3.95953 0
M  V30 13785 H 1277.22 0.77647 4.21508 0
M  V30 13786 H 1281.4 1.63716 4.6852 0
M  V30 13787 H 1276.66 2.85132 5.40842 0
M  V30 13788 H 1280.83 3.71198 5.89224 0
M  V30 13789 H 1278.46 4.32479 6.25193 0
M  V30 13790 N 1280.03 -1.55556 0.252993 0
M  V30 13791 C 1281.31 -1.91022 -0.420696 0
M  V30 13792 C 1281.69 -1.17452 -1.75409 0
M  V30 13793 O 1281.04 -0.294 -2.26601 0
M  V30 13794 C 1281.25 -3.441 -0.582787 0
M  V30 13795 C 1282.6 -4.15468 -0.875873 0
M  V30 13796 O 1283.62 -3.49872 -0.668425 0
M  V30 13797 O 1282.48 -5.31508 -1.27128 0
M  V30 13798 H 1279.57 -0.7953 -0.226776 0
M  V30 13799 H 1282.12 -1.67072 0.297511 0
M  V30 13800 H 1280.89 -3.89673 0.356474 0
M  V30 13801 H 1280.52 -3.73933 -1.3513 0
M  V30 13802 N 1281.51 0.0200419 -1.57587 0
M  V30 13803 C 1282.74 0.724241 -1.94344 0
M  V30 13804 C 1283.16 1.67612 -0.853688 0
M  V30 13805 O 1282.52 1.80303 0.189873 0
M  V30 13806 C 1282.57 1.44967 -3.30177 0
M  V30 13807 O 1281.67 2.56326 -3.23064 0
M  V30 13808 H 1281.01 0.194142 -0.634984 0
M  V30 13809 H 1283.54 -0.0271756 -2.04582 0
M  V30 13810 H 1283.55 1.81758 -3.65278 0
M  V30 13811 H 1282.23 0.75161 -4.09052 0
M  V30 13812 H 1280.81 2.22011 -2.99609 0
M  V30 13813 N 1282.99 1.54862 0.292472 0
M  V30 13814 C 1284.24 1.73756 1.02429 0
M  V30 13815 C 1284.55 0.535164 1.88137 0
M  V30 13816 O 1285.76 0.606092 2.64648 0
M  V30 13817 C 1284.21 3.0745 1.8709 0
M  V30 13818 C 1283.82 4.35195 1.06343 0
M  V30 13819 C 1285.57 3.357 2.59819 0
M  V30 13820 C 1283.47 5.59936 1.9033 0
M  V30 13821 H 1282.4 0.647617 0.386145 0
M  V30 13822 H 1285.05 1.81338 0.28086 0
M  V30 13823 H 1283.44 2.93855 2.65453 0
M  V30 13824 H 1284.61 4.5965 0.325335 0
M  V30 13825 H 1282.93 4.13944 0.451574 0
M  V30 13826 H 1285.52 4.26099 3.23023 0
M  V30 13827 H 1285.87 2.54956 3.29094 0
M  V30 13828 H 1286.4 3.50304 1.88499 0
M  V30 13829 H 1283.14 6.43372 1.25509 0
M  V30 13830 H 1282.66 5.39654 2.61789 0
M  V30 13831 H 1284.34 5.97512 2.48171 0
M  V30 13832 N 1284.47 -0.556076 1.47464 0
M  V30 13833 C 1285.71 -1.31515 1.54375 0
M  V30 13834 C 1286.05 -1.93106 0.205837 0
M  V30 13835 O 1285.32 -1.77927 -0.785643 0
M  V30 13836 C 1285.61 -2.4244 2.66261 0
M  V30 13837 C 1285.46 -1.8571 4.09673 0
M  V30 13838 C 1286.78 -3.4436 2.74051 0
M  V30 13839 H 1283.9 -0.476817 0.561974 0
M  V30 13840 H 1286.54 -0.622157 1.79525 0
M  V30 13841 H 1284.69 -3.01551 2.44948 0
M  V30 13842 H 1286.36 -1.30851 4.42353 0
M  V30 13843 H 1284.6 -1.16379 4.17898 0
M  V30 13844 H 1285.27 -2.65904 4.83735 0
M  V30 13845 H 1287.75 -2.95169 2.93282 0
M  V30 13846 H 1286.63 -4.194 3.54111 0
M  V30 13847 H 1286.89 -4.03281 1.81155 0
M  V30 13848 N 1285.95 -1.35615 -0.802897 0
M  V30 13849 C 1286.9 -1.28877 -1.93632 0
M  V30 13850 C 1287.89 -0.183014 -1.68408 0
M  V30 13851 O 1289.1 -0.349218 -1.7658 0
M  V30 13852 H 1285.47 -0.400883 -0.636236 0
M  V30 13853 H 1287.44 -2.24624 -1.96435 0
M  V30 13854 C 1286.19 -1.08136 -3.30457 0
M  V30 13855 H 1285.51 -1.92463 -3.50426 0
M  V30 13856 H 1286.95 -1.07464 -4.10155 0
M  V30 13857 C 1285.41 0.214635 -3.36216 0
M  V30 13858 O 1285.94 1.20916 -3.8307 0
M  V30 13859 N 1284.15 0.25468 -2.89482 0
M  V30 13860 H 1283.7 -0.555239 -2.51545 0
M  V30 13861 H 1283.65 1.12152 -2.93716 0
M  V30 13862 N 1287.43 1.02549 -1.19673 0
M  V30 13863 C 1288.7 1.73106 -0.9107 0
M  V30 13864 C 1289.08 2.02897 0.582769 0
M  V30 13865 O 1288.43 1.68633 1.54192 0
M  V30 13866 C 1288.64 3.00535 -1.77425 0
M  V30 13867 C 1289.99 3.73976 -2.01065 0
M  V30 13868 O 1291.01 3.1047 -1.74605 0
M  V30 13869 O 1289.87 4.88153 -2.457 0
M  V30 13870 H 1286.97 0.754006 -0.339711 0
M  V30 13871 H 1289.51 1.08477 -1.30502 0
M  V30 13872 H 1288.28 2.74773 -2.78595 0
M  V30 13873 H 1287.91 3.72904 -1.37943 0
M  V30 13874 N 1288.9 1.00119 1.21713 0
M  V30 13875 C 1289.81 0.567582 2.27631 0
M  V30 13876 C 1290.83 -0.387593 1.69628 0
M  V30 13877 O 1292.01 -0.252372 1.99813 0
M  V30 13878 C 1289.07 -0.102745 3.46548 0
M  V30 13879 C 1288.13 0.896433 4.19836 0
M  V30 13880 C 1287.36 0.258 5.33076 0
M  V30 13881 O 1287.59 -0.946118 5.62499 0
M  V30 13882 O 1286.52 0.967021 5.94081 0
M  V30 13883 H 1290.35 1.44898 2.66905 0
M  V30 13884 H 1287.93 0.769862 1.28037 0
M  V30 13885 H 1289.81 -0.477846 4.18682 0
M  V30 13886 H 1288.49 -0.958576 3.09181 0
M  V30 13887 H 1287.4 1.32262 3.49939 0
M  V30 13888 H 1288.73 1.72173 4.61104 0
M  V30 13889 N 1290.38 -1.37203 0.775435 0
M  V30 13890 C 1291.63 -1.99897 0.341936 0
M  V30 13891 C 1291.96 -1.61414 -1.07978 0
M  V30 13892 O 1291.24 -0.862108 -1.7435 0
M  V30 13893 C 1291.52 -3.56755 0.489715 0
M  V30 13894 C 1291.37 -4.05135 1.95411 0
M  V30 13895 C 1292.69 -4.39978 -0.103779 0
M  V30 13896 H 1289.81 -0.726199 0.125717 0
M  V30 13897 H 1292.45 -1.62826 0.979167 0
M  V30 13898 H 1290.6 -3.88464 -0.0527684 0
M  V30 13899 H 1292.27 -3.83975 2.55658 0
M  V30 13900 H 1290.52 -3.57192 2.46164 0
M  V30 13901 H 1291.19 -5.14161 2.00855 0
M  V30 13902 H 1293.66 -4.14547 0.359134 0
M  V30 13903 H 1292.54 -5.48892 0.0297337 0
M  V30 13904 H 1292.8 -4.25658 -1.19448 0
M  V30 13905 N 1291.86 -0.526279 -1.48553 0
M  V30 13906 C 1293.28 -0.183886 -1.58537 0
M  V30 13907 C 1293.48 1.31272 -1.52872 0
M  V30 13908 O 1292.53 2.09069 -1.41585 0
M  V30 13909 C 1293.84 -0.78313 -2.90323 0
M  V30 13910 C 1295.39 -0.751527 -3.03844 0
M  V30 13911 C 1295.87 -1.32928 -4.38285 0
M  V30 13912 N 1297.36 -1.29109 -4.44843 0
M  V30 13913 C 1298.09 -1.70806 -5.47369 0
M  V30 13914 N 1297.59 -2.20215 -6.56869 0
M  V30 13915 N 1299.38 -1.62065 -5.3823 0
M  V30 13916 H 1291.53 -1.499 -1.50478 0
M  V30 13917 H 1293.8 -0.623294 -0.714289 0
M  V30 13918 H 1293.5 -1.83371 -3.00113 0
M  V30 13919 H 1293.38 -0.25808 -3.76316 0
M  V30 13920 H 1295.76 0.290282 -2.93669 0
M  V30 13921 H 1295.84 -1.314 -2.19471 0
M  V30 13922 H 1295.49 -2.37 -4.49214 0
M  V30 13923 H 1295.42 -0.742516 -5.21339 0
M  V30 13924 H 1297.91 -0.929348 -3.66294 0
M  V30 13925 H 1298.22 -2.50035 -7.31233 0
M  V30 13926 H 1296.57 -2.24206 -6.57842 0
M  V30 13927 H 1299.76 -1.23265 -4.51579 0
M  V30 13928 H 1299.93 -1.94883 -6.18001 0
M  V30 13929 N 1293.34 1.5542 -0.261239 0
M  V30 13930 C 1294.57 2.03391 0.362698 0
M  V30 13931 C 1294.98 1.13947 1.51039 0
M  V30 13932 O 1294.32 0.149231 1.83093 0
M  V30 13933 C 1294.38 3.47558 0.918889 0
M  V30 13934 C 1294.04 4.56894 -0.0983829 0
M  V30 13935 C 1295.04 5.1182 -0.913018 0
M  V30 13936 C 1292.73 5.01779 -0.228616 0
M  V30 13937 C 1294.72 6.10138 -1.84421 0
M  V30 13938 C 1292.41 5.99926 -1.16329 0
M  V30 13939 C 1293.41 6.53984 -1.9696 0
M  V30 13940 O 1293.09 7.50214 -2.8885 0
M  V30 13941 H 1292.83 0.670166 0.0886182 0
M  V30 13942 H 1295.38 2.01722 -0.386967 0
M  V30 13943 H 1293.61 3.46423 1.71838 0
M  V30 13944 H 1295.3 3.78947 1.45443 0
M  V30 13945 H 1296.06 4.77965 -0.823066 0
M  V30 13946 H 1291.94 4.59356 0.388945 0
M  V30 13947 H 1295.49 6.52258 -2.47397 0
M  V30 13948 H 1291.38 6.332 -1.25412 0
M  V30 13949 H 1292.15 7.67881 -2.83374 0
M  V30 13950 N 1294.82 -0.0116844 1.57596 0
M  V30 13951 C 1296.23 -0.55604 1.78228 0
M  V30 13952 C 1296.58 -1.74624 0.894474 0
M  V30 13953 O 1295.7 -2.16196 0.0938498 0
M  V30 13954 C 1296.3 -1.0155 3.23223 0
M  V30 13955 C 1294.86 -1.50525 3.44992 0
M  V30 13956 C 1294 -0.451133 2.73606 0
M  V30 13957 H 1296.95 0.214516 1.57243 0
M  V30 13958 H 1296.98 -1.88208 3.30693 0
M  V30 13959 H 1296.49 -0.149048 3.87814 0
M  V30 13960 H 1294.59 -2.39298 2.856 0
M  V30 13961 H 1294.7 -1.54076 4.53649 0
M  V30 13962 H 1293.07 -0.910135 2.37884 0
M  V30 13963 H 1293.85 0.406152 3.40889 0
M  V30 13964 N 1296.29 -1.55015 -0.284256 0
M  V30 13965 C 1297.71 -1.46603 -0.630845 0
M  V30 13966 C 1297.91 -0.67091 -1.90003 0
M  V30 13967 O 1296.97 -0.185266 -2.51819 0
M  V30 13968 C 1298.28 -2.9072 -0.768268 0
M  V30 13969 C 1299.83 -3.00866 -0.863061 0
M  V30 13970 C 1300.3 -4.46214 -1.03235 0
M  V30 13971 N 1301.79 -4.49994 -1.09815 0
M  V30 13972 C 1302.53 -5.5966 -1.24773 0
M  V30 13973 N 1302.02 -6.79215 -1.36523 0
M  V30 13974 N 1303.82 -5.4738 -1.27795 0
M  V30 13975 H 1295.97 -2.05171 0.549409 0
M  V30 13976 H 1298.23 -0.929915 0.184288 0
M  V30 13977 H 1297.94 -3.51575 0.0936899 0
M  V30 13978 H 1297.81 -3.39096 -1.65209 0
M  V30 13979 H 1300.2 -2.40114 -1.71549 0
M  V30 13980 H 1300.28 -2.5576 0.0451267 0
M  V30 13981 H 1299.92 -5.07564 -0.18462 0
M  V30 13982 H 1299.85 -4.88965 -1.95502 0
M  V30 13983 H 1302.34 -3.63869 -1.0202 0
M  V30 13984 H 1302.66 -7.58547 -1.47739 0
M  V30 13985 H 1301 -6.82048 -1.33548 0
M  V30 13986 H 1304.19 -4.52921 -1.18238 0
M  V30 13987 H 1304.37 -6.32892 -1.39109 0
M  V30 13988 N 1297.77 0.548248 -1.47757 0
M  V30 13989 C 1299.02 1.30501 -1.54841 0
M  V30 13990 C 1299.35 1.93314 -0.214476 0
M  V30 13991 O 1298.6 1.7889 0.793526 0
M  V30 13992 C 1298.9 2.42911 -2.62162 0
M  V30 13993 C 1298.57 1.97871 -4.05164 0
M  V30 13994 C 1297.23 1.85304 -4.4409 0
M  V30 13995 C 1299.58 1.63606 -4.94856 0
M  V30 13996 C 1296.91 1.36781 -5.70533 0
M  V30 13997 C 1299.26 1.16552 -6.2177 0
M  V30 13998 C 1297.92 1.02588 -6.5957 0
M  V30 13999 H 1297.19 0.477536 -0.566604 0
M  V30 14000 H 1299.84 0.613837 -1.81395 0
M  V30 14001 H 1298.15 3.17622 -2.29398 0
M  V30 14002 H 1299.84 3.01078 -2.64864 0
M  V30 14003 H 1296.43 2.08597 -3.74413 0
M  V30 14004 H 1300.62 1.72184 -4.65474 0
M  V30 14005 H 1295.87 1.24641 -5.9856 0
M  V30 14006 H 1300.05 0.891041 -6.90676 0
M  V30 14007 H 1297.67 0.647675 -7.57436 0
M  V30 14008 N 1299.25 1.36039 0.795694 0
M  V30 14009 C 1300.18 1.32528 1.92246 0
M  V30 14010 C 1301.16 0.197805 1.68946 0
M  V30 14011 O 1302.35 0.394474 1.90151 0
M  V30 14012 C 1299.48 1.10748 3.29169 0
M  V30 14013 C 1298.43 2.20253 3.66978 0
M  V30 14014 C 1297.76 1.83624 5.02181 0
M  V30 14015 C 1299.06 3.62296 3.76216 0
M  V30 14016 H 1300.75 2.2681 1.95442 0
M  V30 14017 H 1298.3 1.09181 0.938908 0
M  V30 14018 H 1300.25 1.06929 4.07608 0
M  V30 14019 H 1298.97 0.129141 3.26345 0
M  V30 14020 H 1297.63 2.23187 2.90832 0
M  V30 14021 H 1297.28 0.843804 4.95872 0
M  V30 14022 H 1296.98 2.56935 5.28449 0
M  V30 14023 H 1298.5 1.81349 5.83048 0
M  V30 14024 H 1299.92 3.61623 4.44861 0
M  V30 14025 H 1298.31 4.34459 4.13963 0
M  V30 14026 H 1299.38 3.97657 2.77483 0
M  V30 14027 N 1300.73 -1.01913 1.20215 0
M  V30 14028 C 1301.95 -1.79613 1.03702 0
M  V30 14029 C 1302.38 -1.83591 -0.409374 0
M  V30 14030 O 1301.74 -1.26911 -1.29473 0
M  V30 14031 C 1301.78 -3.22052 1.62219 0
M  V30 14032 O 1300.89 -4.03374 0.858106 0
M  V30 14033 H 1300.23 -0.554095 0.365889 0
M  V30 14034 H 1302.76 -1.28203 1.59452 0
M  V30 14035 H 1302.77 -3.72772 1.65847 0
M  V30 14036 H 1301.44 -3.18471 2.67487 0
M  V30 14037 H 1300.02 -3.6198 0.895835 0
M  V30 14038 N 1302.21 -1.00763 -1.2118 0
M  V30 14039 C 1303.43 -0.710746 -1.94309 0
M  V30 14040 C 1303.85 0.727103 -1.74237 0
M  V30 14041 O 1303.21 1.49223 -1.05065 0
M  V30 14042 C 1303.26 -1.02562 -3.46646 0
M  V30 14043 O 1302.98 -2.40699 -3.66054 0
M  V30 14044 C 1304.48 -0.748517 -4.36935 0
M  V30 14045 H 1301.7 -0.26171 -0.617858 0
M  V30 14046 H 1304.24 -1.34639 -1.53924 0
M  V30 14047 H 1302.4 -0.435537 -3.84944 0
M  V30 14048 H 1302.81 -2.51764 -4.60125 0
M  V30 14049 H 1304.29 -1.01899 -5.42513 0
M  V30 14050 H 1304.76 0.317423 -4.38051 0
M  V30 14051 H 1305.37 -1.32033 -4.04286 0
M  V30 14052 N 1303.68 1.3679 -0.7827 0
M  V30 14053 C 1304.59 2.33928 -0.17747 0
M  V30 14054 C 1305.61 1.60716 0.666802 0
M  V30 14055 O 1306.79 1.92742 0.584162 0
M  V30 14056 C 1303.85 3.39907 0.68294 0
M  V30 14057 C 1302.91 4.28926 -0.179053 0
M  V30 14058 C 1302.15 5.29844 0.640386 0
M  V30 14059 O 1302.37 5.38639 1.87681 0
M  V30 14060 O 1301.3 6.01884 0.0438164 0
M  V30 14061 H 1305.13 2.87439 -0.980441 0
M  V30 14062 H 1302.71 1.39142 -0.54404 0
M  V30 14063 H 1304.6 4.04722 1.17379 0
M  V30 14064 H 1303.27 2.88706 1.46391 0
M  V30 14065 H 1302.18 3.67174 -0.716512 0
M  V30 14066 H 1303.51 4.83461 -0.923377 0
M  V30 14067 N 1305.16 0.53415 1.48272 0
M  V30 14068 C 1306.13 -0.215641 2.28183 0
M  V30 14069 C 1307.13 -0.863966 1.35618 0
M  V30 14070 O 1308.32 -0.723375 1.58471 0
M  V30 14071 C 1305.45 -1.31251 3.1462 0
M  V30 14072 H 1306.64 0.486014 2.95936 0
M  V30 14073 H 1304.19 0.290237 1.53582 0
M  V30 14074 H 1304.93 -2.04729 2.51508 0
M  V30 14075 H 1304.71 -0.852706 3.82716 0
M  V30 14076 H 1306.2 -1.83978 3.74889 0
M  V30 14077 N 1306.64 -1.55279 0.269478 0
M  V30 14078 C 1307.89 -1.98649 -0.349522 0
M  V30 14079 C 1308.2 -1.16125 -1.57399 0
M  V30 14080 O 1309.41 -1.49612 -2.26558 0
M  V30 14081 C 1307.86 -3.53547 -0.673224 0
M  V30 14082 C 1307.47 -4.44841 0.531119 0
M  V30 14083 C 1309.22 -4.05519 -1.25516 0
M  V30 14084 C 1307.12 -5.91119 0.182317 0
M  V30 14085 H 1306.05 -0.74193 -0.13437 0
M  V30 14086 H 1308.7 -1.79664 0.373246 0
M  V30 14087 H 1307.09 -3.68311 -1.45474 0
M  V30 14088 H 1308.26 -4.41843 1.3081 0
M  V30 14089 H 1306.58 -4.03472 1.02952 0
M  V30 14090 H 1309.17 -5.12347 -1.52984 0
M  V30 14091 H 1309.52 -3.54215 -2.18718 0
M  V30 14092 H 1310.05 -3.94172 -0.536059 0
M  V30 14093 H 1306.79 -6.46507 1.08206 0
M  V30 14094 H 1306.31 -5.97199 -0.558008 0
M  V30 14095 H 1307.99 -6.466 -0.227484 0
M  V30 14096 N 1308.12 0.00332656 -1.576 0
M  V30 14097 C 1309.34 0.703587 -1.95101 0
M  V30 14098 C 1309.77 1.66697 -0.871418 0
M  V30 14099 O 1309.13 1.80494 0.170739 0
M  V30 14100 C 1309.17 1.41457 -3.31696 0
M  V30 14101 O 1308.28 2.52885 -3.25765 0
M  V30 14102 H 1307.62 0.187396 -0.637008 0
M  V30 14103 H 1310.15 -0.0488727 -2.04542 0
M  V30 14104 H 1310.16 1.77874 -3.67185 0
M  V30 14105 H 1308.83 0.708182 -4.09826 0
M  V30 14106 H 1307.41 2.18821 -3.01947 0
M  V30 14107 N 1309.6 1.55164 0.276031 0
M  V30 14108 C 1310.85 1.74833 1.0058 0
M  V30 14109 C 1311.16 0.555089 1.87558 0
M  V30 14110 O 1312.36 0.634127 2.63991 0
M  V30 14111 C 1310.82 3.09417 1.83818 0
M  V30 14112 C 1310.43 4.36299 1.01721 0
M  V30 14113 C 1312.17 3.38437 2.56244 0
M  V30 14114 C 1310.08 5.61923 1.8438 0
M  V30 14115 H 1309.01 0.651676 0.379254 0
M  V30 14116 H 1311.66 1.81626 0.26161 0
M  V30 14117 H 1310.04 2.96654 2.62321 0
M  V30 14118 H 1311.22 4.59969 0.276565 0
M  V30 14119 H 1309.53 4.144 0.407645 0
M  V30 14120 H 1312.13 4.29501 3.18485 0
M  V30 14121 H 1312.47 2.58432 3.26372 0
M  V30 14122 H 1313 3.52284 1.84773 0
M  V30 14123 H 1309.74 6.44667 1.18679 0
M  V30 14124 H 1309.26 5.424 2.56051 0
M  V30 14125 H 1310.94 6.0011 2.4182 0
M  V30 14126 N 1311.07 -0.540404 1.48045 0
M  V30 14127 C 1312.01 -1.66223 1.56349 0
M  V30 14128 C 1312.99 -1.57227 0.414552 0
M  V30 14129 O 1314.17 -1.77847 0.624709 0
M  V30 14130 C 1311.3 -3.04568 1.48176 0
M  V30 14131 C 1310.34 -3.31957 2.67781 0
M  V30 14132 S 1311.18 -3.19368 4.29842 0
M  V30 14133 C 1312.33 -4.60177 4.2425 0
M  V30 14134 H 1312.56 -1.58927 2.51256 0
M  V30 14135 H 1310.1 -0.722554 1.3645 0
M  V30 14136 H 1312.06 -3.84359 1.44147 0
M  V30 14137 H 1310.72 -3.09314 0.54625 0
M  V30 14138 H 1309.91 -4.32855 2.58172 0
M  V30 14139 H 1309.51 -2.59817 2.69019 0
M  V30 14140 H 1311.8 -5.51482 3.9354 0
M  V30 14141 H 1312.75 -4.74842 5.25291 0
M  V30 14142 H 1313.15 -4.39011 3.54865 0
M  V30 14143 N 1312.55 -1.36459 -0.788468 0
M  V30 14144 C 1313.97 -1.16893 -1.08666 0
M  V30 14145 C 1314.17 0.00633808 -2.01499 0
M  V30 14146 O 1313.22 0.671417 -2.4341 0
M  V30 14147 C 1314.54 -2.48018 -1.70022 0
M  V30 14148 C 1316.09 -2.5439 -1.82358 0
M  V30 14149 C 1316.56 -3.85605 -2.47129 0
M  V30 14150 N 1318.05 -3.86956 -2.54597 0
M  V30 14151 C 1318.79 -4.85224 -3.05525 0
M  V30 14152 N 1318.28 -5.93885 -3.56753 0
M  V30 14153 N 1320.08 -4.72643 -3.04246 0
M  V30 14154 H 1312.23 -2.11705 -0.171733 0
M  V30 14155 H 1314.49 -0.937784 -0.1388 0
M  V30 14156 H 1314.2 -3.34292 -1.09277 0
M  V30 14157 H 1314.07 -2.63894 -2.69518 0
M  V30 14158 H 1316.46 -1.68534 -2.4224 0
M  V30 14159 H 1316.54 -2.42414 -0.816651 0
M  V30 14160 H 1316.18 -4.71868 -1.87891 0
M  V30 14161 H 1316.11 -3.94878 -3.48395 0
M  V30 14162 H 1318.6 -3.08453 -2.18323 0
M  V30 14163 H 1318.92 -6.64839 -3.93966 0
M  V30 14164 H 1317.26 -5.97553 -3.54902 0
M  V30 14165 H 1320.45 -3.86883 -2.63513 0
M  V30 14166 H 1320.62 -5.49385 -3.43627 0
M  V30 14167 N 1314.03 1.01274 -1.20754 0
M  V30 14168 C 1315.45 1.27256 -0.963221 0
M  V30 14169 C 1315.65 1.98349 0.354972 0
M  V30 14170 O 1314.7 2.28116 1.08255 0
M  V30 14171 C 1316.02 2.1038 -2.14851 0
M  V30 14172 C 1317.56 2.23633 -2.18991 0
M  V30 14173 C 1318.04 3.10136 -3.37016 0
M  V30 14174 N 1319.53 3.17724 -3.37054 0
M  V30 14175 C 1320.26 3.84891 -4.25025 0
M  V30 14176 N 1319.76 4.54152 -5.23181 0
M  V30 14177 N 1321.55 3.81454 -4.12855 0
M  V30 14178 H 1313.7 0.535534 -2.05538 0
M  V30 14179 H 1315.97 0.299006 -0.899611 0
M  V30 14180 H 1315.67 1.65484 -3.10335 0
M  V30 14181 H 1315.55 3.11122 -2.13267 0
M  V30 14182 H 1317.93 2.67753 -1.24067 0
M  V30 14183 H 1318.02 1.22387 -2.24622 0
M  V30 14184 H 1317.66 2.66721 -4.32229 0
M  V30 14185 H 1317.59 4.11478 -3.28623 0
M  V30 14186 H 1320.08 2.68412 -2.66014 0
M  V30 14187 H 1320.39 5.03084 -5.86623 0
M  V30 14188 H 1318.74 4.52964 -5.27113 0
M  V30 14189 H 1321.93 3.26494 -3.35439 0
M  V30 14190 H 1322.1 4.33523 -4.81624 0
M  V30 14191 N 1315.51 1.01404 1.20644 0
M  V30 14192 C 1316.44 0.602465 2.25594 0
M  V30 14193 C 1317.42 -0.381216 1.65773 0
M  V30 14194 O 1318.61 -0.267209 1.92353 0
M  V30 14195 C 1315.74 -0.0626245 3.47244 0
M  V30 14196 C 1314.69 0.841776 4.1964 0
M  V30 14197 C 1314.02 0.0426002 5.34683 0
M  V30 14198 C 1315.32 2.14864 4.76058 0
M  V30 14199 H 1317.01 1.47977 2.60275 0
M  V30 14200 H 1314.56 0.712966 1.25111 0
M  V30 14201 H 1316.51 -0.362095 4.19841 0
M  V30 14202 H 1315.23 -0.974627 3.11719 0
M  V30 14203 H 1313.89 1.12521 3.48905 0
M  V30 14204 H 1313.54 -0.870973 4.95402 0
M  V30 14205 H 1313.24 0.644866 5.84051 0
M  V30 14206 H 1314.76 -0.250476 6.10086 0
M  V30 14207 H 1316.18 1.9117 5.40488 0
M  V30 14208 H 1314.57 2.70153 5.35852 0
M  V30 14209 H 1315.64 2.81336 3.9494 0
M  V30 14210 N 1316.99 -1.36373 0.789944 0
M  V30 14211 C 1317.92 -2.32616 0.202944 0
M  V30 14212 C 1318.9 -1.56674 -0.662364 0
M  V30 14213 O 1320.08 -1.84826 -0.596078 0
M  V30 14214 C 1317.21 -3.4092 -0.662646 0
M  V30 14215 C 1316.17 -4.27877 0.102811 0
M  V30 14216 C 1315.49 -5.27352 -0.883407 0
M  V30 14217 C 1316.79 -5.0606 1.29231 0
M  V30 14218 H 1318.49 -2.81958 1.00699 0
M  V30 14219 H 1316.03 -1.35562 0.48568 0
M  V30 14220 H 1317.99 -4.07239 -1.08324 0
M  V30 14221 H 1316.71 -2.90147 -1.4994 0
M  V30 14222 H 1315.37 -3.63114 0.504389 0
M  V30 14223 H 1315.02 -4.72853 -1.71521 0
M  V30 14224 H 1314.72 -5.86398 -0.375669 0
M  V30 14225 H 1316.24 -5.96545 -1.30256 0
M  V30 14226 H 1317.66 -5.65417 0.947446 0
M  V30 14227 H 1316.05 -5.74521 1.73338 0
M  V30 14228 H 1317.12 -4.37671 2.08739 0
M  V30 14229 N 1318.47 -0.542005 -1.47987 0
M  V30 14230 C 1319.88 -0.200691 -1.58333 0
M  V30 14231 C 1320.08 1.29643 -1.54256 0
M  V30 14232 O 1319.14 2.07556 -1.43794 0
M  V30 14233 C 1320.45 -0.813878 -2.89476 0
M  V30 14234 C 1322 -0.783711 -3.0303 0
M  V30 14235 C 1322.47 -1.37569 -4.36851 0
M  V30 14236 N 1323.96 -1.33819 -4.43449 0
M  V30 14237 C 1324.7 -1.76602 -5.45527 0
M  V30 14238 N 1324.2 -2.27169 -6.54497 0
M  V30 14239 N 1325.99 -1.67765 -5.3648 0
M  V30 14240 H 1318.14 -1.51488 -1.4888 0
M  V30 14241 H 1320.4 -0.630835 -0.707638 0
M  V30 14242 H 1320.11 -1.86544 -2.98151 0
M  V30 14243 H 1319.98 -0.297978 -3.76021 0
M  V30 14244 H 1322.37 0.259118 -2.9396 0
M  V30 14245 H 1322.45 -1.33721 -2.18065 0
M  V30 14246 H 1322.09 -2.41751 -4.46675 0
M  V30 14247 H 1322.02 -0.797769 -5.20522 0
M  V30 14248 H 1324.52 -0.968147 -3.65288 0
M  V30 14249 H 1324.83 -2.57777 -7.2854 0
M  V30 14250 H 1323.17 -2.31171 -6.55427 0
M  V30 14251 H 1326.36 -1.28048 -4.50246 0
M  V30 14252 H 1326.54 -2.01426 -6.15899 0
M  V30 14253 N 1319.94 1.55134 -0.277709 0
M  V30 14254 C 1321.36 1.59417 0.0763615 0
M  V30 14255 C 1321.56 1.29491 1.54384 0
M  V30 14256 O 1320.62 1.05703 2.2931 0
M  V30 14257 C 1321.93 2.99194 -0.300607 0
M  V30 14258 C 1323.48 3.1202 -0.247438 0
M  V30 14259 C 1323.95 4.54068 -0.598884 0
M  V30 14260 N 1325.44 4.59917 -0.550534 0
M  V30 14261 C 1326.18 5.67859 -0.795235 0
M  V30 14262 N 1325.67 6.83936 -1.10469 0
M  V30 14263 N 1327.47 5.5742 -0.723859 0
M  V30 14264 H 1319.62 1.72851 -1.23435 0
M  V30 14265 H 1321.88 0.806137 -0.498846 0
M  V30 14266 H 1321.59 3.25937 -1.32129 0
M  V30 14267 H 1321.46 3.75504 0.35729 0
M  V30 14268 H 1323.85 2.8504 0.763959 0
M  V30 14269 H 1323.93 2.37917 -0.939629 0
M  V30 14270 H 1323.57 4.81774 -1.60798 0
M  V30 14271 H 1323.5 5.26474 0.115126 0
M  V30 14272 H 1325.99 3.76531 -0.321341 0
M  V30 14273 H 1326.31 7.62159 -1.278 0
M  V30 14274 H 1324.65 6.85545 -1.14249 0
M  V30 14275 H 1327.84 4.65613 -0.481925 0
M  V30 14276 H 1328.02 6.41465 -0.917944 0
M  V30 14277 N 1321.42 0.00503138 1.57599 0
M  V30 14278 C 1322.37 -1.00294 2.09866 0
M  V30 14279 C 1323.36 -1.35267 1.01977 0
M  V30 14280 O 1324.57 -1.33772 1.20437 0
M  V30 14281 H 1320.94 -0.341112 0.670184 0
M  V30 14282 H 1322.92 -0.536595 2.93536 0
M  V30 14283 C 1321.66 -2.28432 2.62133 0
M  V30 14284 H 1320.99 -2.02391 3.44787 0
M  V30 14285 H 1322.43 -2.97227 3.02378 0
M  V30 14286 C 1320.89 -2.99758 1.53774 0
M  V30 14287 O 1321.42 -3.90939 0.923563 0
M  V30 14288 N 1319.62 -2.61671 1.26398 0
M  V30 14289 H 1319.17 -1.87605 1.76528 0
M  V30 14290 H 1319.13 -3.09707 0.541168 0
M  V30 14291 N 1322.9 -1.55308 -0.267798 0
M  V30 14292 C 1324.31 -1.66814 -0.838459 0
M  V30 14293 C 1324.66 -0.598609 -1.86845 0
M  V30 14294 O 1323.79 0.25896 -2.14845 0
M  V30 14295 C 1324.38 -3.02408 -1.52758 0
M  V30 14296 C 1322.94 -3.15923 -2.04621 0
M  V30 14297 C 1322.09 -2.62628 -0.890044 0
M  V30 14298 H 1325.04 -1.58639 -0.0440354 0
M  V30 14299 H 1325.06 -2.95687 -2.39478 0
M  V30 14300 H 1324.57 -3.80228 -0.777695 0
M  V30 14301 H 1322.67 -2.42886 -2.82555 0
M  V30 14302 H 1322.79 -4.22556 -2.25794 0
M  V30 14303 H 1321.15 -2.19918 -1.28485 0
M  V30 14304 H 1321.93 -3.42956 -0.153579 0
M  V30 14305 N 1324.38 0.532545 -1.4833 0
M  V30 14306 C 1325.29 1.66433 -1.65339 0
M  V30 14307 C 1326.3 1.65541 -0.535939 0
M  V30 14308 O 1327.48 1.84539 -0.806679 0
M  V30 14309 C 1324.54 3.02901 -1.68676 0
M  V30 14310 C 1323.61 3.14669 -2.92031 0
M  V30 14311 C 1322.84 4.44627 -2.95199 0
M  V30 14312 O 1323.06 5.31572 -2.06851 0
M  V30 14313 O 1322 4.60707 -3.87341 0
M  V30 14314 H 1325.82 1.5502 -2.61156 0
M  V30 14315 H 1323.41 0.705348 -1.31701 0
M  V30 14316 H 1325.29 3.84068 -1.73407 0
M  V30 14317 H 1323.96 3.14644 -0.760327 0
M  V30 14318 H 1322.87 2.32807 -2.92834 0
M  V30 14319 H 1324.2 3.07841 -3.8405 0
M  V30 14320 N 1325.86 1.36875 0.78122 0
M  V30 14321 C 1327.27 1.17467 1.08044 0
M  V30 14322 C 1327.47 0.00434799 2.015 0
M  V30 14323 O 1326.53 -0.658499 2.43762 0
M  V30 14324 C 1327.84 2.48917 1.68704 0
M  V30 14325 C 1329.39 2.55354 1.81007 0
M  V30 14326 C 1329.86 3.8691 2.45081 0
M  V30 14327 N 1331.35 3.88301 2.52541 0
M  V30 14328 C 1332.09 4.86837 3.02947 0
M  V30 14329 N 1331.59 5.95768 3.53598 0
M  V30 14330 N 1333.38 4.74249 3.01735 0
M  V30 14331 H 1325.53 2.11793 0.160503 0
M  V30 14332 H 1327.79 0.938507 0.133825 0
M  V30 14333 H 1327.5 3.34867 1.07503 0
M  V30 14334 H 1327.37 2.65319 2.68115 0
M  V30 14335 H 1329.76 1.69816 2.41343 0
M  V30 14336 H 1329.84 2.42843 0.803783 0
M  V30 14337 H 1329.48 4.72858 1.85386 0
M  V30 14338 H 1329.41 3.9672 3.46296 0
M  V30 14339 H 1331.91 3.09607 2.16684 0
M  V30 14340 H 1332.22 6.66918 3.90435 0
M  V30 14341 H 1330.56 5.99426 3.51728 0
M  V30 14342 H 1333.75 3.88275 2.61458 0
M  V30 14343 H 1333.93 5.512 3.40709 0
M  V30 14344 N 1327.33 -1.00632 1.21289 0
M  V30 14345 C 1328.75 -1.26744 0.969956 0
M  V30 14346 C 1328.95 -1.98534 -0.344449 0
M  V30 14347 O 1328.01 -2.28687 -1.07044 0
M  V30 14348 C 1329.32 -2.09238 2.15963 0
M  V30 14349 C 1330.87 -2.22469 2.20174 0
M  V30 14350 C 1331.34 -3.08344 3.38656 0
M  V30 14351 N 1332.83 -3.15932 3.38734 0
M  V30 14352 C 1333.57 -3.82632 4.2706 0
M  V30 14353 N 1333.06 -4.51371 5.25582 0
M  V30 14354 N 1334.86 -3.79259 4.14872 0
M  V30 14355 H 1327.01 -0.524626 2.05819 0
M  V30 14356 H 1329.27 -0.294231 0.901184 0
M  V30 14357 H 1328.98 -1.63835 3.11209 0
M  V30 14358 H 1328.85 -3.09987 2.14914 0
M  V30 14359 H 1331.24 -2.67091 1.25485 0
M  V30 14360 H 1331.32 -1.21194 2.25268 0
M  V30 14361 H 1330.96 -2.64425 4.33638 0
M  V30 14362 H 1330.89 -4.0973 3.30801 0
M  V30 14363 H 1333.38 -2.66998 2.67434 0
M  V30 14364 H 1333.7 -4.99966 5.89283 0
M  V30 14365 H 1332.04 -4.50162 5.29508 0
M  V30 14366 H 1335.23 -3.2471 3.37166 0
M  V30 14367 H 1335.41 -4.30963 4.83916 0
M  V30 14368 N 1328.81 -1.02043 -1.20104 0
M  V30 14369 C 1329.74 -0.614421 -2.25271 0
M  V30 14370 C 1330.72 0.37242 -1.65973 0
M  V30 14371 O 1331.91 0.257005 -1.92492 0
M  V30 14372 C 1329.04 0.0442085 -3.47272 0
M  V30 14373 C 1327.99 -0.864019 -4.19188 0
M  V30 14374 C 1327.32 -0.0709551 -5.34653 0
M  V30 14375 C 1328.62 -2.17385 -4.74912 0
M  V30 14376 H 1330.31 -1.49355 -2.59487 0
M  V30 14377 H 1327.86 -0.719591 -1.24731 0
M  V30 14378 H 1329.81 0.339825 -4.20028 0
M  V30 14379 H 1328.53 0.958082 -3.12231 0
M  V30 14380 H 1327.19 -1.1437 -3.48303 0
M  V30 14381 H 1326.84 0.844688 -4.95857 0
M  V30 14382 H 1326.54 -0.67583 -5.83701 0
M  V30 14383 H 1328.07 0.218118 -6.1021 0
M  V30 14384 H 1329.48 -1.94034 -5.39466 0
M  V30 14385 H 1327.88 -2.72991 -5.34412 0
M  V30 14386 H 1328.95 -2.83427 -3.93443 0
M  V30 14387 N 1330.29 1.35952 -0.797165 0
M  V30 14388 C 1331.54 1.98639 -0.372405 0
M  V30 14389 C 1331.86 1.63571 1.06158 0
M  V30 14390 O 1331.13 0.913516 1.73297 0
M  V30 14391 H 1329.71 0.734753 -0.13471 0
M  V30 14392 H 1332.37 1.66022 -1.02092 0
M  V30 14393 H 1331.47 3.08533 -0.47049 0
M  V30 14394 N 1331.77 0.549846 1.47697 0
M  V30 14395 C 1332.73 -0.191427 2.28399 0
M  V30 14396 C 1333.73 -0.849533 1.36527 0
M  V30 14397 O 1334.92 -0.706526 1.59229 0
M  V30 14398 C 1332.05 -1.27907 3.15995 0
M  V30 14399 H 1333.25 0.517375 2.95404 0
M  V30 14400 H 1330.8 0.30651 1.53265 0
M  V30 14401 H 1331.53 -2.0205 2.53665 0
M  V30 14402 H 1331.32 -0.812066 3.83599 0
M  V30 14403 H 1332.81 -1.79992 3.76819 0
M  V30 14404 N 1333.25 -1.54984 0.285932 0
M  V30 14405 C 1334.47 -2.04699 -0.333621 0
M  V30 14406 C 1334.9 -1.16252 -1.47875 0
M  V30 14407 O 1334.25 -0.163376 -1.80562 0
M  V30 14408 C 1334.3 -3.52022 -0.78187 0
M  V30 14409 O 1333.41 -3.66639 -1.88812 0
M  V30 14410 H 1332.75 -0.660579 -0.0673203 0
M  V30 14411 H 1335.28 -2.00171 0.423386 0
M  V30 14412 H 1335.29 -3.93591 -1.07473 0
M  V30 14413 H 1333.96 -4.15862 0.055893 0
M  V30 14414 H 1332.54 -3.36974 -1.59696 0
M  V30 14415 N 1334.72 -0.0133892 -1.57594 0
M  V30 14416 C 1335.63 0.989701 -2.12702 0
M  V30 14417 C 1336.65 1.36785 -1.07545 0
M  V30 14418 O 1337.83 1.45246 -1.39519 0
M  V30 14419 C 1334.89 2.2586 -2.63036 0
M  V30 14420 C 1333.95 1.94234 -3.82847 0
M  V30 14421 C 1333.19 3.15075 -4.30771 0
M  V30 14422 O 1333.41 4.27212 -3.7795 0
M  V30 14423 O 1332.34 2.98291 -5.22787 0
M  V30 14424 H 1336.17 0.551194 -2.98656 0
M  V30 14425 H 1333.75 0.206264 -1.47969 0
M  V30 14426 H 1335.64 3.0038 -2.9555 0
M  V30 14427 H 1334.31 2.68923 -1.80173 0
M  V30 14428 H 1333.22 1.17148 -3.55285 0
M  V30 14429 H 1334.55 1.55999 -4.66824 0
M  V30 14430 N 1336.2 1.55448 0.259558 0
M  V30 14431 C 1337.15 1.89248 1.32113 0
M  V30 14432 C 1338.12 0.745348 1.48438 0
M  V30 14433 O 1339.3 0.997854 1.62627 0
M  V30 14434 C 1336.44 2.18161 2.67394 0
M  V30 14435 C 1335.56 3.45614 2.59182 0
M  V30 14436 C 1334.69 3.6416 3.86731 0
M  V30 14437 C 1333.73 4.85258 3.73084 0
M  V30 14438 N 1332.87 5.00391 4.92497 0
M  V30 14439 H 1337.71 2.79785 1.02589 0
M  V30 14440 H 1335.25 1.38509 0.495338 0
M  V30 14441 H 1337.2 2.32927 3.46122 0
M  V30 14442 H 1335.83 1.30843 2.95093 0
M  V30 14443 H 1334.89 3.39248 1.72091 0
M  V30 14444 H 1336.2 4.34483 2.45002 0
M  V30 14445 H 1335.35 3.78817 4.73902 0
M  V30 14446 H 1334.09 2.73501 4.03793 0
M  V30 14447 H 1333.1 4.70591 2.84296 0
M  V30 14448 H 1334.32 5.77365 3.57528 0
M  V30 14449 H 1332.27 4.12666 5.09944 0
M  V30 14450 H 1332.18 5.83328 4.809 0
M  V30 14451 H 1333.45 5.19446 5.81202 0
M  V30 14452 N 1337.68 -0.524672 1.4861 0
M  V30 14453 C 1338.96 -1.28592 1.47389 0
M  V30 14454 C 1339.34 -2.10257 0.188482 0
M  V30 14455 O 1338.69 -2.12905 -0.829689 0
M  V30 14456 C 1338.9 -2.16284 2.73902 0
M  V30 14457 C 1340.24 -2.7625 3.22445 0
M  V30 14458 O 1341.27 -2.26567 2.74856 0
M  V30 14459 O 1340.13 -3.66635 4.05267 0
M  V30 14460 H 1337.22 -0.580666 0.58886 0
M  V30 14461 H 1339.77 -0.540888 1.60849 0
M  V30 14462 H 1338.54 -1.55757 3.58964 0
M  V30 14463 H 1338.16 -2.98024 2.63188 0
M  V30 14464 N 1339.16 -1.37287 -0.77395 0
M  V30 14465 C 1340.12 -1.32699 -1.86878 0
M  V30 14466 C 1341.12 -0.231486 -1.59125 0
M  V30 14467 O 1342.31 -0.487203 -1.67248 0
M  V30 14468 C 1339.44 -1.0609 -3.23972 0
M  V30 14469 H 1340.64 -2.30083 -1.92359 0
M  V30 14470 H 1338.19 -1.22284 -0.973459 0
M  V30 14471 H 1338.92 -0.0922868 -3.24169 0
M  V30 14472 H 1338.71 -1.85383 -3.45508 0
M  V30 14473 H 1340.2 -1.05524 -4.04048 0
M  V30 14474 N 1340.64 0.999871 -1.21821 0
M  V30 14475 C 1341.55 2.12303 -0.99823 0
M  V30 14476 C 1342.56 1.73924 0.0512923 0
M  V30 14477 O 1343.74 2.00914 -0.139895 0
M  V30 14478 C 1340.8 3.41962 -0.571232 0
M  V30 14479 C 1339.86 3.94483 -1.69356 0
M  V30 14480 C 1339.1 5.17954 -1.28685 0
M  V30 14481 O 1339.32 5.70168 -0.162641 0
M  V30 14482 O 1338.25 5.64051 -2.10071 0
M  V30 14483 H 1342.08 2.3374 -1.93905 0
M  V30 14484 H 1339.67 1.10677 -1.00354 0
M  V30 14485 H 1341.55 4.20001 -0.343134 0
M  V30 14486 H 1340.22 3.21901 0.340814 0
M  V30 14487 H 1339.13 3.17648 -1.97612 0
M  V30 14488 H 1340.46 4.18964 -2.58322 0
M  V30 14489 N 1342.11 1.02678 1.19562 0
M  V30 14490 C 1343.39 0.63674 1.84946 0
M  V30 14491 C 1343.77 -0.884667 1.91669 0
M  V30 14492 O 1343.12 -1.78053 1.43211 0
M  V30 14493 C 1343.33 1.29637 3.2403 0
M  V30 14494 C 1344.68 1.41828 4.00212 0
M  V30 14495 O 1345.7 1.25338 3.3342 0
M  V30 14496 O 1344.56 1.68573 5.19851 0
M  V30 14497 H 1341.65 0.221044 0.796912 0
M  V30 14498 H 1344.2 1.1248 1.27068 0
M  V30 14499 H 1342.97 2.33549 3.1396 0
M  V30 14500 H 1342.6 0.796041 3.8955 0
M  V30 14501 N 1343.59 -1.35528 0.804364 0
M  V30 14502 C 1344.84 -1.99126 0.384261 0
M  V30 14503 C 1345.17 -1.63668 -1.0453 0
M  V30 14504 O 1344.45 -0.898896 -1.72482 0
M  V30 14505 C 1344.73 -3.55636 0.565278 0
M  V30 14506 C 1344.58 -4.00899 2.03961 0
M  V30 14507 C 1345.9 -4.40099 -0.0104301 0
M  V30 14508 H 1343.02 -0.723369 0.141092 0
M  V30 14509 H 1345.66 -1.60712 1.01348 0
M  V30 14510 H 1343.81 -3.88489 0.0296425 0
M  V30 14511 H 1345.48 -3.78465 2.63746 0
M  V30 14512 H 1343.73 -3.5189 2.53685 0
M  V30 14513 H 1344.4 -5.09785 2.11716 0
M  V30 14514 H 1346.87 -4.13692 0.446985 0
M  V30 14515 H 1345.75 -5.48705 0.146155 0
M  V30 14516 H 1346.01 -4.28096 -1.10392 0
M  V30 14517 N 1345.07 -0.557671 -1.47404 0
M  V30 14518 C 1346.02 0.189765 -2.30019 0
M  V30 14519 C 1346.99 0.907923 -1.3909 0
M  V30 14520 O 1348.17 0.903528 -1.68051 0
M  V30 14521 C 1345.31 1.21348 -3.23061 0
M  V30 14522 C 1344.43 0.501343 -4.29081 0
M  V30 14523 C 1343.56 1.51039 -5.09275 0
M  V30 14524 C 1342.6 0.783254 -6.07068 0
M  V30 14525 N 1341.74 1.73916 -6.80219 0
M  V30 14526 H 1346.58 -0.520856 -2.93413 0
M  V30 14527 H 1344.11 -0.268686 -1.44625 0
M  V30 14528 H 1346.07 1.81961 -3.75428 0
M  V30 14529 H 1344.7 1.89213 -2.61531 0
M  V30 14530 H 1343.75 -0.219317 -3.79767 0
M  V30 14531 H 1345.07 -0.0682656 -4.98753 0
M  V30 14532 H 1344.22 2.19004 -5.65793 0
M  V30 14533 H 1342.96 2.11392 -4.39505 0
M  V30 14534 H 1341.96 0.0896883 -5.49727 0
M  V30 14535 H 1343.19 0.185464 -6.78847 0
M  V30 14536 H 1341.14 2.33125 -6.13179 0
M  V30 14537 H 1341.05 1.22171 -7.46063 0
M  V30 14538 H 1342.32 2.40993 -7.41311 0
M  V30 14539 N 1346.55 1.54831 -0.294147 0
M  V30 14540 C 1347.5 2.23263 0.58499 0
M  V30 14541 C 1348.47 1.21278 1.13494 0
M  V30 14542 O 1349.65 1.49878 1.18073 0
M  V30 14543 C 1346.79 2.97185 1.75429 0
M  V30 14544 C 1345.9 4.1393 1.23638 0
M  V30 14545 C 1345.04 4.7545 2.36899 0
M  V30 14546 C 1344.08 5.84352 1.82207 0
M  V30 14547 N 1343.22 6.39855 2.89015 0
M  V30 14548 H 1348.06 2.98 -0.00519329 0
M  V30 14549 H 1345.59 1.47093 -0.0143313 0
M  V30 14550 H 1347.55 3.38271 2.4419 0
M  V30 14551 H 1346.18 2.24837 2.3162 0
M  V30 14552 H 1345.23 3.77832 0.441247 0
M  V30 14553 H 1346.54 4.92409 0.795946 0
M  V30 14554 H 1345.7 5.19353 3.1362 0
M  V30 14555 H 1344.44 3.96288 2.84266 0
M  V30 14556 H 1343.44 5.39879 1.03974 0
M  V30 14557 H 1344.67 6.65393 1.35753 0
M  V30 14558 H 1342.61 5.6358 3.35729 0
M  V30 14559 H 1342.53 7.13661 2.49447 0
M  V30 14560 H 1343.8 6.88417 3.65654 0
M  V30 14561 N 1348.03 0.0217466 1.57585 0
M  V30 14562 C 1348.98 -0.971557 2.06264 0
M  V30 14563 C 1349.96 -1.29 0.961656 0
M  V30 14564 O 1351.15 -1.27734 1.22527 0
M  V30 14565 C 1348.28 -2.25643 2.58728 0
M  V30 14566 C 1347.37 -1.96668 3.75743 0
M  V30 14567 N 1347.76 -1.37933 4.86629 0
M  V30 14568 C 1346.06 -2.26698 3.84088 0
M  V30 14569 C 1346.76 -1.25923 5.67907 0
M  V30 14570 N 1345.73 -1.75224 5.14585 0
M  V30 14571 H 1349.54 -0.512285 2.89401 0
M  V30 14572 H 1347.05 -0.183446 1.61361 0
M  V30 14573 H 1349.05 -2.97668 2.91889 0
M  V30 14574 H 1347.71 -2.72204 1.77018 0
M  V30 14575 H 1348.72 -1.05529 5.07034 0
M  V30 14576 H 1345.4 -2.75983 3.13272 0
M  V30 14577 H 1346.79 -0.805687 6.67052 0
M  V30 14578 N 1349.51 -1.55583 -0.251311 0
M  V30 14579 C 1350.92 -1.67693 -0.820719 0
M  V30 14580 C 1351.27 -0.618393 -1.862 0
M  V30 14581 O 1350.39 0.236158 -2.15108 0
M  V30 14582 C 1350.99 -3.04011 -1.49542 0
M  V30 14583 C 1349.55 -3.18075 -2.01259 0
M  V30 14584 C 1348.69 -2.63557 -0.862138 0
M  V30 14585 H 1351.64 -1.58677 -0.0272072 0
M  V30 14586 H 1351.67 -2.9821 -2.36328 0
M  V30 14587 H 1351.18 -3.81032 -0.737323 0
M  V30 14588 H 1349.28 -2.45869 -2.79963 0
M  V30 14589 H 1349.39 -4.24927 -2.213 0
M  V30 14590 H 1347.76 -2.21268 -1.26145 0
M  V30 14591 H 1348.54 -3.431 -0.117196 0
M  V30 14592 N 1350.98 0.516783 -1.48886 0
M  V30 14593 C 1352.23 1.27187 -1.57574 0
M  V30 14594 C 1352.56 1.92815 -0.255432 0
M  V30 14595 O 1351.81 1.80533 0.755403 0
M  V30 14596 C 1352.11 2.37296 -2.67256 0
M  V30 14597 C 1351.78 1.89232 -4.0927 0
M  V30 14598 C 1350.44 1.75842 -4.47921 0
M  V30 14599 C 1352.79 1.53073 -4.98215 0
M  V30 14600 C 1350.12 1.24648 -5.73306 0
M  V30 14601 C 1352.47 1.03337 -6.24103 0
M  V30 14602 C 1351.14 0.885744 -6.61597 0
M  V30 14603 H 1350.41 0.46541 -0.576606 0
M  V30 14604 H 1353.05 0.575223 -1.82657 0
M  V30 14605 H 1351.36 3.12685 -2.36084 0
M  V30 14606 H 1353.06 2.95393 -2.7119 0
M  V30 14607 H 1349.65 2.00608 -3.78754 0
M  V30 14608 H 1353.83 1.62272 -4.69022 0
M  V30 14609 H 1349.09 1.11917 -6.0107 0
M  V30 14610 H 1353.26 0.744338 -6.92411 0
M  V30 14611 H 1350.89 0.486866 -7.58639 0
M  V30 14612 N 1352.46 1.37696 0.766659 0
M  V30 14613 C 1353.71 1.33185 1.52539 0
M  V30 14614 C 1354.04 -0.0821239 1.94327 0
M  V30 14615 O 1353.29 -1.05645 1.64735 0
M  V30 14616 C 1353.59 2.22154 2.79968 0
M  V30 14617 C 1353.26 3.70344 2.57208 0
M  V30 14618 C 1351.92 4.10729 2.50709 0
M  V30 14619 C 1354.27 4.64205 2.36988 0
M  V30 14620 C 1351.6 5.43082 2.21988 0
M  V30 14621 C 1353.95 5.96801 2.0979 0
M  V30 14622 C 1352.61 6.36284 2.01739 0
M  V30 14623 H 1351.88 0.487357 0.558179 0
M  V30 14624 H 1354.53 1.69945 0.882662 0
M  V30 14625 H 1352.84 1.78406 3.48825 0
M  V30 14626 H 1354.53 2.15975 3.37869 0
M  V30 14627 H 1351.12 3.38319 2.63131 0
M  V30 14628 H 1355.31 4.3386 2.40996 0
M  V30 14629 H 1350.56 5.7263 2.14254 0
M  V30 14630 H 1354.74 6.6908 1.93145 0
M  V30 14631 H 1352.36 7.38765 1.79248 0
M  V30 14632 N 1353.94 -0.993397 1.22349 0
M  V30 14633 C 1355.36 -1.25708 0.983345 0
M  V30 14634 C 1355.56 -1.98888 -0.323372 0
M  V30 14635 O 1354.61 -2.2981 -1.04612 0
M  V30 14636 C 1355.92 -2.06935 2.1817 0
M  V30 14637 C 1357.47 -2.20121 2.22521 0
M  V30 14638 C 1357.95 -3.04735 3.41907 0
M  V30 14639 N 1359.44 -3.12322 3.42066 0
M  V30 14640 C 1360.17 -3.78081 4.31095 0
M  V30 14641 N 1359.67 -4.45771 5.3034 0
M  V30 14642 N 1361.46 -3.74837 4.18872 0
M  V30 14643 H 1353.61 -0.502767 2.06364 0
M  V30 14644 H 1355.88 -0.284656 0.904254 0
M  V30 14645 H 1355.58 -1.60525 3.12929 0
M  V30 14646 H 1355.46 -3.0769 2.18189 0
M  V30 14647 H 1357.84 -2.65745 1.28311 0
M  V30 14648 H 1357.92 -1.18798 2.26541 0
M  V30 14649 H 1357.57 -2.59811 4.36418 0
M  V30 14650 H 1357.5 -4.06198 3.35128 0
M  V30 14651 H 1359.99 -2.64146 2.7025 0
M  V30 14652 H 1360.3 -4.93687 5.94553 0
M  V30 14653 H 1358.65 -4.44521 5.34253 0
M  V30 14654 H 1361.84 -3.21116 3.40591 0
M  V30 14655 H 1362.01 -4.25806 4.8846 0
M  V30 14656 N 1355.42 -1.03311 -1.19015 0
M  V30 14657 C 1356.35 -0.638279 -2.24607 0
M  V30 14658 C 1357.33 0.354795 -1.66359 0
M  V30 14659 O 1358.51 0.236574 -1.92754 0
M  V30 14660 C 1355.64 0.00737316 -3.47299 0
M  V30 14661 C 1354.6 -0.908431 -4.18248 0
M  V30 14662 C 1353.92 -0.127658 -5.34548 0
M  V30 14663 C 1355.22 -2.2241 -4.72579 0
M  V30 14664 H 1356.92 -1.52099 -2.57888 0
M  V30 14665 H 1354.46 -0.732779 -1.23961 0
M  V30 14666 H 1356.42 0.295256 -4.20364 0
M  V30 14667 H 1355.14 0.924912 -3.1323 0
M  V30 14668 H 1353.8 -1.18058 -3.47071 0
M  V30 14669 H 1353.45 0.792048 -4.96725 0
M  V30 14670 H 1353.15 -0.737702 -5.82951 0
M  V30 14671 H 1354.67 0.153385 -6.10407 0
M  V30 14672 H 1356.09 -1.99745 -5.37378 0
M  V30 14673 H 1354.48 -2.78644 -5.31486 0
M  V30 14674 H 1355.55 -2.87584 -3.90415 0
M  V30 14675 N 1356.9 1.35099 -0.81154 0
M  V30 14676 C 1358.14 1.9788 -0.390695 0
M  V30 14677 C 1358.46 1.6509 1.04903 0
M  V30 14678 O 1359.66 2.21273 1.57324 0
M  V30 14679 C 1358.12 3.54025 -0.647632 0
M  V30 14680 C 1357.73 3.9572 -2.10023 0
M  V30 14681 C 1359.47 4.23492 -0.29239 0
M  V30 14682 C 1357.38 5.44731 -2.30266 0
M  V30 14683 H 1356.31 0.740441 -0.14235 0
M  V30 14684 H 1358.96 1.54098 -0.996294 0
M  V30 14685 H 1357.34 3.9599 0.0279838 0
M  V30 14686 H 1358.52 3.64893 -2.81407 0
M  V30 14687 H 1356.83 3.39157 -2.41581 0
M  V30 14688 H 1359.43 5.33035 -0.421618 0
M  V30 14689 H 1359.77 4.09268 0.76195 0
M  V30 14690 H 1360.3 3.86965 -0.922122 0
M  V30 14691 H 1357.04 5.63928 -3.34163 0
M  V30 14692 H 1356.56 5.7711 -1.63413 0
M  V30 14693 H 1358.24 6.1126 -2.12062 0
M  V30 14694 N 1358.37 0.56548 1.47106 0
M  V30 14695 C 1359.65 -0.0215358 1.95588 0
M  V30 14696 C 1360.03 -1.47712 1.50813 0
M  V30 14697 O 1359.38 -2.15814 0.750776 0
M  V30 14698 C 1359.59 0.132552 3.48748 0
M  V30 14699 C 1360.94 -0.00853591 4.24599 0
M  V30 14700 O 1361.96 0.0605142 3.56149 0
M  V30 14701 O 1360.82 -0.158519 5.4627 0
M  V30 14702 H 1357.91 -0.0595011 0.824857 0
M  V30 14703 H 1360.46 0.632586 1.57469 0
M  V30 14704 H 1359.23 1.14511 3.7417 0
M  V30 14705 H 1358.85 -0.558801 3.93654 0
M  V30 14706 N 1359.85 -1.54672 0.302354 0
M  V30 14707 C 1361.1 -2.01178 -0.299842 0
M  V30 14708 C 1361.45 -1.18698 -1.51422 0
M  V30 14709 O 1360.75 -0.255677 -1.89886 0
M  V30 14710 C 1360.94 -3.5035 -0.70638 0
M  V30 14711 C 1360.77 -4.47268 0.467051 0
M  V30 14712 C 1359.54 -4.96107 0.959494 0
M  V30 14713 C 1361.74 -4.97272 1.31245 0
M  V30 14714 N 1359.72 -5.76881 2.09955 0
M  V30 14715 C 1361.09 -5.75761 2.29997 0
M  V30 14716 C 1363.15 -4.79455 1.34267 0
M  V30 14717 C 1361.85 -6.38332 3.31549 0
M  V30 14718 C 1363.87 -5.42845 2.34677 0
M  V30 14719 C 1363.24 -6.21168 3.32159 0
M  V30 14720 H 1359.34 -0.778477 -0.0741425 0
M  V30 14721 H 1361.92 -1.89834 0.432577 0
M  V30 14722 H 1360.09 -3.61982 -1.40797 0
M  V30 14723 H 1361.82 -3.83649 -1.28823 0
M  V30 14724 H 1358.58 -4.70577 0.534246 0
M  V30 14725 H 1359 -6.21953 2.67401 0
M  V30 14726 H 1363.64 -4.18482 0.602738 0
M  V30 14727 H 1361.36 -6.98438 4.0646 0
M  V30 14728 H 1364.95 -5.30987 2.37791 0
M  V30 14729 H 1363.83 -6.69349 4.08584 0
M  V30 14730 N 1361.33 -0.0301034 -1.57571 0
M  V30 14731 C 1362.56 0.662045 -1.9655 0
M  V30 14732 C 1362.98 1.64811 -0.906581 0
M  V30 14733 O 1362.34 1.80816 0.132415 0
M  V30 14734 C 1362.39 1.34389 -3.34622 0
M  V30 14735 O 1361.49 2.45919 -3.31056 0
M  V30 14736 H 1360.83 0.173842 -0.640839 0
M  V30 14737 H 1363.36 -0.092248 -2.04392 0
M  V30 14738 H 1363.37 1.70045 -3.70875 0
M  V30 14739 H 1362.05 0.621092 -4.11236 0
M  V30 14740 H 1360.62 2.12367 -3.06521 0
M  V30 14741 N 1362.81 1.55714 0.243056 0
M  V30 14742 C 1363.77 1.89832 1.28438 0
M  V30 14743 C 1364.77 0.775083 1.40887 0
M  V30 14744 O 1365.96 1.04304 1.39521 0
M  V30 14745 C 1363.09 2.13016 2.66153 0
M  V30 14746 H 1364.29 2.82947 0.994022 0
M  V30 14747 H 1361.84 1.48665 0.482521 0
M  V30 14748 H 1362.57 1.22381 3.00322 0
M  V30 14749 H 1362.36 2.94824 2.58498 0
M  V30 14750 H 1363.85 2.40581 3.41336 0
M  V30 14751 N 1364.29 -0.50888 1.49158 0
M  V30 14752 C 1365.22 -1.62008 1.68154 0
M  V30 14753 C 1366.2 -1.61624 0.53025 0
M  V30 14754 O 1367.38 -1.78489 0.765205 0
M  V30 14755 C 1364.51 -3.00525 1.74075 0
M  V30 14756 C 1363.47 -3.15773 2.88915 0
M  V30 14757 C 1362.79 -4.55562 2.79942 0
M  V30 14758 C 1364.09 -2.96542 4.29953 0
M  V30 14759 H 1365.79 -1.46365 2.61185 0
M  V30 14760 H 1363.33 -0.702705 1.2569 0
M  V30 14761 H 1365.29 -3.78154 1.8595 0
M  V30 14762 H 1364.01 -3.17238 0.776373 0
M  V30 14763 H 1362.67 -2.40567 2.76628 0
M  V30 14764 H 1362.32 -4.6914 1.81429 0
M  V30 14765 H 1362.02 -4.66706 3.57015 0
M  V30 14766 H 1363.54 -5.35262 2.93814 0
M  V30 14767 H 1364.95 -3.63947 4.42963 0
M  V30 14768 H 1363.35 -3.19164 5.08187 0
M  V30 14769 H 1364.42 -1.92745 4.44946 0
M  V30 14770 N 1365.76 -1.381 -0.759346 0
M  V30 14771 C 1366.7 -1.29241 -1.88075 0
M  V30 14772 C 1367.68 -0.170526 -1.61703 0
M  V30 14773 O 1368.86 -0.346865 -1.85281 0
M  V30 14774 C 1365.99 -1.00115 -3.23566 0
M  V30 14775 C 1365.03 -2.14161 -3.68832 0
M  V30 14776 S 1365.87 -3.76251 -3.81045 0
M  V30 14777 C 1367.02 -3.49301 -5.19365 0
M  V30 14778 H 1367.25 -2.24152 -1.95303 0
M  V30 14779 H 1364.79 -1.23869 -0.921734 0
M  V30 14780 H 1366.75 -0.839934 -4.01815 0
M  V30 14781 H 1365.41 -0.0693088 -3.14024 0
M  V30 14782 H 1364.6 -1.89313 -4.67094 0
M  V30 14783 H 1364.2 -2.2636 -2.9772 0
M  V30 14784 H 1366.49 -3.05058 -6.04935 0
M  V30 14785 H 1367.44 -4.46935 -5.49231 0
M  V30 14786 H 1367.84 -2.83944 -4.87889 0
M  V30 14787 N 1367.24 0.986894 -1.22875 0
M  V30 14788 C 1368.52 1.70121 -0.965311 0
M  V30 14789 C 1368.9 2.04648 0.517924 0
M  V30 14790 O 1368.25 1.73453 1.48749 0
M  V30 14791 C 1368.46 2.94738 -1.86897 0
M  V30 14792 C 1369.81 3.6739 -2.12861 0
M  V30 14793 O 1370.83 3.04758 -1.84394 0
M  V30 14794 O 1369.69 4.8009 -2.61106 0
M  V30 14795 H 1366.78 0.742817 -0.363527 0
M  V30 14796 H 1369.33 1.0427 -1.33887 0
M  V30 14797 H 1368.1 2.65771 -2.87196 0
M  V30 14798 H 1367.72 3.68327 -1.49736 0
M  V30 14799 N 1368.72 1.0394 1.18466 0
M  V30 14800 C 1369.67 0.629352 2.22054 0
M  V30 14801 C 1370.64 -0.362187 1.62103 0
M  V30 14802 O 1371.82 -0.256457 1.89069 0
M  V30 14803 C 1368.96 -0.00282888 3.451 0
M  V30 14804 C 1368.08 1.03602 4.19393 0
M  V30 14805 C 1367.21 0.372492 5.29892 0
M  V30 14806 C 1366.25 1.39652 5.95956 0
M  V30 14807 N 1365.39 0.758053 6.97996 0
M  V30 14808 H 1370.23 1.51722 2.56485 0
M  V30 14809 H 1367.76 0.759043 1.26004 0
M  V30 14810 H 1369.72 -0.386688 4.15404 0
M  V30 14811 H 1368.35 -0.854224 3.11292 0
M  V30 14812 H 1367.4 1.53784 3.47929 0
M  V30 14813 H 1368.72 1.81387 4.64651 0
M  V30 14814 H 1367.87 -0.065642 6.06664 0
M  V30 14815 H 1366.61 -0.437462 4.85734 0
M  V30 14816 H 1365.61 1.84481 5.17926 0
M  V30 14817 H 1366.84 2.20816 6.42197 0
M  V30 14818 H 1364.78 -0.0316173 6.55992 0
M  V30 14819 H 1364.7 1.47363 7.41499 0
M  V30 14820 H 1365.97 0.344273 7.78739 0
M  V30 14821 N 1370.2 -1.34667 0.818693 0
M  V30 14822 C 1371.15 -2.29595 0.235551 0
M  V30 14823 C 1372.12 -1.53389 -0.63727 0
M  V30 14824 O 1373.3 -1.81777 -0.579804 0
M  V30 14825 C 1370.44 -3.39843 -0.600043 0
M  V30 14826 C 1369.55 -4.30995 0.294553 0
M  V30 14827 C 1368.69 -5.28343 -0.550203 0
M  V30 14828 C 1367.73 -6.11132 0.344043 0
M  V30 14829 N 1366.86 -7.00582 -0.461392 0
M  V30 14830 H 1371.7 -2.78872 1.05044 0
M  V30 14831 H 1369.24 -1.37239 0.529517 0
M  V30 14832 H 1371.2 -4.02443 -1.09978 0
M  V30 14833 H 1369.83 -2.91811 -1.38008 0
M  V30 14834 H 1368.88 -3.69294 0.912483 0
M  V30 14835 H 1370.19 -4.89031 0.982341 0
M  V30 14836 H 1369.35 -5.96374 -1.11459 0
M  V30 14837 H 1368.09 -4.70833 -1.27151 0
M  V30 14838 H 1367.09 -5.42038 0.920608 0
M  V30 14839 H 1368.32 -6.70722 1.0634 0
M  V30 14840 H 1366.26 -6.45546 -1.16645 0
M  V30 14841 H 1366.18 -7.55813 0.168095 0
M  V30 14842 H 1367.45 -7.72946 -1.00867 0
M  V30 14843 N 1371.68 -0.573274 -1.46804 0
M  V30 14844 C 1372.92 -0.0553432 -2.02724 0
M  V30 14845 C 1373.26 1.29753 -1.44492 0
M  V30 14846 O 1372.53 1.84804 -0.606455 0
M  V30 14847 C 1372.81 0.0205511 -3.60094 0
M  V30 14848 C 1372.67 -1.36055 -4.2873 0
M  V30 14849 C 1373.99 0.725944 -4.34071 0
M  V30 14850 H 1371.1 -0.0215858 -0.736684 0
M  V30 14851 H 1373.75 -0.738657 -1.75054 0
M  V30 14852 H 1371.9 0.602481 -3.838 0
M  V30 14853 H 1373.57 -1.98692 -4.16316 0
M  V30 14854 H 1371.81 -1.93087 -3.88458 0
M  V30 14855 H 1372.48 -1.26001 -5.37427 0
M  V30 14856 H 1374.96 0.231677 -4.15455 0
M  V30 14857 H 1373.83 0.74805 -5.43779 0
M  V30 14858 H 1374.1 1.78536 -4.04447 0
M  V30 14859 N 1373.15 1.5451 -0.310553 0
M  V30 14860 C 1374.1 2.23871 0.561277 0
M  V30 14861 C 1375.07 1.22475 1.12202 0
M  V30 14862 O 1376.26 1.51121 1.16477 0
M  V30 14863 C 1373.4 2.99029 1.72267 0
M  V30 14864 C 1372.51 4.15218 1.19241 0
M  V30 14865 C 1371.64 4.77935 2.31843 0
M  V30 14866 C 1370.68 5.86251 1.75999 0
M  V30 14867 N 1369.82 6.42885 2.82212 0
M  V30 14868 H 1374.66 2.97977 -0.0367998 0
M  V30 14869 H 1372.2 1.4707 -0.0299317 0
M  V30 14870 H 1374.16 3.40842 2.40588 0
M  V30 14871 H 1372.79 2.27281 2.29223 0
M  V30 14872 H 1371.84 3.78279 0.401148 0
M  V30 14873 H 1373.15 4.93225 0.743675 0
M  V30 14874 H 1372.3 5.2265 3.08094 0
M  V30 14875 H 1371.04 3.99281 2.80047 0
M  V30 14876 H 1370.05 5.40952 0.982415 0
M  V30 14877 H 1371.27 6.66795 1.28688 0
M  V30 14878 H 1369.22 5.67109 3.29732 0
M  V30 14879 H 1369.14 7.16267 2.41864 0
M  V30 14880 H 1370.4 6.92256 3.58332 0
M  V30 14881 N 1374.63 0.0384594 1.57553 0
M  V30 14882 C 1376.04 -0.499057 1.79906 0
M  V30 14883 C 1376.4 -1.7169 0.949577 0
M  V30 14884 O 1375.52 -2.15788 0.162584 0
M  V30 14885 C 1376.12 -0.912155 3.2629 0
M  V30 14886 C 1374.67 -1.39473 3.49606 0
M  V30 14887 C 1373.82 -0.363859 2.74902 0
M  V30 14888 H 1376.77 0.264433 1.56481 0
M  V30 14889 H 1376.79 -1.77592 3.36513 0
M  V30 14890 H 1376.31 -0.0255928 3.88092 0
M  V30 14891 H 1374.41 -2.3009 2.93068 0
M  V30 14892 H 1374.52 -1.39566 4.58321 0
M  V30 14893 H 1372.88 -0.833993 2.40659 0
M  V30 14894 H 1373.67 0.514398 3.39424 0
M  V30 14895 N 1376.11 -1.55841 -0.234795 0
M  V30 14896 C 1377.52 -1.68555 -0.802886 0
M  V30 14897 C 1377.87 -0.638107 -1.85533 0
M  V30 14898 O 1377 0.21333 -2.15346 0
M  V30 14899 C 1377.59 -3.0558 -1.46309 0
M  V30 14900 C 1376.15 -3.20192 -1.97874 0
M  V30 14901 C 1375.3 -2.64457 -0.834136 0
M  V30 14902 H 1378.25 -1.58697 -0.0103759 0
M  V30 14903 H 1378.27 -3.007 -2.33152 0
M  V30 14904 H 1377.78 -3.81792 -0.696868 0
M  V30 14905 H 1375.88 -2.48825 -2.77339 0
M  V30 14906 H 1376 -4.27251 -2.1678 0
M  V30 14907 H 1374.36 -2.22593 -1.23791 0
M  V30 14908 H 1375.14 -3.43205 -0.0807988 0
M  V30 14909 N 1377.59 0.500963 -1.49426 0
M  V30 14910 C 1378.84 1.25509 -1.58915 0
M  V30 14911 C 1379.16 1.92534 -0.275868 0
M  V30 14912 O 1378.42 1.81324 0.736212 0
M  V30 14913 C 1378.72 2.34448 -2.69757 0
M  V30 14914 C 1378.38 1.8488 -4.11254 0
M  V30 14915 C 1377.05 1.71081 -4.49761 0
M  V30 14916 C 1379.4 1.4778 -4.9981 0
M  V30 14917 C 1376.73 1.18561 -5.74596 0
M  V30 14918 C 1379.08 0.967118 -6.25164 0
M  V30 14919 C 1377.74 0.815523 -6.62499 0
M  V30 14920 H 1377.01 0.459268 -0.58151 0
M  V30 14921 H 1379.66 0.555817 -1.83256 0
M  V30 14922 H 1377.96 3.10163 -2.39387 0
M  V30 14923 H 1379.66 2.925 -2.74308 0
M  V30 14924 H 1376.25 1.9658 -3.8086 0
M  V30 14925 H 1380.44 1.57288 -4.70717 0
M  V30 14926 H 1375.69 1.05536 -6.02223 0
M  V30 14927 H 1379.87 0.670857 -6.93161 0
M  V30 14928 H 1377.49 0.406375 -7.59113 0
M  V30 14929 N 1379.07 1.38501 0.752011 0
M  V30 14930 C 1380.32 1.34112 1.50655 0
M  V30 14931 C 1380.63 -0.0657661 1.95489 0
M  V30 14932 O 1381.84 -0.232199 2.70505 0
M  V30 14933 C 1380.29 2.35514 2.72142 0
M  V30 14934 C 1379.9 3.81831 2.34326 0
M  V30 14935 C 1381.64 2.40171 3.50026 0
M  V30 14936 C 1379.55 4.74915 3.52434 0
M  V30 14937 H 1378.48 0.498519 0.565681 0
M  V30 14938 H 1381.13 1.64064 0.821913 0
M  V30 14939 H 1379.51 1.98607 3.42595 0
M  V30 14940 H 1380.69 4.27685 1.7153 0
M  V30 14941 H 1379 3.80308 1.69573 0
M  V30 14942 H 1381.6 3.06913 4.37845 0
M  V30 14943 H 1381.94 1.42111 3.91293 0
M  V30 14944 H 1382.48 2.75884 2.86588 0
M  V30 14945 H 1379.21 5.74176 3.16232 0
M  V30 14946 H 1378.73 4.33753 4.14268 0
M  V30 14947 H 1380.41 4.93003 4.18995 0
M  V30 14948 N 1380.55 -0.980364 1.23396 0
M  V30 14949 C 1381.96 -1.53622 1.061 0
M  V30 14950 C 1382.31 -1.92648 -0.371645 0
M  V30 14951 O 1381.43 -1.76051 -1.25837 0
M  V30 14952 C 1382.03 -2.79159 1.91979 0
M  V30 14953 C 1380.59 -3.31144 1.78943 0
M  V30 14954 C 1379.73 -2.04135 1.87681 0
M  V30 14955 H 1382.68 -0.800047 1.37058 0
M  V30 14956 H 1382.71 -3.52011 1.4446 0
M  V30 14957 H 1382.22 -2.50723 2.96242 0
M  V30 14958 H 1380.32 -3.64459 0.774634 0
M  V30 14959 H 1380.43 -4.009 2.62329 0
M  V30 14960 H 1378.8 -2.18271 1.31262 0
M  V30 14961 H 1379.58 -1.78081 2.93499 0
M  V30 14962 N 1382.02 -1.04567 -1.17913 0
M  V30 14963 C 1383.25 -0.772204 -1.9195 0
M  V30 14964 C 1383.67 0.671303 -1.76462 0
M  V30 14965 O 1383.02 1.45805 -1.0976 0
M  V30 14966 C 1383.07 -1.13539 -3.43207 0
M  V30 14967 O 1382.8 -2.52223 -3.58211 0
M  V30 14968 C 1384.3 -0.887146 -4.34332 0
M  V30 14969 H 1381.52 -0.281234 -0.609219 0
M  V30 14970 H 1384.06 -1.39467 -1.49563 0
M  V30 14971 H 1382.22 -0.557784 -3.83363 0
M  V30 14972 H 1382.63 -2.66275 -4.51882 0
M  V30 14973 H 1384.1 -1.19107 -5.38997 0
M  V30 14974 H 1384.58 0.1779 -4.3884 0
M  V30 14975 H 1385.19 -1.44829 -3.99881 0
M  V30 14976 N 1383.5 1.34231 -0.825823 0
M  V30 14977 C 1384.75 1.97454 -0.411661 0
M  V30 14978 C 1385.06 1.66193 1.03147 0
M  V30 14979 O 1386.27 2.22929 1.54968 0
M  V30 14980 C 1384.73 3.53318 -0.685145 0
M  V30 14981 C 1384.33 3.9347 -2.14208 0
M  V30 14982 C 1386.08 4.23158 -0.337291 0
M  V30 14983 C 1383.98 5.42258 -2.3603 0
M  V30 14984 H 1382.91 0.738889 -0.150196 0
M  V30 14985 H 1385.57 1.53033 -1.01258 0
M  V30 14986 H 1383.95 3.95998 -0.0140178 0
M  V30 14987 H 1385.12 3.61888 -2.85261 0
M  V30 14988 H 1383.44 3.36575 -2.45165 0
M  V30 14989 H 1386.03 5.32558 -0.47813 0
M  V30 14990 H 1386.38 4.10053 0.718499 0
M  V30 14991 H 1386.91 3.85965 -0.963113 0
M  V30 14992 H 1383.65 5.60352 -3.40126 0
M  V30 14993 H 1383.17 5.75345 -1.69524 0
M  V30 14994 H 1384.85 6.08976 -2.18533 0
M  V30 14995 N 1384.98 0.581051 1.46498 0
M  V30 14996 C 1386.4 0.242599 1.57745 0
M  V30 14997 C 1386.6 -1.25508 1.57639 0
M  V30 14998 O 1385.65 -2.0367 1.49247 0
M  V30 14999 C 1386.96 0.890342 2.87217 0
M  V30 15000 C 1388.51 0.863778 3.00845 0
M  V30 15001 C 1388.99 1.49103 4.3305 0
M  V30 15002 N 1390.48 1.4553 4.39745 0
M  V30 15003 C 1391.21 1.91003 5.40653 0
M  V30 15004 N 1390.71 2.44442 6.48244 0
M  V30 15005 N 1392.5 1.8193 5.31844 0
M  V30 15006 H 1384.65 1.55382 1.44811 0
M  V30 15007 H 1386.92 0.649375 0.690664 0
M  V30 15008 H 1386.62 1.94383 2.93101 0
M  V30 15009 H 1386.5 0.397569 3.75099 0
M  V30 15010 H 1388.88 -0.181089 2.94544 0
M  V30 15011 H 1388.96 1.39455 2.14443 0
M  V30 15012 H 1388.61 2.53509 4.40109 0
M  V30 15013 H 1388.54 0.935496 5.18224 0
M  V30 15014 H 1391.03 1.06466 3.62593 0
M  V30 15015 H 1391.34 2.77002 7.2145 0
M  V30 15016 H 1389.69 2.48467 6.49068 0
M  V30 15017 H 1392.88 1.3994 4.46693 0
M  V30 15018 H 1393.05 2.17685 6.10342 0
M  V30 15019 N 1386.46 -1.54343 0.318742 0
M  V30 15020 C 1387.71 -2.00084 -0.284713 0
M  V30 15021 C 1388.03 -1.20855 -1.53033 0
M  V30 15022 O 1387.3 -0.309104 -1.93446 0
M  V30 15023 H 1385.88 -0.739123 -0.108193 0
M  V30 15024 H 1388.54 -1.90002 0.434174 0
M  V30 15025 H 1387.63 -3.07314 -0.544459 0
M  V30 15026 N 1387.94 -0.0468143 -1.5753 0
M  V30 15027 C 1389.35 0.309707 -1.56566 0
M  V30 15028 C 1389.55 1.7173 -1.05408 0
M  V30 15029 O 1388.61 2.4235 -0.708723 0
M  V30 15030 C 1389.92 0.142151 -3.00364 0
M  V30 15031 C 1391.47 0.213585 -3.1227 0
M  V30 15032 C 1391.94 0.0746102 -4.57939 0
M  V30 15033 N 1393.43 0.131027 -4.63015 0
M  V30 15034 C 1394.17 0.0475409 -5.7338 0
M  V30 15035 N 1393.67 -0.0880445 -6.92744 0
M  V30 15036 N 1395.46 0.102809 -5.62006 0
M  V30 15037 H 1387.61 -0.967057 -1.89108 0
M  V30 15038 H 1389.87 -0.375018 -0.870669 0
M  V30 15039 H 1389.58 -0.828171 -3.4181 0
M  V30 15040 H 1389.45 0.905006 -3.66182 0
M  V30 15041 H 1391.84 1.17438 -2.70726 0
M  V30 15042 H 1391.92 -0.57995 -2.49139 0
M  V30 15043 H 1391.56 -0.882839 -5.00168 0
M  V30 15044 H 1391.49 0.887235 -5.19072 0
M  V30 15045 H 1393.99 0.235246 -3.77167 0
M  V30 15046 H 1394.3 -0.144574 -7.72665 0
M  V30 15047 H 1392.64 -0.12307 -6.94891 0
M  V30 15048 H 1395.83 0.207259 -4.67641 0
M  V30 15049 H 1396.01 0.0342865 -6.47991 0
M  V30 15050 N 1389.41 1.55964 0.226527 0
M  V30 15051 C 1390.32 1.95169 1.30178 0
M  V30 15052 C 1391.34 0.854831 1.51554 0
M  V30 15053 O 1392.52 1.15798 1.64781 0
M  V30 15054 C 1389.58 2.25612 2.63249 0
M  V30 15055 C 1388.64 3.4884 2.50219 0
M  V30 15056 C 1387.88 3.77822 3.76944 0
M  V30 15057 O 1388.1 3.08556 4.79739 0
M  V30 15058 O 1387.03 4.7132 3.74354 0
M  V30 15059 H 1390.86 2.86794 0.999145 0
M  V30 15060 H 1388.44 1.43109 0.42898 0
M  V30 15061 H 1390.33 2.4641 3.41848 0
M  V30 15062 H 1389 1.37162 2.93203 0
M  V30 15063 H 1387.91 3.33326 1.69836 0
M  V30 15064 H 1389.24 4.37657 2.25205 0
M  V30 15065 N 1390.89 -0.493031 1.4969 0
M  V30 15066 C 1392.17 -1.25436 1.50084 0
M  V30 15067 C 1392.55 -2.0981 0.233038 0
M  V30 15068 O 1391.9 -2.14617 -0.784342 0
M  V30 15069 C 1392.11 -2.10425 2.78428 0
M  V30 15070 C 1393.46 -2.69349 3.28232 0
M  V30 15071 O 1394.48 -2.20686 2.796 0
M  V30 15072 O 1393.34 -3.57956 4.12953 0
M  V30 15073 H 1390.43 -0.568044 0.601045 0
M  V30 15074 H 1392.98 -0.506648 1.6196 0
M  V30 15075 H 1391.75 -1.48108 3.62187 0
M  V30 15076 H 1391.37 -2.92374 2.6945 0
M  V30 15077 N 1392.37 -1.38898 -0.744656 0
M  V30 15078 C 1393.62 -1.35795 -1.50623 0
M  V30 15079 C 1393.95 0.0491775 -1.94138 0
M  V30 15080 O 1393.22 1.01219 -1.66087 0
M  V30 15081 C 1393.51 -2.32168 -2.75263 0
M  V30 15082 C 1393.36 -3.81781 -2.3783 0
M  V30 15083 C 1394.68 -2.26526 -3.77325 0
M  V30 15084 H 1391.8 -0.494591 -0.546396 0
M  V30 15085 H 1394.44 -1.69816 -0.852211 0
M  V30 15086 H 1392.59 -2.03287 -3.31069 0
M  V30 15087 H 1394.26 -4.21373 -1.8773 0
M  V30 15088 H 1392.51 -3.99027 -1.70176 0
M  V30 15089 H 1393.18 -4.44687 -3.27044 0
M  V30 15090 H 1395.65 -2.52041 -3.31081 0
M  V30 15091 H 1394.53 -2.96053 -4.62216 0
M  V30 15092 H 1394.79 -1.26705 -4.23554 0
M  V30 15093 N 1393.85 0.973806 -1.23914 0
M  V30 15094 C 1395.07 1.7564 -1.10296 0
M  V30 15095 C 1395.5 1.84984 0.340954 0
M  V30 15096 O 1394.86 1.31629 1.24674 0
M  V30 15097 C 1394.9 3.15809 -1.7406 0
M  V30 15098 O 1394.01 3.99911 -1.00722 0
M  V30 15099 H 1393.35 0.540133 -0.386202 0
M  V30 15100 H 1395.88 1.22197 -1.64101 0
M  V30 15101 H 1395.89 3.66359 -1.79568 0
M  V30 15102 H 1394.56 3.08324 -2.79122 0
M  V30 15103 H 1393.14 3.58405 -1.02956 0
M  V30 15104 N 1395.33 1.05191 1.17357 0
M  V30 15105 C 1396.27 0.646796 2.23426 0
M  V30 15106 C 1397.27 -0.331918 1.66116 0
M  V30 15107 O 1398.47 -0.197982 1.78908 0
M  V30 15108 H 1394.85 0.190988 0.727343 0
M  V30 15109 H 1396.82 1.55152 2.54893 0
M  V30 15110 C 1395.57 0.037505 3.4768 0
M  V30 15111 H 1394.89 0.781686 3.92084 0
M  V30 15112 H 1396.33 -0.20858 4.23487 0
M  V30 15113 C 1394.79 -1.21581 3.14197 0
M  V30 15114 O 1395.32 -2.3052 3.28973 0
M  V30 15115 N 1393.53 -1.11346 2.68422 0
M  V30 15116 H 1393.07 -0.226943 2.56598 0
M  V30 15117 H 1393.03 -1.95291 2.46392 0
M  V30 15118 N 1396.8 -1.33791 0.83293 0
M  V30 15119 C 1398.05 -1.97973 0.425781 0
M  V30 15120 C 1398.38 -1.66003 -1.01357 0
M  V30 15121 O 1397.63 -0.929016 -1.72243 0
M  V30 15122 C 1397.93 -3.52555 0.586485 0
M  V30 15123 C 1397.6 -4.04461 1.99304 0
M  V30 15124 C 1396.26 -4.18347 2.37779 0
M  V30 15125 C 1398.61 -4.3226 2.91206 0
M  V30 15126 C 1395.94 -4.57364 3.67471 0
M  V30 15127 C 1398.29 -4.72727 4.20371 0
M  V30 15128 C 1396.96 -4.84819 4.5881 0
M  V30 15129 H 1396.23 -0.724435 0.155804 0
M  V30 15130 H 1398.87 -1.59567 1.05881 0
M  V30 15131 H 1397.18 -3.91585 -0.129885 0
M  V30 15132 H 1398.88 -4.00208 0.251835 0
M  V30 15133 H 1395.47 -3.94122 1.68421 0
M  V30 15134 H 1399.65 -4.2106 2.6272 0
M  V30 15135 H 1394.91 -4.64918 3.97065 0
M  V30 15136 H 1399.08 -4.93194 4.91663 0
M  V30 15137 H 1396.71 -5.14809 5.59353 0
M  V30 15138 N 1398.28 -0.588812 -1.46187 0
M  V30 15139 C 1399.56 -0.00958331 -1.95598 0
M  V30 15140 C 1399.94 1.45294 -1.53144 0
M  V30 15141 O 1399.29 2.14592 -0.785015 0
M  V30 15142 C 1399.5 -0.188018 -3.48493 0
M  V30 15143 C 1400.85 -0.0590152 -4.24559 0
M  V30 15144 O 1401.87 -0.117167 -3.56007 0
M  V30 15145 O 1400.73 0.0715924 -5.46453 0
M  V30 15146 H 1397.82 0.0463708 -0.825699 0
M  V30 15147 H 1400.37 -0.657558 -1.56443 0
M  V30 15148 H 1399.14 -1.20449 -3.723 0
M  V30 15149 H 1398.76 0.496103 -3.94493 0
M  V30 15150 N 1399.76 1.54172 -0.326923 0
M  V30 15151 C 1401.04 1.92812 0.329078 0
M  V30 15152 C 1401.42 1.25687 1.69605 0
M  V30 15153 O 1400.77 0.401779 2.2494 0
M  V30 15154 C 1400.98 3.46488 0.417949 0
M  V30 15155 C 1402.32 4.19174 0.67665 0
M  V30 15156 O 1403.35 3.52663 0.500735 0
M  V30 15157 O 1402.21 5.36968 1.01625 0
M  V30 15158 H 1399.3 0.805214 0.188573 0
M  V30 15159 H 1401.85 1.65462 -0.376884 0
M  V30 15160 H 1400.62 3.87528 -0.541986 0
M  V30 15161 H 1400.24 3.79954 1.17136 0
M  V30 15162 N 1401.24 0.0551678 1.57503 0
M  V30 15163 C 1402.15 -0.932959 2.15251 0
M  V30 15164 C 1403.16 -1.33885 1.11134 0
M  V30 15165 O 1404.34 -1.41495 1.43321 0
M  V30 15166 C 1401.41 -2.18807 2.68932 0
M  V30 15167 C 1400.47 -1.84016 3.87862 0
M  V30 15168 C 1399.7 -3.03543 4.38973 0
M  V30 15169 O 1399.92 -4.17041 3.89144 0
M  V30 15170 O 1398.86 -2.84325 5.30512 0
M  V30 15171 H 1402.68 -0.471816 3.00013 0
M  V30 15172 H 1400.27 -0.16696 1.48464 0
M  V30 15173 H 1402.15 -2.92439 3.0341 0
M  V30 15174 H 1400.82 -2.64051 1.87239 0
M  V30 15175 H 1399.73 -1.07687 3.58266 0
M  V30 15176 H 1401.06 -1.43567 4.70796 0
M  V30 15177 N 1402.72 -1.56081 -0.218252 0
M  V30 15178 C 1403.96 -1.79247 -0.942157 0
M  V30 15179 C 1404.29 -0.624492 -1.84202 0
M  V30 15180 O 1403.55 0.390973 -1.91755 0
M  V30 15181 C 1403.85 -3.08199 -1.80965 0
M  V30 15182 C 1403.51 -4.38197 -1.06274 0
M  V30 15183 C 1402.17 -4.73517 -0.856432 0
M  V30 15184 C 1404.53 -5.18441 -0.535532 0
M  V30 15185 C 1401.85 -5.86595 -0.111065 0
M  V30 15186 C 1404.21 -6.32295 0.196507 0
M  V30 15187 C 1402.87 -6.66215 0.414041 0
M  V30 15188 H 1402.14 -0.655913 -0.34476 0
M  V30 15189 H 1404.79 -1.90344 -0.210095 0
M  V30 15190 H 1403.09 -2.92238 -2.60967 0
M  V30 15191 H 1404.79 -3.23325 -2.37196 0
M  V30 15192 H 1401.38 -4.10466 -1.23352 0
M  V30 15193 H 1405.56 -4.91586 -0.682386 0
M  V30 15194 H 1400.82 -6.11363 0.0676711 0
M  V30 15195 H 1404.99 -6.93701 0.612516 0
M  V30 15196 H 1402.62 -7.5368 0.993532 0
M  V30 15197 N 1404.2 0.485086 -1.49949 0
M  V30 15198 C 1405.42 1.26179 -1.63971 0
M  V30 15199 C 1405.84 1.86113 -0.317408 0
M  V30 15200 O 1405.2 1.68581 0.699038 0
M  V30 15201 C 1405.25 2.38062 -2.72046 0
M  V30 15202 O 1404.97 1.80588 -3.99149 0
M  V30 15203 C 1406.47 3.29174 -2.96916 0
M  V30 15204 H 1403.69 0.382122 -0.551565 0
M  V30 15205 H 1406.23 0.580607 -1.96085 0
M  V30 15206 H 1404.39 3.0198 -2.42666 0
M  V30 15207 H 1404.8 2.54159 -4.58807 0
M  V30 15208 H 1406.28 4.03922 -3.76233 0
M  V30 15209 H 1406.75 3.87123 -2.07443 0
M  V30 15210 H 1407.36 2.71006 -3.27774 0
M  V30 15211 N 1405.67 1.39291 0.737279 0
M  V30 15212 C 1406.9 1.39844 1.53162 0
M  V30 15213 C 1407.32 -0.00568546 1.88099 0
M  V30 15214 O 1406.68 -0.992085 1.51748 0
M  V30 15215 C 1406.73 2.27577 2.79716 0
M  V30 15216 O 1405.83 1.70408 3.75546 0
M  V30 15217 H 1405.17 0.476314 0.462624 0
M  V30 15218 H 1407.7 1.83258 0.909819 0
M  V30 15219 H 1407.71 2.42009 3.28475 0
M  V30 15220 H 1406.39 3.29621 2.53619 0
M  V30 15221 H 1404.97 1.65206 3.34307 0
M  V30 15222 N 1407.15 -0.967221 1.24429 0
M  V30 15223 C 1408.06 -2.09582 1.05417 0
M  V30 15224 C 1409.08 -1.73999 -0.00516127 0
M  V30 15225 O 1410.25 -2.00472 0.193115 0
M  V30 15226 C 1407.32 -3.40327 0.661697 0
M  V30 15227 C 1406.38 -3.89854 1.79756 0
M  V30 15228 C 1405.61 -5.1436 1.42372 0
M  V30 15229 O 1405.84 -5.69536 0.313754 0
M  V30 15230 O 1404.77 -5.58283 2.24952 0
M  V30 15231 H 1408.6 -2.28517 2.00034 0
M  V30 15232 H 1406.18 -1.07978 1.03253 0
M  V30 15233 H 1408.06 -4.18943 0.454369 0
M  V30 15234 H 1406.74 -3.22691 -0.255348 0
M  V30 15235 H 1405.64 -3.12297 2.05964 0
M  V30 15236 H 1406.98 -4.11967 2.69339 0
M  V30 15237 N 1408.63 -1.05812 -1.16797 0
M  V30 15238 C 1409.59 -0.668766 -2.19226 0
M  V30 15239 C 1410.59 0.28299 -1.5829 0
M  V30 15240 O 1411.78 0.0660233 -1.74075 0
M  V30 15241 C 1408.91 0.0167379 -3.40896 0
M  V30 15242 H 1410.11 -1.57543 -2.55187 0
M  V30 15243 H 1407.66 -0.852753 -1.30988 0
M  V30 15244 H 1408.4 0.936382 -3.10487 0
M  V30 15245 H 1408.18 -0.667576 -3.86375 0
M  V30 15246 H 1409.67 0.275041 -4.16693 0
M  V30 15247 N 1410.11 1.33347 -0.840014 0
M  V30 15248 C 1411.52 1.80077 -0.492851 0
M  V30 15249 C 1411.87 1.69495 0.988221 0
M  V30 15250 O 1410.99 1.2449 1.77006 0
M  V30 15251 C 1411.59 3.2696 -0.887827 0
M  V30 15252 C 1410.15 3.71703 -0.592785 0
M  V30 15253 C 1409.3 2.54742 -1.09554 0
M  V30 15254 H 1412.25 1.20853 -1.02861 0
M  V30 15255 H 1412.27 3.79983 -0.198327 0
M  V30 15256 H 1411.78 3.3463 -1.96581 0
M  V30 15257 H 1409.88 3.69559 0.475086 0
M  V30 15258 H 1409.99 4.65123 -1.14882 0
M  V30 15259 H 1408.36 2.49411 -0.516357 0
M  V30 15260 H 1409.14 2.65173 -2.18032 0
M  V30 15261 N 1411.59 0.596556 1.45873 0
M  V30 15262 C 1412.83 0.0850976 2.0152 0
M  V30 15263 C 1413.15 -1.28799 1.47208 0
M  V30 15264 O 1414.35 -1.89156 1.94762 0
M  V30 15265 C 1412.81 0.101488 3.59757 0
M  V30 15266 C 1412.42 1.47374 4.23066 0
M  V30 15267 C 1414.16 -0.355303 4.2301 0
M  V30 15268 C 1412.07 1.44711 5.73422 0
M  V30 15269 H 1411 0.0280444 0.753478 0
M  V30 15270 H 1413.65 0.750255 1.67462 0
M  V30 15271 H 1412.03 -0.630108 3.90955 0
M  V30 15272 H 1413.21 2.22617 4.03458 0
M  V30 15273 H 1411.52 1.87171 3.71962 0
M  V30 15274 H 1414.12 -0.394236 5.33245 0
M  V30 15275 H 1414.46 -1.37573 3.92911 0
M  V30 15276 H 1414.99 0.32267 3.96489 0
M  V30 15277 H 1411.73 2.44479 6.08203 0
M  V30 15278 H 1411.25 0.737102 5.95254 0
M  V30 15279 H 1412.93 1.16598 6.36407 0
M  V30 15280 N 1413.06 -1.53996 0.335095 0
M  V30 15281 C 1413.99 -2.2768 -0.518087 0
M  V30 15282 C 1414.97 -1.28915 -1.10972 0
M  V30 15283 O 1416.16 -1.57745 -1.1327 0
M  V30 15284 C 1413.29 -3.04327 -1.67339 0
M  V30 15285 C 1412.24 -4.10525 -1.2105 0
M  V30 15286 C 1411.57 -4.75078 -2.45366 0
M  V30 15287 C 1412.87 -5.21337 -0.317055 0
M  V30 15288 H 1414.56 -2.99244 0.0965669 0
M  V30 15289 H 1412.11 -1.4392 0.0478842 0
M  V30 15290 H 1414.06 -3.54608 -2.27664 0
M  V30 15291 H 1412.79 -2.30399 -2.31481 0
M  V30 15292 H 1411.45 -3.61144 -0.630124 0
M  V30 15293 H 1411.09 -3.97754 -3.07897 0
M  V30 15294 H 1410.79 -5.46822 -2.1508 0
M  V30 15295 H 1412.32 -5.2814 -3.06432 0
M  V30 15296 H 1413.73 -5.67305 -0.826905 0
M  V30 15297 H 1412.13 -6.00006 -0.106458 0
M  V30 15298 H 1413.2 -4.80536 0.649068 0
M  V30 15299 N 1414.54 -0.0635198 -1.57472 0
M  V30 15300 C 1415.77 0.616735 -1.97494 0
M  V30 15301 C 1416.18 1.63646 -0.941568 0
M  V30 15302 O 1415.54 1.82355 0.0727768 0
M  V30 15303 C 1415.59 1.29268 -3.37597 0
M  V30 15304 O 1415.31 0.313781 -4.36975 0
M  V30 15305 C 1416.81 2.06154 -3.92448 0
M  V30 15306 H 1414.03 0.167753 -0.649692 0
M  V30 15307 H 1416.58 -0.133475 -2.04064 0
M  V30 15308 H 1414.73 1.99404 -3.3214 0
M  V30 15309 H 1415.15 0.797723 -5.18398 0
M  V30 15310 H 1416.62 2.48853 -4.92723 0
M  V30 15311 H 1417.1 2.91474 -3.28541 0
M  V30 15312 H 1417.7 1.40903 -4.01281 0
M  V30 15313 N 1416.02 1.56195 0.209972 0
M  V30 15314 C 1417.43 1.69811 0.775969 0
M  V30 15315 C 1417.78 0.667543 1.84495 0
M  V30 15316 O 1416.91 -0.179043 2.15658 0
M  V30 15317 C 1417.5 3.07869 1.41429 0
M  V30 15318 C 1416.06 3.233 1.92755 0
M  V30 15319 C 1415.21 2.6575 0.791958 0
M  V30 15320 H 1418.16 1.58693 -0.0148727 0
M  V30 15321 H 1418.18 3.04371 2.28339 0
M  V30 15322 H 1417.69 3.82853 0.63604 0
M  V30 15323 H 1415.79 2.53206 2.73345 0
M  V30 15324 H 1415.91 4.30645 2.09956 0
M  V30 15325 H 1414.27 2.24535 1.20234 0
M  V30 15326 H 1415.05 3.4329 0.0261877 0
M  V30 15327 N 1417.5 -0.477127 1.50204 0
M  V30 15328 C 1418.91 -1.05815 1.53819 0
M  V30 15329 C 1419.26 -1.93264 0.338169 0
M  V30 15330 O 1418.38 -2.09305 -0.549576 0
M  V30 15331 C 1418.98 -1.92577 2.78746 0
M  V30 15332 C 1417.54 -2.45799 2.85061 0
M  V30 15333 C 1416.69 -1.23994 2.48034 0
M  V30 15334 H 1419.64 -0.259998 1.56556 0
M  V30 15335 H 1419.66 -2.7757 2.6026 0
M  V30 15336 H 1419.17 -1.28904 3.66068 0
M  V30 15337 H 1417.27 -3.13042 2.02077 0
M  V30 15338 H 1417.38 -2.81318 3.8781 0
M  V30 15339 H 1415.75 -1.5728 2.00338 0
M  V30 15340 H 1416.53 -0.619917 3.37657 0
M  V30 15341 N 1418.98 -1.3968 -0.729882 0
M  V30 15342 C 1420.39 -1.21396 -1.0361 0
M  V30 15343 C 1420.59 -0.0791302 -2.01345 0
M  V30 15344 O 1419.65 0.567575 -2.46038 0
M  V30 15345 C 1420.96 -2.55006 -1.59349 0
M  V30 15346 C 1422.51 -2.61896 -1.71405 0
M  V30 15347 C 1422.98 -3.9574 -2.30552 0
M  V30 15348 N 1424.48 -3.97406 -2.37955 0
M  V30 15349 C 1425.21 -4.97745 -2.8467 0
M  V30 15350 N 1424.71 -6.08482 -3.31243 0
M  V30 15351 N 1426.5 -4.85121 -2.83925 0
M  V30 15352 H 1418.65 -2.12242 -0.081787 0
M  V30 15353 H 1420.91 -0.942827 -0.0989005 0
M  V30 15354 H 1420.62 -3.38626 -0.950005 0
M  V30 15355 H 1420.49 -2.75087 -2.58083 0
M  V30 15356 H 1422.88 -1.78656 -2.34874 0
M  V30 15357 H 1422.96 -2.45659 -0.7131 0
M  V30 15358 H 1422.61 -4.79412 -1.67709 0
M  V30 15359 H 1422.54 -4.09299 -3.31334 0
M  V30 15360 H 1425.03 -3.17435 -2.05044 0
M  V30 15361 H 1425.34 -6.8095 -3.65414 0
M  V30 15362 H 1423.68 -6.12068 -3.29239 0
M  V30 15363 H 1426.88 -3.97711 -2.46867 0
M  V30 15364 H 1427.05 -5.63465 -3.20017 0
M  V30 15365 N 1420.45 0.960609 -1.2494 0
M  V30 15366 C 1421.36 2.0902 -1.06527 0
M  V30 15367 C 1422.38 1.74 -0.00406641 0
M  V30 15368 O 1423.56 2.00367 -0.203744 0
M  V30 15369 C 1420.62 3.39971 -0.679736 0
M  V30 15370 C 1419.68 3.88895 -1.81821 0
M  V30 15371 C 1418.92 5.13597 -1.45098 0
M  V30 15372 O 1419.14 5.69362 -0.343954 0
M  V30 15373 O 1418.07 5.57083 -2.27909 0
M  V30 15374 H 1421.9 2.27453 -2.01243 0
M  V30 15375 H 1419.48 1.07429 -1.03824 0
M  V30 15376 H 1421.37 4.18696 -0.47658 0
M  V30 15377 H 1420.04 3.22822 0.238231 0
M  V30 15378 H 1418.95 3.11201 -2.07617 0
M  V30 15379 H 1420.28 4.10533 -2.7152 0
M  V30 15380 N 1421.93 1.0643 1.16234 0
M  V30 15381 C 1423.34 0.806012 1.68405 0
M  V30 15382 C 1423.69 -0.670197 1.84398 0
M  V30 15383 O 1422.82 -1.51975 1.54054 0
M  V30 15384 C 1423.41 1.45654 3.05893 0
M  V30 15385 C 1421.97 1.24599 3.55179 0
M  V30 15386 C 1421.12 1.53216 2.31128 0
M  V30 15387 H 1424.07 1.22759 1.00578 0
M  V30 15388 H 1424.09 0.872616 3.70359 0
M  V30 15389 H 1423.6 2.53092 2.94221 0
M  V30 15390 H 1421.71 0.191407 3.72108 0
M  V30 15391 H 1421.82 1.95967 4.37188 0
M  V30 15392 H 1420.18 0.952755 2.36209 0
M  V30 15393 H 1420.97 2.61816 2.22052 0
M  V30 15394 N 1423.41 -1.329 0.847073 0
M  V30 15395 C 1424.83 -1.50333 0.53593 0
M  V30 15396 C 1425.03 -1.78492 -0.93504 0
M  V30 15397 O 1424.08 -1.85001 -1.71846 0
M  V30 15398 C 1425.4 -2.65254 1.41636 0
M  V30 15399 C 1426.94 -2.79139 1.416 0
M  V30 15400 C 1427.42 -3.97131 2.28147 0
M  V30 15401 N 1428.91 -4.0438 2.25901 0
M  V30 15402 C 1429.64 -4.94893 2.89601 0
M  V30 15403 N 1429.14 -5.90466 3.62383 0
M  V30 15404 N 1430.93 -4.87955 2.79028 0
M  V30 15405 H 1423.08 -1.12886 1.79918 0
M  V30 15406 H 1425.35 -0.555707 0.768045 0
M  V30 15407 H 1425.05 -2.51151 2.46203 0
M  V30 15408 H 1424.93 -3.60856 1.09829 0
M  V30 15409 H 1427.31 -2.92669 0.378013 0
M  V30 15410 H 1427.4 -1.84273 1.77418 0
M  V30 15411 H 1427.04 -3.8436 3.32009 0
M  V30 15412 H 1426.97 -4.91258 1.89665 0
M  V30 15413 H 1429.46 -3.35986 1.72979 0
M  V30 15414 H 1429.77 -6.56212 4.08174 0
M  V30 15415 H 1428.12 -5.90516 3.66491 0
M  V30 15416 H 1431.31 -4.12258 2.21723 0
M  V30 15417 H 1431.48 -5.58295 3.28954 0
M  V30 15418 N 1424.89 -0.604284 -1.45555 0
M  V30 15419 C 1426.14 -0.0957836 -2.01472 0
M  V30 15420 C 1426.45 1.28016 -1.47889 0
M  V30 15421 O 1427.66 1.88121 -1.95762 0
M  V30 15422 C 1426.11 -0.120566 -3.59698 0
M  V30 15423 C 1425.72 -1.49616 -4.22278 0
M  V30 15424 C 1427.46 0.332865 -4.23193 0
M  V30 15425 C 1425.37 -1.4775 -5.72646 0
M  V30 15426 H 1424.3 -0.0320399 -0.753319 0
M  V30 15427 H 1426.95 -0.759125 -1.67061 0
M  V30 15428 H 1425.33 0.609365 -3.91283 0
M  V30 15429 H 1426.51 -2.24753 -4.02272 0
M  V30 15430 H 1424.82 -1.89141 -3.70965 0
M  V30 15431 H 1427.42 0.365951 -5.33446 0
M  V30 15432 H 1427.76 1.35487 -3.93635 0
M  V30 15433 H 1428.3 -0.343692 -3.96313 0
M  V30 15434 H 1425.04 -2.47701 -6.06898 0
M  V30 15435 H 1424.56 -0.768659 -5.94854 0
M  V30 15436 H 1426.23 -1.19971 -6.3578 0
M  V30 15437 N 1426.37 1.53816 -0.343257 0
M  V30 15438 C 1427.3 2.27951 0.506005 0
M  V30 15439 C 1428.28 1.29502 1.10287 0
M  V30 15440 O 1429.46 1.58344 1.12432 0
M  V30 15441 C 1426.59 3.0521 1.65723 0
M  V30 15442 C 1425.55 4.11161 1.18871 0
M  V30 15443 C 1424.87 4.76373 2.42843 0
M  V30 15444 C 1426.17 5.21498 0.289403 0
M  V30 15445 H 1427.87 2.99189 -0.112435 0
M  V30 15446 H 1425.41 1.43893 -0.055516 0
M  V30 15447 H 1427.37 3.55811 2.2578 0
M  V30 15448 H 1426.09 2.31624 2.30256 0
M  V30 15449 H 1424.75 3.61473 0.610962 0
M  V30 15450 H 1424.4 3.99381 3.05784 0
M  V30 15451 H 1424.1 5.47955 2.12177 0
M  V30 15452 H 1425.62 5.29758 3.03627 0
M  V30 15453 H 1427.03 5.67736 0.796808 0
M  V30 15454 H 1425.43 6.00054 0.0746366 0
M  V30 15455 H 1426.5 4.80185 -0.674543 0
M  V30 15456 N 1427.84 0.0718701 1.57436 0
M  V30 15457 C 1429.07 -0.609701 1.98236 0
M  V30 15458 C 1429.49 -1.6235 0.949959 0
M  V30 15459 O 1428.85 -1.81103 -0.0844281 0
M  V30 15460 C 1428.9 -1.2547 3.38068 0
M  V30 15461 O 1428 -2.37055 3.37459 0
M  V30 15462 H 1427.35 -0.15679 0.645223 0
M  V30 15463 H 1429.88 0.146407 2.04076 0
M  V30 15464 H 1429.89 -1.60152 3.75254 0
M  V30 15465 H 1428.56 -0.511842 4.12738 0
M  V30 15466 H 1427.14 -2.04165 3.12043 0
M  V30 15467 N 1429.32 -1.56304 -0.201686 0
M  V30 15468 C 1430.23 -1.97215 -1.27057 0
M  V30 15469 C 1431.25 -0.878834 -1.50175 0
M  V30 15470 O 1432.42 -1.18405 -1.62918 0
M  V30 15471 C 1429.49 -2.29772 -2.59626 0
M  V30 15472 C 1428.55 -3.52776 -2.44637 0
M  V30 15473 C 1427.78 -3.83771 -3.70885 0
M  V30 15474 O 1428.01 -3.16149 -4.7477 0
M  V30 15475 O 1426.94 -4.77216 -3.66808 0
M  V30 15476 H 1430.77 -2.88347 -0.953393 0
M  V30 15477 H 1428.35 -1.43773 -0.406158 0
M  V30 15478 H 1430.23 -2.51817 -3.37885 0
M  V30 15479 H 1428.91 -1.41809 -2.90984 0
M  V30 15480 H 1427.82 -3.35986 -1.64512 0
M  V30 15481 H 1429.15 -4.41184 -2.18214 0
M  V30 15482 N 1430.8 0.469154 -1.50455 0
M  V30 15483 C 1431.71 1.59271 -1.7225 0
M  V30 15484 C 1432.73 1.63119 -0.605668 0
M  V30 15485 O 1433.9 1.80952 -0.884222 0
M  V30 15486 C 1430.97 2.95475 -1.81372 0
M  V30 15487 C 1430.03 3.02 -3.05114 0
M  V30 15488 C 1429.26 4.31707 -3.13791 0
M  V30 15489 O 1429.48 5.2232 -2.29211 0
M  V30 15490 O 1428.42 4.43864 -4.06532 0
M  V30 15491 H 1432.24 1.43804 -2.67496 0
M  V30 15492 H 1429.83 0.648855 -1.34574 0
M  V30 15493 H 1431.71 3.76367 -1.89541 0
M  V30 15494 H 1430.39 3.11136 -0.893094 0
M  V30 15495 H 1429.29 2.20178 -3.02444 0
M  V30 15496 H 1430.63 2.91275 -3.96761 0
M  V30 15497 N 1432.28 1.40065 0.722464 0
M  V30 15498 C 1433.19 1.42086 1.86678 0
M  V30 15499 C 1434.2 0.314223 1.71139 0
M  V30 15500 O 1435.38 0.55771 1.93524 0
M  V30 15501 C 1432.45 1.27498 3.22405 0
M  V30 15502 C 1431.51 2.48243 3.50248 0
M  V30 15503 C 1430.74 2.34342 4.79499 0
M  V30 15504 O 1430.96 1.35355 5.54108 0
M  V30 15505 O 1429.9 3.23579 5.07523 0
M  V30 15506 H 1433.72 2.38571 1.87929 0
M  V30 15507 H 1431.31 1.21314 0.871968 0
M  V30 15508 H 1433.19 1.21543 4.03491 0
M  V30 15509 H 1431.86 0.341141 3.21897 0
M  V30 15510 H 1430.77 2.59775 2.69199 0
M  V30 15511 H 1432.1 3.40364 3.55547 0
M  V30 15512 N 1433.76 -0.95397 1.25448 0
M  V30 15513 C 1434.69 -2.05412 1.01679 0
M  V30 15514 C 1435.7 -1.62789 -0.0184932 0
M  V30 15515 O 1436.89 -1.77137 0.220136 0
M  V30 15516 C 1433.99 -3.3496 0.515292 0
M  V30 15517 C 1433.16 -4.06418 1.61688 0
M  V30 15518 C 1432.22 -5.14237 1.11564 0
M  V30 15519 O 1431.25 -5.39649 1.81017 0
M  V30 15520 N 1432.45 -5.80484 -0.0427228 0
M  V30 15521 H 1435.22 -2.26372 1.96407 0
M  V30 15522 H 1432.78 -1.12257 1.16662 0
M  V30 15523 H 1434.77 -4.04366 0.164426 0
M  V30 15524 H 1433.34 -3.10767 -0.33807 0
M  V30 15525 H 1432.56 -3.31101 2.1393 0
M  V30 15526 H 1433.85 -4.50917 2.35693 0
M  V30 15527 H 1433.25 -5.62259 -0.623038 0
M  V30 15528 H 1431.8 -6.50941 -0.334615 0
M  V30 15529 N 1435.24 -1.07045 -1.15668 0
M  V30 15530 C 1436.15 -0.699332 -2.23934 0
M  V30 15531 C 1437.16 0.288036 -1.71599 0
M  V30 15532 O 1438.34 0.135447 -2.00944 0
M  V30 15533 C 1435.4 -0.0994775 -3.46557 0
M  V30 15534 C 1434.46 -1.13968 -4.13896 0
M  V30 15535 C 1433.7 -0.56836 -5.30665 0
M  V30 15536 O 1433.92 0.616556 -5.67058 0
M  V30 15537 O 1432.85 -1.31174 -5.87432 0
M  V30 15538 H 1436.68 -1.60212 -2.58003 0
M  V30 15539 H 1434.26 -0.843202 -1.23331 0
M  V30 15540 H 1436.15 0.23293 -4.20756 0
M  V30 15541 H 1434.82 0.776684 -3.14244 0
M  V30 15542 H 1433.73 -1.5244 -3.41633 0
M  V30 15543 H 1435.06 -1.98764 -4.50282 0
M  V30 15544 N 1436.71 1.32449 -0.85411 0
M  V30 15545 C 1437.65 2.26901 -0.243148 0
M  V30 15546 C 1438.62 1.50375 0.618558 0
M  V30 15547 O 1439.81 1.79501 0.575479 0
M  V30 15548 C 1436.94 3.32265 0.657108 0
M  V30 15549 C 1435.98 4.26298 -0.131141 0
M  V30 15550 S 1436.81 5.14086 -1.49919 0
M  V30 15551 C 1437.97 6.22973 -0.604632 0
M  V30 15552 H 1438.2 2.78373 -1.04384 0
M  V30 15553 H 1435.74 1.39972 -0.651712 0
M  V30 15554 H 1437.69 3.93447 1.17087 0
M  V30 15555 H 1436.36 2.79578 1.4316 0
M  V30 15556 H 1435.55 5.0094 0.55452 0
M  V30 15557 H 1435.15 3.69531 -0.576469 0
M  V30 15558 H 1437.44 6.7723 0.191348 0
M  V30 15559 H 1438.39 6.95656 -1.32168 0
M  V30 15560 H 1438.79 5.64215 -0.179215 0
M  V30 15561 N 1438.19 0.611994 1.45232 0
M  V30 15562 C 1439.44 0.108911 2.02207 0
M  V30 15563 C 1439.77 -1.26219 1.47983 0
M  V30 15564 O 1439.02 -1.84718 0.646368 0
M  V30 15565 C 1439.32 0.0243361 3.57392 0
M  V30 15566 C 1438.99 1.33168 4.30787 0
M  V30 15567 C 1437.65 1.68978 4.50555 0
M  V30 15568 C 1440 2.19549 4.72703 0
M  V30 15569 C 1437.33 2.90913 5.09496 0
M  V30 15570 C 1439.68 3.40737 5.32993 0
M  V30 15571 C 1438.34 3.76794 5.50983 0
M  V30 15572 H 1437.61 0.0398534 0.739927 0
M  V30 15573 H 1440.26 0.794492 1.74241 0
M  V30 15574 H 1438.57 -0.74453 3.84661 0
M  V30 15575 H 1440.26 -0.381139 3.99185 0
M  V30 15576 H 1436.85 1.04296 4.15717 0
M  V30 15577 H 1441.04 1.93181 4.57159 0
M  V30 15578 H 1436.29 3.1895 5.21614 0
M  V30 15579 H 1440.47 4.07919 5.64425 0
M  V30 15580 H 1438.09 4.71364 5.96423 0
M  V30 15581 N 1439.67 -1.53632 0.351409 0
M  V30 15582 C 1441.09 -1.596 -0.000214515 0
M  V30 15583 C 1441.29 -1.36709 -1.4803 0
M  V30 15584 O 1440.34 -1.16524 -2.24006 0
M  V30 15585 C 1441.65 -2.97419 0.443013 0
M  V30 15586 C 1443.2 -3.10485 0.396025 0
M  V30 15587 C 1443.68 -4.50693 0.814843 0
M  V30 15588 N 1445.17 -4.56766 0.76934 0
M  V30 15589 C 1445.9 -5.63418 1.06526 0
M  V30 15590 N 1445.4 -6.77887 1.42974 0
M  V30 15591 N 1447.19 -5.53331 0.988986 0
M  V30 15592 H 1439.34 -1.66765 1.31542 0
M  V30 15593 H 1441.61 -0.781418 0.53674 0
M  V30 15594 H 1441.31 -3.19262 1.47529 0
M  V30 15595 H 1441.19 -3.76781 -0.177725 0
M  V30 15596 H 1443.57 -2.8836 -0.627092 0
M  V30 15597 H 1443.65 -2.33163 1.05207 0
M  V30 15598 H 1443.3 -4.73554 1.83601 0
M  V30 15599 H 1443.23 -5.26424 0.136193 0
M  V30 15600 H 1445.72 -3.74569 0.500623 0
M  V30 15601 H 1446.03 -7.55194 1.64018 0
M  V30 15602 H 1444.38 -6.79314 1.46827 0
M  V30 15603 H 1447.57 -4.62783 0.703526 0
M  V30 15604 H 1447.74 -6.36355 1.22295 0
M  V30 15605 N 1441.15 -0.0802183 -1.57396 0
M  V30 15606 C 1442.42 0.628419 -1.8523 0
M  V30 15607 C 1442.8 1.87272 -0.974288 0
M  V30 15608 O 1442.15 2.2846 -0.0427687 0
M  V30 15609 C 1442.36 0.958033 -3.35593 0
M  V30 15610 C 1443.71 1.3279 -4.03301 0
M  V30 15611 O 1444.73 1.04951 -3.40388 0
M  V30 15612 O 1443.59 1.84865 -5.14283 0
M  V30 15613 H 1440.69 0.312945 -0.765503 0
M  V30 15614 H 1443.23 -0.111788 -1.69331 0
M  V30 15615 H 1442.01 0.074648 -3.91229 0
M  V30 15616 H 1441.63 1.75472 -3.56785 0
M  V30 15617 N 1442.63 1.56409 0.193394 0
M  V30 15618 C 1443.87 1.80724 0.913521 0
M  V30 15619 C 1444.2 0.653718 1.83185 0
M  V30 15620 O 1443.46 -0.360417 1.92353 0
M  V30 15621 C 1443.75 3.11039 1.76039 0
M  V30 15622 C 1443.42 4.39832 0.992892 0
M  V30 15623 C 1442.08 4.7482 0.780991 0
M  V30 15624 C 1444.43 5.19228 0.452985 0
M  V30 15625 C 1441.76 5.86697 0.0177286 0
M  V30 15626 C 1444.11 6.31902 -0.297075 0
M  V30 15627 C 1442.78 6.65472 -0.519977 0
M  V30 15628 H 1442.05 0.661315 0.334281 0
M  V30 15629 H 1444.7 1.90654 0.179786 0
M  V30 15630 H 1443 2.96353 2.56285 0
M  V30 15631 H 1444.7 3.27058 2.32022 0
M  V30 15632 H 1441.29 4.12376 1.16806 0
M  V30 15633 H 1445.47 4.9261 0.604092 0
M  V30 15634 H 1440.73 6.11178 -0.164925 0
M  V30 15635 H 1444.9 6.92639 -0.7228 0
M  V30 15636 H 1442.53 7.52004 -1.11331 0
M  V30 15637 N 1444.1 -0.461169 1.50702 0
M  V30 15638 C 1445.38 -1.22225 1.52711 0
M  V30 15639 C 1445.76 -2.09268 0.27749 0
M  V30 15640 O 1445.11 -2.16232 -0.738642 0
M  V30 15641 C 1445.32 -2.04472 2.82829 0
M  V30 15642 C 1446.67 -2.62326 3.33872 0
M  V30 15643 O 1447.69 -2.14706 2.84218 0
M  V30 15644 O 1446.55 -3.49116 4.20453 0
M  V30 15645 H 1443.64 -0.555168 0.612958 0
M  V30 15646 H 1446.19 -0.47218 1.62999 0
M  V30 15647 H 1444.96 -1.40392 3.65247 0
M  V30 15648 H 1444.58 -2.86593 2.75591 0
M  V30 15649 N 1445.58 -1.40446 -0.715026 0
M  V30 15650 C 1446.81 -1.41864 -1.50193 0
M  V30 15651 C 1447.22 -0.0168144 -1.89193 0
M  V30 15652 O 1446.56 0.969732 -1.56019 0
M  V30 15653 C 1446.62 -2.24619 -2.80689 0
M  V30 15654 C 1446.29 -3.73026 -2.64009 0
M  V30 15655 C 1447.29 -4.65648 -2.31232 0
M  V30 15656 C 1444.97 -4.16847 -2.80256 0
M  V30 15657 C 1446.96 -6.00076 -2.14912 0
M  V30 15658 C 1444.65 -5.51346 -2.63554 0
M  V30 15659 C 1445.65 -6.42776 -2.3093 0
M  V30 15660 O 1445.34 -7.74795 -2.14355 0
M  V30 15661 H 1445.07 -0.485821 -0.470058 0
M  V30 15662 H 1447.62 -1.85138 -0.88955 0
M  V30 15663 H 1445.85 -1.76126 -3.44262 0
M  V30 15664 H 1447.54 -2.17972 -3.42408 0
M  V30 15665 H 1448.31 -4.33087 -2.18312 0
M  V30 15666 H 1444.19 -3.46001 -3.04637 0
M  V30 15667 H 1447.73 -6.71405 -1.8937 0
M  V30 15668 H 1443.63 -5.83491 -2.76058 0
M  V30 15669 H 1444.4 -7.85734 -2.2927 0
M  V30 15670 N 1447.06 0.947303 -1.25952 0
M  V30 15671 C 1448.31 1.68721 -1.10527 0
M  V30 15672 C 1448.62 1.92403 0.352215 0
M  V30 15673 O 1449.83 2.6416 0.627036 0
M  V30 15674 C 1448.28 3.03785 -1.92983 0
M  V30 15675 C 1447.89 2.87873 -3.43268 0
M  V30 15676 C 1449.64 3.81509 -1.86149 0
M  V30 15677 C 1447.54 4.18373 -4.17993 0
M  V30 15678 H 1446.47 0.632774 -0.410016 0
M  V30 15679 H 1449.12 1.054 -1.5021 0
M  V30 15680 H 1447.51 3.68052 -1.46128 0
M  V30 15681 H 1448.68 2.32493 -3.97848 0
M  V30 15682 H 1446.99 2.23598 -3.51273 0
M  V30 15683 H 1449.59 4.78179 -2.39267 0
M  V30 15684 H 1449.93 4.07923 -0.83091 0
M  V30 15685 H 1450.47 3.24005 -2.30794 0
M  V30 15686 H 1447.21 3.97145 -5.21494 0
M  V30 15687 H 1446.73 4.7349 -3.68194 0
M  V30 15688 H 1448.41 4.86869 -4.26108 0
M  V30 15689 N 1448.54 1.07657 1.15099 0
M  V30 15690 C 1449.5 0.703558 2.18135 0
M  V30 15691 C 1450.5 -0.257771 1.5872 0
M  V30 15692 O 1451.69 -0.0383211 1.74158 0
M  V30 15693 C 1448.82 0.0374978 3.40879 0
M  V30 15694 H 1450.02 1.61583 2.52648 0
M  V30 15695 H 1447.57 0.873484 1.29615 0
M  V30 15696 H 1448.3 -0.886868 3.11938 0
M  V30 15697 H 1448.09 0.728961 3.85264 0
M  V30 15698 H 1449.58 -0.208714 4.17078 0
M  V30 15699 N 1450.02 -1.31994 0.861122 0
M  V30 15700 C 1451.29 -1.91699 0.388705 0
M  V30 15701 C 1451.67 -1.78412 -1.12838 0
M  V30 15702 O 1451.02 -1.18625 -1.95296 0
M  V30 15703 C 1451.23 -3.38232 0.860248 0
M  V30 15704 C 1452.58 -4.15355 0.881201 0
M  V30 15705 O 1453.6 -3.46977 0.805313 0
M  V30 15706 O 1452.46 -5.37468 0.98945 0
M  V30 15707 H 1449.56 -0.819017 0.114629 0
M  V30 15708 H 1452.1 -1.40721 0.94845 0
M  V30 15709 H 1450.87 -3.41876 1.9036 0
M  V30 15710 H 1450.5 -3.96625 0.278316 0
M  V30 15711 N 1451.49 -0.619688 -1.44906 0
M  V30 15712 C 1452.74 -0.128286 -2.02995 0
M  V30 15713 C 1453.1 1.23194 -1.47787 0
M  V30 15714 O 1452.39 1.80316 -0.64782 0
M  V30 15715 C 1452.58 -0.0432891 -3.57374 0
M  V30 15716 C 1452.41 -1.39373 -4.27557 0
M  V30 15717 C 1451.18 -1.97756 -4.64995 0
M  V30 15718 C 1453.38 -2.32512 -4.5874 0
M  V30 15719 N 1451.36 -3.26154 -5.20093 0
M  V30 15720 C 1452.73 -3.45517 -5.14799 0
M  V30 15721 C 1454.79 -2.31734 -4.40685 0
M  V30 15722 C 1453.49 -4.57924 -5.54706 0
M  V30 15723 C 1455.52 -3.43197 -4.81632 0
M  V30 15724 C 1454.88 -4.54924 -5.37795 0
M  V30 15725 H 1450.98 -0.0905961 -0.776734 0
M  V30 15726 H 1453.56 -0.820685 -1.76558 0
M  V30 15727 H 1451.73 0.61836 -3.83446 0
M  V30 15728 H 1453.46 0.455886 -4.02124 0
M  V30 15729 H 1450.22 -1.50826 -4.48941 0
M  V30 15730 H 1450.64 -3.91768 -5.52129 0
M  V30 15731 H 1455.29 -1.46609 -3.96567 0
M  V30 15732 H 1453 -5.43765 -5.97784 0
M  V30 15733 H 1456.59 -3.43757 -4.69385 0
M  V30 15734 H 1455.47 -5.39748 -5.68896 0
M  V30 15735 N 1452.97 1.53444 -0.359552 0
M  V30 15736 C 1454.21 2.03077 0.232169 0
M  V30 15737 C 1454.58 1.24125 1.46482 0
M  V30 15738 O 1455.78 1.63735 2.13177 0
M  V30 15739 C 1454.05 3.53554 0.522891 0
M  V30 15740 S 1455.61 4.25068 1.08914 0
M  V30 15741 H 1452.43 0.707738 0.0680317 0
M  V30 15742 H 1455.03 1.88971 -0.501022 0
M  V30 15743 H 1453.73 4.0862 -0.381812 0
M  V30 15744 H 1453.26 3.71811 1.28532 0
M  V30 15745 H 1455.28 4.35734 2.37382 0
M  V30 15746 O 1454.49 0.228504 1.59875 0
M  V30 15747 H 1455.18 -0.350657 1.905 0
M  V30 END ATOM
M  V30 BEGIN BOND
M  V30 END BOND
M  V30 END CTAB
M  END
$$$$
