drugbank_target|Q16654 [Pyruvate dehydrogenase (acetyl-transferring)] kinase isozyme 4, mitochondrial (DB00755; DB08356)
 OpenBabel12092120503D

  0  0  0     0  0            999 V3000
M  V30 BEGIN CTAB
M  V30 COUNTS 6519 6594 0 0 0
M  V30 BEGIN ATOM
M  V30 1 H -0.908 1.98254 -0.117106 0
M  V30 2 N 0 1.576 0 0
M  V30 3 C 0.933 2.03868 1.02534 0
M  V30 4 C 1.911 0.928543 1.3348 0
M  V30 5 O 3.095 1.19667 1.45644 0
M  V30 6 C 0.222 2.43627 2.35294 0
M  V30 7 C -0.732 3.65373 2.2001 0
M  V30 8 S 0.101 5.13292 1.52614 0
M  V30 9 C 1.257 5.56322 2.86805 0
M  V30 10 H 1.49 2.90518 0.631377 0
M  V30 11 H -0.977 1.52953 0.210867 0
M  V30 12 H 0.981 2.67203 3.11629 0
M  V30 13 H -0.358 1.57376 2.7183 0
M  V30 14 H -1.165 3.90944 3.18086 0
M  V30 15 H -1.563 3.418 1.51819 0
M  V30 16 H 0.729 5.58782 3.83104 0
M  V30 17 H 1.672 6.56266 2.65933 0
M  V30 18 H 2.08 4.83886 2.90714 0
M  V30 19 N 1.4781 -0.272755 1.55222 0
M  V30 20 C 2.4251 -1.33716 1.88119 0
M  V30 21 C 3.3951 -1.49066 0.73271 0
M  V30 22 O 4.5801 -1.63469 0.984002 0
M  V30 23 C 1.7201 -2.69238 2.15882 0
M  V30 24 C 0.8331 -2.62108 3.43399 0
M  V30 25 C -0.0319 -3.89811 3.60861 0
M  V30 26 C -0.9929 -3.77193 4.8207 0
M  V30 27 N -1.8559 -4.9673 4.96189 0
M  V30 28 H 2.9841 -1.04962 2.78903 0
M  V30 29 H 0.5211 -0.507088 1.38083 0
M  V30 30 H 2.4791 -3.48089 2.29978 0
M  V30 31 H 1.1091 -2.96194 1.28331 0
M  V30 32 H 0.1611 -1.74967 3.37773 0
M  V30 33 H 1.4731 -2.48685 4.32386 0
M  V30 34 H 0.6271 -4.77103 3.74777 0
M  V30 35 H -0.6339 -4.06102 2.7006 0
M  V30 36 H -1.6289 -2.88284 4.68159 0
M  V30 37 H -0.4039 -3.62421 5.74307 0
M  V30 38 H -2.4579 -5.13431 4.08319 0
M  V30 39 H -2.5409 -4.85839 5.79221 0
M  V30 40 H -1.2729 -5.85594 5.1449 0
M  V30 41 N 2.9562 -1.48159 -0.537278 0
M  V30 42 C 3.9192 -1.61665 -1.62472 0
M  V30 43 C 4.9192 -0.490395 -1.5314 0
M  V30 44 O 6.1092 -0.755998 -1.5694 0
M  V30 45 C 3.2412 -1.57997 -3.02076 0
M  V30 46 H 4.4342 -2.58621 -1.51839 0
M  V30 47 H 1.9872 -1.36647 -0.758771 0
M  V30 48 H 2.7222 -0.624913 -3.18222 0
M  V30 49 H 2.5072 -2.39755 -3.10258 0
M  V30 50 H 3.9972 -1.70627 -3.81151 0
M  V30 51 N 4.4343 0.785586 -1.36625 0
M  V30 52 C 5.3973 1.87999 -1.31107 0
M  V30 53 C 6.3973 1.59316 -0.217959 0
M  V30 54 O 7.5873 1.67656 -0.472977 0
M  V30 55 C 4.7193 3.24861 -1.03334 0
M  V30 56 H 5.9123 1.94307 -2.2844 0
M  V30 57 H 3.4653 0.983813 -1.21453 0
M  V30 58 H 4.2003 3.24235 -0.0647432 0
M  V30 59 H 3.9853 3.4707 -1.82441 0
M  V30 60 H 5.4753 4.04929 -1.02088 0
M  V30 61 N 5.9124 1.20967 1.01018 0
M  V30 62 C 7.3284 0.965905 1.27053 0
M  V30 63 C 7.5284 -0.350785 1.98423 0
M  V30 64 O 6.5844 -1.07773 2.28344 0
M  V30 65 C 7.8974 2.15294 2.09926 0
M  V30 66 C 9.4454 2.19463 2.23171 0
M  V30 67 C 9.9204 3.3767 3.09424 0
M  V30 68 N 11.4114 3.37724 3.17012 0
M  V30 69 C 12.1464 4.25837 3.83993 0
M  V30 70 N 11.6424 5.24138 4.53047 0
M  V30 71 N 13.4354 4.1366 3.80581 0
M  V30 72 H 5.5864 2.0565 0.531194 0
M  V30 73 H 7.8494 0.90024 0.297106 0
M  V30 74 H 7.5554 3.10684 1.64828 0
M  V30 75 H 7.4294 2.13923 3.10672 0
M  V30 76 H 9.8164 1.24632 2.6749 0
M  V30 77 H 9.8974 2.2488 1.21912 0
M  V30 78 H 9.5414 4.32791 2.65808 0
M  V30 79 H 9.4714 3.29491 4.10784 0
M  V30 80 H 11.9624 2.6658 2.6785 0
M  V30 81 H 12.2754 5.87684 5.01844 0
M  V30 82 H 10.6204 5.28068 4.5185 0
M  V30 83 H 13.8114 3.36127 3.25785 0
M  V30 84 H 13.9844 4.82538 4.32505 0
M  V30 85 N 7.3905 -1.2043 1.01659 0
M  V30 86 C 8.6375 -1.89797 0.705917 0
M  V30 87 C 8.9655 -1.78848 -0.764439 0
M  V30 88 O 8.2205 -1.16694 -1.57102 0
M  V30 89 C 8.5195 -3.40464 1.08714 0
M  V30 90 C 8.1855 -3.71614 2.5537 0
M  V30 91 C 6.8475 -3.79826 2.95441 0
M  V30 92 C 9.1995 -3.85915 3.50313 0
M  V30 93 C 6.5275 -3.99797 4.29394 0
M  V30 94 C 8.8795 -4.07396 4.83954 0
M  V30 95 C 7.5435 -4.13837 5.23732 0
M  V30 96 H 6.8135 -0.694518 0.258313 0
M  V30 97 H 9.4605 -1.42691 1.27717 0
M  V30 98 H 7.7655 -3.89385 0.434309 0
M  V30 99 H 9.4625 -3.92433 0.824461 0
M  V30 100 H 6.0525 -3.65822 2.23321 0
M  V30 101 H 10.2365 -3.78926 3.20513 0
M  V30 102 H 5.4925 -4.03018 4.59768 0
M  V30 103 H 9.6665 -4.17404 5.57447 0
M  V30 104 H 7.2935 -4.29064 6.27541 0
M  V30 105 N 8.8686 -0.792821 -1.36206 0
M  V30 106 C 10.1146 -0.36733 -1.99446 0
M  V30 107 C 10.4476 1.05917 -1.62774 0
M  V30 108 O 9.7226 1.7324 -0.88421 0
M  V30 109 C 10.0056 -0.535044 -3.56103 0
M  V30 110 C 9.8586 -2.00548 -4.02617 0
M  V30 111 C 11.1776 0.0478191 -4.40074 0
M  V30 112 H 8.2966 -0.134941 -0.724541 0
M  V30 113 H 10.9386 -0.999794 -1.61568 0
M  V30 114 H 9.0886 0.00336329 -3.885 0
M  V30 115 H 10.7606 -2.60521 -3.80692 0
M  V30 116 H 9.0036 -2.50686 -3.54032 0
M  V30 117 H 9.6746 -2.07377 -5.11565 0
M  V30 118 H 12.1506 -0.411822 -4.14057 0
M  V30 119 H 11.0266 -0.0995336 -5.4881 0
M  V30 120 H 11.2876 1.14025 -4.27142 0
M  V30 121 N 10.3467 1.47872 -0.545128 0
M  V30 122 C 11.2767 2.32661 0.197793 0
M  V30 123 C 12.2577 1.43041 0.920504 0
M  V30 124 O 13.4427 1.71912 0.90333 0
M  V30 125 C 10.5727 3.24569 1.23582 0
M  V30 126 C 9.5267 4.23333 0.630323 0
M  V30 127 C 8.8527 5.0448 1.77211 0
M  V30 128 C 10.1527 5.20704 -0.407974 0
M  V30 129 H 11.8467 2.95024 -0.510045 0
M  V30 130 H 9.3927 1.4187 -0.246731 0
M  V30 131 H 11.3457 3.8272 1.76362 0
M  V30 132 H 10.0697 2.60236 1.97344 0
M  V30 133 H 8.7287 3.6639 0.123922 0
M  V30 134 H 8.3767 4.36561 2.49847 0
M  V30 135 H 8.0767 5.71339 1.37281 0
M  V30 136 H 9.6007 5.65487 2.3034 0
M  V30 137 H 11.0147 5.7329 0.033305 0
M  V30 138 H 9.4117 5.95699 -0.725486 0
M  V30 139 H 10.4817 4.66917 -1.30828 0
M  V30 140 N 11.8248 0.280983 1.55075 0
M  V30 141 C 13.2408 -0.0729964 1.59433 0
M  V30 142 C 13.4408 -1.5411 1.29817 0
M  V30 143 O 12.4968 -2.29086 1.06187 0
M  V30 144 C 13.8098 0.306921 2.9913 0
M  V30 145 C 15.3578 0.254023 3.11968 0
M  V30 146 C 15.8328 0.608467 4.5394 0
M  V30 147 N 17.3238 0.560241 4.59799 0
M  V30 148 C 18.0588 0.80722 5.6769 0
M  V30 149 N 17.5548 1.11912 6.83701 0
M  V30 150 N 19.3478 0.735623 5.57266 0
M  V30 151 H 11.4988 1.238 1.7259 0
M  V30 152 H 13.7618 0.500547 0.805082 0
M  V30 153 H 13.4678 1.32816 3.25657 0
M  V30 154 H 13.3418 -0.349363 3.75579 0
M  V30 155 H 15.7288 -0.75794 2.852 0
M  V30 156 H 15.8098 0.944649 2.37718 0
M  V30 157 H 15.4538 1.61814 4.81434 0
M  V30 158 H 15.3838 -0.104013 5.26497 0
M  V30 159 H 17.8748 0.329288 3.76463 0
M  V30 160 H 18.1878 1.29409 7.61888 0
M  V30 161 H 16.5328 1.15695 6.85303 0
M  V30 162 H 19.7238 0.491752 4.6551 0
M  V30 163 H 19.8968 0.931482 6.4127 0
M  V30 164 N 13.3029 -1.57598 0.00835791 0
M  V30 165 C 14.5279 -1.95617 -0.689103 0
M  V30 166 C 14.9529 -0.883753 -1.66046 0
M  V30 167 O 14.3109 0.157352 -1.80616 0
M  V30 168 C 14.3589 -3.32736 -1.38994 0
M  V30 169 O 13.4629 -3.27631 -2.50463 0
M  V30 170 H 12.8039 -0.638379 -0.182668 0
M  V30 171 H 15.3339 -2.045 0.064036 0
M  V30 172 H 15.3439 -3.68494 -1.75147 0
M  V30 173 H 14.0189 -4.1034 -0.677778 0
M  V30 174 H 12.5959 -3.03561 -2.16576 0
M  V30 175 N 14.781 0.264519 -1.55364 0
M  V30 176 C 15.744 1.31046 -1.88042 0
M  V30 177 C 16.744 1.41943 -0.755569 0
M  V30 178 O 17.934 1.40947 -1.02369 0
M  V30 179 C 15.066 2.69067 -2.09323 0
M  V30 180 H 16.259 1.03297 -2.81549 0
M  V30 181 H 13.812 0.502989 -1.47986 0
M  V30 182 H 14.547 3.01982 -1.18226 0
M  V30 183 H 14.332 2.62542 -2.91229 0
M  V30 184 H 15.822 3.44623 -2.35848 0
M  V30 185 N 16.2591 1.48442 0.529413 0
M  V30 186 C 17.5071 1.56179 1.28267 0
M  V30 187 C 17.8281 0.237721 1.93546 0
M  V30 188 O 17.0981 -0.740779 1.81354 0
M  V30 189 H 15.6781 0.575367 0.476405 0
M  V30 190 H 18.3401 1.84909 0.61602 0
M  V30 191 H 17.4361 2.34312 2.06165 0
M  V30 192 N 17.7372 -0.778329 1.37039 0
M  V30 193 C 18.9622 -1.57248 1.35233 0
M  V30 194 C 19.3872 -1.87999 -0.0615568 0
M  V30 195 O 18.7452 -1.48734 -1.03672 0
M  V30 196 C 18.7932 -2.86353 2.19167 0
M  V30 197 O 17.8972 -3.80442 1.59178 0
M  V30 198 H 17.2382 -0.476569 0.462362 0
M  V30 199 H 19.7682 -0.963853 1.80474 0
M  V30 200 H 19.7782 -3.35519 2.32145 0
M  V30 201 H 18.4532 -2.63299 3.21942 0
M  V30 202 H 17.0302 -3.39067 1.55203 0
M  V30 203 N 19.2153 -1.21501 -1.00376 0
M  V30 204 C 20.1453 -0.999478 -2.11028 0
M  V30 205 C 21.1263 0.0759671 -1.6993 0
M  V30 206 O 22.3113 -0.0841106 -1.94018 0
M  V30 207 C 19.4413 -0.564709 -3.42678 0
M  V30 208 C 18.3953 -1.58486 -3.97576 0
M  V30 209 C 17.7213 -1.00628 -5.25146 0
M  V30 210 C 19.0213 -2.97204 -4.29496 0
M  V30 211 H 20.7153 -1.92495 -2.29317 0
M  V30 212 H 18.2613 -0.92693 -1.102 0
M  V30 213 H 20.2143 -0.401091 -4.19487 0
M  V30 214 H 18.9383 0.396411 -3.24185 0
M  V30 215 H 17.5973 -1.73606 -3.22888 0
M  V30 216 H 17.2453 -0.0368439 -5.02987 0
M  V30 217 H 16.9453 -1.68771 -5.62841 0
M  V30 218 H 18.4693 -0.854015 -6.04598 0
M  V30 219 H 19.8833 -2.8552 -4.97143 0
M  V30 220 H 18.2803 -3.62372 -4.78338 0
M  V30 221 H 19.3503 -3.47956 -3.3772 0
M  V30 222 N 20.6934 1.19889 -1.02296 0
M  V30 223 C 21.6414 2.24938 -0.592081 0
M  V30 224 C 22.6354 1.65257 0.372357 0
M  V30 225 O 23.8414 1.78371 0.241583 0
M  V30 226 H 20.2164 0.731787 -0.173182 0
M  V30 227 H 22.1874 2.58603 -1.48885 0
M  V30 228 C 20.9364 3.47668 0.047351 0
M  V30 229 H 20.2594 3.93875 -0.685772 0
M  V30 230 H 21.6994 4.22852 0.311862 0
M  V30 231 C 20.1584 3.11136 1.29212 0
M  V30 232 O 20.6884 3.2325 2.38479 0
M  V30 233 N 18.8944 2.65625 1.17863 0
M  V30 234 H 18.4414 2.55968 0.289493 0
M  V30 235 H 18.3994 2.41553 2.01245 0
M  V30 236 N 22.1715 0.800033 1.35784 0
M  V30 237 C 23.4195 0.376597 1.9856 0
M  V30 238 C 23.7405 -1.05812 1.63795 0
M  V30 239 O 23.0105 -1.73103 0.917171 0
M  V30 240 H 21.5905 0.136261 0.734467 0
M  V30 241 H 24.2525 1.02442 1.65806 0
M  V30 242 H 23.3485 0.477002 3.08433 0
M  V30 243 N 23.6496 -1.47581 0.552962 0
M  V30 244 C 24.6126 -2.28439 -0.186605 0
M  V30 245 C 25.6126 -1.36706 -0.84665 0
M  V30 246 O 26.8026 -1.59378 -0.703164 0
M  V30 247 C 23.9346 -3.16264 -1.2724 0
M  V30 248 H 25.1276 -2.95294 0.523609 0
M  V30 249 H 22.6806 -1.532 0.309745 0
M  V30 250 H 23.4156 -2.54091 -2.01514 0
M  V30 251 H 23.2006 -3.83769 -0.803968 0
M  V30 252 H 24.6906 -3.77198 -1.79196 0
M  V30 253 N 25.1277 -0.289203 -1.54924 0
M  V30 254 C 26.3757 0.322879 -1.99504 0
M  V30 255 C 26.6967 1.55313 -1.1791 0
M  V30 256 O 25.9667 1.94001 -0.272097 0
M  V30 257 H 24.5467 0.122291 -0.736922 0
M  V30 258 H 27.2087 -0.397802 -1.90797 0
M  V30 259 H 26.3047 0.603061 -3.06218 0
M  V30 260 N 26.6058 1.57591 -0.0167156 0
M  V30 261 C 27.5358 2.12496 0.967858 0
M  V30 262 C 28.5168 1.03807 1.34752 0
M  V30 263 O 29.7018 1.31577 1.42833 0
M  V30 264 C 26.8318 2.64194 2.25431 0
M  V30 265 C 25.7858 3.77559 2.01576 0
M  V30 266 C 25.1118 4.15636 3.36379 0
M  V30 267 C 26.4118 5.04151 1.36489 0
M  V30 268 H 28.1058 2.95013 0.510643 0
M  V30 269 H 25.6518 1.41915 0.244181 0
M  V30 270 H 27.6048 3.01236 2.94678 0
M  V30 271 H 26.3288 1.78821 2.73296 0
M  V30 272 H 24.9878 3.40937 1.34751 0
M  V30 273 H 24.6358 3.27263 3.81979 0
M  V30 274 H 24.3358 4.92022 3.21229 0
M  V30 275 H 25.8598 4.5525 4.06915 0
M  V30 276 H 27.2738 5.38857 1.95718 0
M  V30 277 H 25.6708 5.85453 1.31776 0
M  V30 278 H 26.7408 4.83733 0.336219 0
M  V30 279 N 28.0839 -0.256276 1.55502 0
M  V30 280 C 29.3299 -0.987079 1.77157 0
M  V30 281 C 29.6629 -1.85327 0.580315 0
M  V30 282 O 28.9379 -1.89874 -0.421686 0
M  V30 283 C 29.2209 -1.85553 3.08613 0
M  V30 284 C 29.0739 -1.01816 4.38125 0
M  V30 285 C 30.3929 -2.8397 3.36228 0
M  V30 286 H 27.5119 -0.357428 0.644526 0
M  V30 287 H 30.1539 -0.258239 1.88237 0
M  V30 288 H 28.3039 -2.47695 2.99298 0
M  V30 289 H 29.9759 -0.416159 4.59419 0
M  V30 290 H 28.2189 -0.322178 4.32602 0
M  V30 291 H 28.8899 -1.65939 5.26468 0
M  V30 292 H 31.3659 -2.31964 3.45445 0
M  V30 293 H 30.2419 -3.41864 4.29442 0
M  V30 294 H 30.5029 -3.59955 2.56681 0
M  V30 295 N 29.562 -1.4872 -0.521534 0
M  V30 296 C 30.973 -1.50607 -1.10337 0
M  V30 297 C 31.324 -0.280612 -1.94183 0
M  V30 298 O 30.449 0.611507 -2.0758 0
M  V30 299 C 31.044 -2.72903 -2.00772 0
M  V30 300 C 29.603 -2.77634 -2.54158 0
M  V30 301 C 28.75 -2.44241 -1.31307 0
M  V30 302 H 31.701 -1.55714 -0.306388 0
M  V30 303 H 31.722 -2.519 -2.85178 0
M  V30 304 H 31.234 -3.62077 -1.39721 0
M  V30 305 H 29.335 -1.92689 -3.18907 0
M  V30 306 H 29.448 -3.79283 -2.92714 0
M  V30 307 H 27.812 -1.95577 -1.63161 0
M  V30 308 H 28.595 -3.35666 -0.719943 0
M  V30 309 N 31.0401 0.771051 -1.3745 0
M  V30 310 C 32.4561 1.07171 -1.18265 0
M  V30 311 C 32.6561 2.01491 -0.019287 0
M  V30 312 O 31.7121 2.44244 0.640408 0
M  V30 313 C 33.0251 1.66854 -2.50161 0
M  V30 314 C 34.5731 1.79109 -2.56689 0
M  V30 315 C 35.0481 2.42205 -3.88717 0
M  V30 316 N 36.5391 2.49655 -3.90162 0
M  V30 317 C 37.2741 2.9933 -4.8907 0
M  V30 318 N 36.7701 3.49172 -5.98374 0
M  V30 319 N 38.5631 2.9821 -4.76474 0
M  V30 320 H 30.7141 0.144796 -2.11906 0
M  V30 321 H 32.9771 0.126863 -0.939473 0
M  V30 322 H 32.6831 1.05017 -3.35655 0
M  V30 323 H 32.5571 2.6614 -2.673 0
M  V30 324 H 34.9441 2.40077 -1.71601 0
M  V30 325 H 35.0251 0.785757 -2.43433 0
M  V30 326 H 34.6691 1.81875 -4.74219 0
M  V30 327 H 34.5991 3.43345 -3.99276 0
M  V30 328 H 37.0901 2.14383 -3.11205 0
M  V30 329 H 37.4031 3.8548 -6.69795 0
M  V30 330 H 35.7481 3.47275 -6.02018 0
M  V30 331 H 38.9391 2.58572 -3.90203 0
M  V30 332 H 39.1121 3.36613 -5.53711 0
M  V30 333 N 32.5182 1.22032 0.997298 0
M  V30 334 C 33.4282 1.00271 2.12092 0
M  V30 335 C 34.4442 -0.047621 1.73935 0
M  V30 336 O 35.6202 0.144136 2.00884 0
M  V30 337 C 32.6852 0.578449 3.4184 0
M  V30 338 C 31.7462 1.70189 3.94125 0
M  V30 339 C 30.9792 1.29778 5.17681 0
M  V30 340 O 31.2022 0.174676 5.70132 0
M  V30 341 O 30.1362 2.11261 5.63607 0
M  V30 342 H 33.9622 1.94398 2.3333 0
M  V30 343 H 31.5472 1.00587 1.10465 0
M  V30 344 H 33.4292 0.351998 4.19927 0
M  V30 345 H 32.1042 -0.334019 3.21972 0
M  V30 346 H 31.0112 1.98282 3.1723 0
M  V30 347 H 32.3442 2.59206 4.18417 0
M  V30 348 N 33.9963 -1.19345 1.0293 0
M  V30 349 C 35.2423 -1.89318 0.727083 0
M  V30 350 C 35.5753 -1.79446 -0.742483 0
M  V30 351 O 34.8503 -1.1871 -1.54072 0
M  V30 352 C 35.1333 -3.40238 1.17942 0
M  V30 353 C 34.9863 -3.58979 2.71024 0
M  V30 354 C 36.3053 -4.33479 0.760548 0
M  V30 355 H 33.4243 -0.687475 0.265606 0
M  V30 356 H 36.0663 -1.40477 1.2793 0
M  V30 357 H 34.2163 -3.81964 0.709608 0
M  V30 358 H 35.8883 -3.26421 3.25955 0
M  V30 359 H 34.1313 -3.02018 3.11396 0
M  V30 360 H 34.8023 -4.64823 2.9773 0
M  V30 361 H 37.2783 -3.99469 1.16464 0
M  V30 362 H 36.1543 -5.37664 1.10493 0
M  V30 363 H 36.4153 -4.40813 -0.337063 0
M  V30 364 N 35.4744 -0.807222 -1.35358 0
M  V30 365 C 36.3844 -0.219594 -2.3357 0
M  V30 366 C 37.4004 0.637734 -1.61892 0
M  V30 367 O 38.5764 0.549336 -1.93763 0
M  V30 368 C 35.6414 0.62158 -3.41083 0
M  V30 369 C 34.7024 -0.256315 -4.28534 0
M  V30 370 C 33.9354 0.544807 -5.30912 0
M  V30 371 O 34.1584 1.77944 -5.41934 0
M  V30 372 O 33.0924 -0.0646478 -6.01865 0
M  V30 373 H 36.9184 -1.03208 -2.85625 0
M  V30 374 H 34.5034 -0.569025 -1.38139 0
M  V30 375 H 36.3854 1.10067 -4.06772 0
M  V30 376 H 35.0604 1.41165 -2.91297 0
M  V30 377 H 33.9674 -0.782559 -3.65823 0
M  V30 378 H 35.3004 -1.01034 -4.81719 0
M  V30 379 N 36.9525 1.47285 -0.560781 0
M  V30 380 C 37.9025 2.27073 0.205384 0
M  V30 381 C 38.8865 1.34569 0.882044 0
M  V30 382 O 40.0785 1.58899 0.77976 0
M  V30 383 C 37.2075 3.20414 1.23247 0
M  V30 384 C 36.2935 4.20399 0.559041 0
M  V30 385 N 36.6845 5.04423 -0.372927 0
M  V30 386 C 34.9825 4.38536 0.812522 0
M  V30 387 C 35.6835 5.76655 -0.764446 0
M  V30 388 N 34.6595 5.43471 -0.11848 0
M  V30 389 H 38.4615 2.89422 -0.511117 0
M  V30 390 H 35.9755 1.57868 -0.380975 0
M  V30 391 H 37.9725 3.76262 1.79534 0
M  V30 392 H 36.6325 2.59623 1.95002 0
M  V30 393 H 37.6435 5.1248 -0.747287 0
M  V30 394 H 34.3205 3.88913 1.51832 0
M  V30 395 H 35.7105 6.54238 -1.53045 0
M  V30 396 N 38.4306 0.297415 1.54768 0
M  V30 397 C 39.6776 -0.312913 2.00068 0
M  V30 398 C 40.0056 -1.54171 1.18582 0
M  V30 399 O 39.2606 -1.94108 0.249133 0
M  V30 400 C 39.5596 -0.717561 3.50123 0
M  V30 401 C 39.2256 0.409095 4.4904 0
M  V30 402 C 37.8876 0.718399 4.75807 0
M  V30 403 C 40.2396 1.16717 5.07963 0
M  V30 404 C 37.5676 1.78896 5.5876 0
M  V30 405 C 39.9196 2.22762 5.92081 0
M  V30 406 C 38.5836 2.54303 6.1716 0
M  V30 407 H 37.8536 -0.114503 0.7321 0
M  V30 408 H 40.5006 0.415767 1.86932 0
M  V30 409 H 38.8056 -1.52627 3.60849 0
M  V30 410 H 40.5026 -1.20091 3.82595 0
M  V30 411 H 37.0926 0.157918 4.28309 0
M  V30 412 H 41.2766 0.941466 4.87289 0
M  V30 413 H 36.5326 2.0381 5.7643 0
M  V30 414 H 40.7066 2.81962 6.36765 0
M  V30 415 H 38.3336 3.3739 6.81229 0
M  V30 416 N 39.9087 -1.5758 0.0250728 0
M  V30 417 C 41.1337 -1.96337 -0.668317 0
M  V30 418 C 41.5587 -0.901314 -1.651 0
M  V30 419 O 40.9167 0.138187 -1.80773 0
M  V30 420 C 40.9647 -3.34191 -1.35457 0
M  V30 421 O 40.0687 -3.30269 -2.46974 0
M  V30 422 H 39.4097 -0.640281 -0.175887 0
M  V30 423 H 41.9397 -2.0442 0.0857224 0
M  V30 424 H 41.9497 -3.70331 -1.71228 0
M  V30 425 H 40.6247 -4.11036 -0.634218 0
M  V30 426 H 39.2017 -3.05841 -2.13344 0
M  V30 427 N 41.3868 0.248026 -1.55636 0
M  V30 428 C 42.8028 0.596483 -1.48035 0
M  V30 429 C 43.0028 1.88386 -0.715039 0
M  V30 430 O 42.0588 2.51319 -0.243944 0
M  V30 431 C 43.3718 0.700258 -2.92433 0
M  V30 432 C 44.9198 0.792659 -3.02797 0
M  V30 433 C 45.3948 0.928005 -4.485 0
M  V30 434 N 46.8858 0.992903 -4.52433 0
M  V30 435 C 47.6208 1.11687 -5.62418 0
M  V30 436 N 47.1168 1.20645 -6.82214 0
M  V30 437 N 48.9098 1.14994 -5.50212 0
M  V30 438 H 41.0608 -0.597109 -2.03834 0
M  V30 439 H 43.3238 -0.205925 -0.925364 0
M  V30 440 H 43.0298 -0.175658 -3.51261 0
M  V30 441 H 42.9038 1.57255 -3.42857 0
M  V30 442 H 45.2908 1.65903 -2.4405 0
M  V30 443 H 45.3718 -0.104762 -2.55585 0
M  V30 444 H 45.0158 0.0661971 -5.07857 0
M  V30 445 H 44.9458 1.84045 -4.93391 0
M  V30 446 H 47.4368 0.935064 -3.66149 0
M  V30 447 H 47.7498 1.30008 -7.61786 0
M  V30 448 H 46.0948 1.17605 -6.84977 0
M  V30 449 H 49.2858 1.07643 -4.55555 0
M  V30 450 H 49.4588 1.24311 -6.35965 0
M  V30 451 N 42.8649 1.48995 0.513639 0
M  V30 452 C 44.0949 1.61297 1.291 0
M  V30 453 C 44.5029 0.278656 1.87137 0
M  V30 454 O 43.8459 -0.744325 1.67945 0
M  V30 455 C 43.9079 2.61326 2.46879 0
M  V30 456 C 43.5719 4.05993 2.09807 0
M  V30 457 C 44.5689 4.93183 1.64519 0
M  V30 458 C 42.2539 4.51642 2.19829 0
M  V30 459 C 44.2479 6.24056 1.2974 0
M  V30 460 C 41.9349 5.82532 1.84662 0
M  V30 461 C 42.9329 6.68562 1.3969 0
M  V30 462 O 42.6209 7.97014 1.04992 0
M  V30 463 H 42.3529 0.546236 0.39825 0
M  V30 464 H 44.9069 1.95673 0.62459 0
M  V30 465 H 43.1369 2.22104 3.16554 0
M  V30 466 H 44.8259 2.6329 3.08923 0
M  V30 467 H 45.5919 4.59147 1.56233 0
M  V30 468 H 41.4709 3.84855 2.53786 0
M  V30 469 H 45.0149 6.91161 0.945659 0
M  V30 470 H 40.9119 6.16099 1.92594 0
M  V30 471 H 41.6799 8.09913 1.18249 0
M  V30 472 N 44.343 -0.763751 1.37857 0
M  V30 473 C 45.568 -1.55805 1.36893 0
M  V30 474 C 45.993 -1.88054 -0.0416135 0
M  V30 475 O 45.351 -1.49825 -1.02089 0
M  V30 476 C 45.399 -2.84012 2.22192 0
M  V30 477 O 44.503 -3.78732 1.63204 0
M  V30 478 H 43.844 -0.471638 0.46739 0
M  V30 479 H 46.374 -0.944657 1.81487 0
M  V30 480 H 46.384 -3.33037 2.35691 0
M  V30 481 H 45.059 -2.59869 3.24716 0
M  V30 482 H 43.636 -3.37402 1.58791 0
M  V30 483 N 45.8211 -1.22559 -0.990812 0
M  V30 484 C 47.2321 -1.04791 -1.54518 0
M  V30 485 C 47.5831 0.387998 -1.92325 0
M  V30 486 O 46.7081 1.27328 -1.74976 0
M  V30 487 C 47.3031 -1.896 -2.80779 0
M  V30 488 C 45.8621 -1.76124 -3.32652 0
M  V30 489 C 45.0091 -1.8594 -2.05722 0
M  V30 490 H 47.9601 -1.36374 -0.811662 0
M  V30 491 H 47.9811 -1.41464 -3.53225 0
M  V30 492 H 47.4931 -2.94101 -2.53231 0
M  V30 493 H 45.5941 -0.743643 -3.65104 0
M  V30 494 H 45.7071 -2.58913 -4.03114 0
M  V30 495 H 44.0711 -1.29403 -2.19379 0
M  V30 496 H 44.8541 -2.91976 -1.80568 0
M  V30 497 N 47.2992 1.18797 -1.03562 0
M  V30 498 C 48.5242 1.9314 -0.755764 0
M  V30 499 C 48.9492 1.7537 0.68022 0
M  V30 500 O 48.3072 1.06046 1.47051 0
M  V30 501 C 48.3552 3.42747 -1.12058 0
M  V30 502 O 47.4592 4.11683 -0.243124 0
M  V30 503 H 46.8002 0.602724 -0.278604 0
M  V30 504 H 49.3302 1.50678 -1.3841 0
M  V30 505 H 49.3402 3.93437 -1.08035 0
M  V30 506 H 48.0152 3.55002 -2.16672 0
M  V30 507 H 46.5922 3.71323 -0.342539 0
M  V30 508 N 48.7773 0.814389 1.34928 0
M  V30 509 C 50.1883 0.458364 1.80986 0
M  V30 510 C 50.5393 -1.02042 1.67577 0
M  V30 511 O 49.6643 -1.79352 1.21086 0
M  V30 512 C 50.2593 0.825212 3.28597 0
M  V30 513 C 48.8183 0.521677 3.72767 0
M  V30 514 C 47.9653 1.04668 2.56788 0
M  V30 515 H 50.9163 1.00533 1.22795 0
M  V30 516 H 50.9373 0.12571 3.80292 0
M  V30 517 H 50.4493 1.90154 3.38324 0
M  V30 518 H 48.5503 -0.545589 3.68584 0
M  V30 519 H 48.6633 1.05977 4.67232 0
M  V30 520 H 47.0273 0.468622 2.50352 0
M  V30 521 H 47.8103 2.12927 2.6929 0
M  V30 522 N 50.2554 -1.46986 0.568584 0
M  V30 523 C 51.1854 -2.32946 -0.160753 0
M  V30 524 C 52.1664 -1.44487 -0.897631 0
M  V30 525 O 53.3514 -1.73327 -0.875867 0
M  V30 526 C 50.4814 -3.26494 -1.18403 0
M  V30 527 C 49.4354 -4.24282 -0.562895 0
M  V30 528 C 48.7614 -5.07236 -1.69163 0
M  V30 529 C 50.0614 -5.19989 0.490761 0
M  V30 530 H 51.7554 -2.94175 0.556916 0
M  V30 531 H 49.3014 -1.4146 0.26927 0
M  V30 532 H 51.2544 -3.85477 -1.70251 0
M  V30 533 H 49.9784 -2.63343 -1.93179 0
M  V30 534 H 48.6374 -3.66541 -0.0656164 0
M  V30 535 H 48.2854 -4.4048 -2.42871 0
M  V30 536 H 47.9854 -5.7345 -1.28174 0
M  V30 537 H 49.5094 -5.6908 -2.21314 0
M  V30 538 H 50.9234 -5.73271 0.0579047 0
M  V30 539 H 49.3204 -5.94469 0.820165 0
M  V30 540 H 50.3904 -4.64777 1.3824 0
M  V30 541 N 51.7335 -0.305618 -1.54608 0
M  V30 542 C 52.9585 0.307562 -2.05107 0
M  V30 543 C 53.3835 1.46385 -1.18123 0
M  V30 544 O 52.7415 1.8034 -0.186324 0
M  V30 545 C 52.7895 0.73704 -3.52987 0
M  V30 546 O 51.8935 1.84134 -3.6901 0
M  V30 547 H 51.2345 0.0589143 -0.661381 0
M  V30 548 H 53.7645 -0.448807 -1.99617 0
M  V30 549 H 53.7745 1.02459 -3.94925 0
M  V30 550 H 52.4495 -0.108773 -4.15758 0
M  V30 551 H 51.0265 1.55398 -3.38978 0
M  V30 552 N 53.2116 1.57565 -0.0334293 0
M  V30 553 C 54.1446 2.05997 0.981866 0
M  V30 554 C 55.1226 0.956647 1.3148 0
M  V30 555 O 56.3066 1.22729 1.43073 0
M  V30 556 C 53.4336 2.48564 2.30074 0
M  V30 557 C 52.4796 3.69958 2.12211 0
M  V30 558 S 53.3126 5.16414 1.41692 0
M  V30 559 C 54.4686 5.6228 2.7494 0
M  V30 560 H 54.7016 2.91792 0.569612 0
M  V30 561 H 52.2346 1.53366 0.178376 0
M  V30 562 H 54.1926 2.73753 3.05892 0
M  V30 563 H 52.8536 1.63106 2.68431 0
M  V30 564 H 52.0466 3.97603 3.09722 0
M  V30 565 H 51.6486 3.44943 1.44535 0
M  V30 566 H 53.9406 5.66783 3.71165 0
M  V30 567 H 54.8836 6.61759 2.51953 0
M  V30 568 H 55.2916 4.89944 2.80384 0
M  V30 569 N 54.6897 -0.239769 1.55765 0
M  V30 570 C 55.6367 -1.29696 1.90913 0
M  V30 571 C 56.6067 -1.47478 0.764164 0
M  V30 572 O 57.7917 -1.61345 1.01845 0
M  V30 573 C 54.9317 -2.64598 2.21544 0
M  V30 574 C 54.0447 -2.54765 3.48882 0
M  V30 575 C 53.1797 -3.82069 3.69049 0
M  V30 576 C 52.2187 -3.66883 4.89963 0
M  V30 577 N 51.3557 -4.86094 5.06614 0
M  V30 578 H 56.1957 -0.990224 2.81067 0
M  V30 579 H 53.7327 -0.477684 1.39128 0
M  V30 580 H 55.6907 -3.43132 2.3731 0
M  V30 581 H 54.3207 -2.93405 1.34585 0
M  V30 582 H 53.3727 -1.67763 3.41409 0
M  V30 583 H 54.6847 -2.39457 4.37563 0
M  V30 584 H 53.8387 -4.69046 3.84812 0
M  V30 585 H 52.5777 -4.00282 2.78614 0
M  V30 586 H 51.5827 -2.78289 4.74168 0
M  V30 587 H 52.8077 -3.50157 5.81865 0
M  V30 588 H 50.7537 -5.04655 4.19117 0
M  V30 589 H 50.6707 -4.73443 5.89396 0
M  V30 590 H 51.9387 -5.74549 5.26795 0
M  V30 591 N 56.1678 -1.49265 -0.50573 0
M  V30 592 C 57.0998 -1.617 -1.62437 0
M  V30 593 C 58.1128 -0.499924 -1.54934 0
M  V30 594 O 59.3018 -0.771785 -1.60953 0
M  V30 595 C 56.4018 -1.5533 -3.01207 0
M  V30 596 C 55.5748 -2.8249 -3.33943 0
M  V30 597 C 54.6338 -2.69238 -4.52103 0
M  V30 598 O 53.6598 -3.43167 -4.5412 0
M  V30 599 N 54.8618 -1.80468 -5.51735 0
M  V30 600 H 57.6268 -2.58177 -1.52199 0
M  V30 601 H 55.1878 -1.46294 -0.693511 0
M  V30 602 H 57.1798 -1.44125 -3.78167 0
M  V30 603 H 55.7498 -0.667297 -3.05395 0
M  V30 604 H 54.9698 -3.08081 -2.45926 0
M  V30 605 H 56.2578 -3.66802 -3.5261 0
M  V30 606 H 55.6558 -1.19653 -5.52901 0
M  V30 607 H 54.2128 -1.75188 -6.27816 0
M  V30 608 N 57.6459 0.756429 -1.3826 0
M  V30 609 C 58.5759 1.88374 -1.37976 0
M  V30 610 C 59.5569 1.68311 -0.246082 0
M  V30 611 O 60.7419 1.88944 -0.44874 0
M  V30 612 C 57.8719 3.25864 -1.20125 0
M  V30 613 C 56.8259 3.60523 -2.30666 0
M  V30 614 C 56.1519 4.9672 -1.97923 0
M  V30 615 C 57.4519 3.65692 -3.72916 0
M  V30 616 H 59.1459 1.88869 -2.32312 0
M  V30 617 H 56.6919 0.907272 -1.11824 0
M  V30 618 H 58.6449 4.0438 -1.18552 0
M  V30 619 H 57.3689 3.25841 -0.222498 0
M  V30 620 H 56.0279 2.84324 -2.3142 0
M  V30 621 H 55.6759 4.93253 -0.985393 0
M  V30 622 H 55.3759 5.20878 -2.71955 0
M  V30 623 H 56.8999 5.77618 -1.97964 0
M  V30 624 H 58.3139 4.34328 -3.74208 0
M  V30 625 H 56.7109 4.01358 -4.4613 0
M  V30 626 H 57.7809 2.65987 -4.05436 0
M  V30 627 N 59.124 1.23083 0.984299 0
M  V30 628 C 60.054 1.03292 2.09411 0
M  V30 629 C 61.035 -0.048923 1.7003 0
M  V30 630 O 62.22 0.114967 1.93859 0
M  V30 631 C 59.35 0.619155 3.41736 0
M  V30 632 C 58.304 1.64791 3.95004 0
M  V30 633 C 57.63 1.0897 5.23478 0
M  V30 634 C 58.93 3.03999 4.24714 0
M  V30 635 H 60.624 1.96119 2.26225 0
M  V30 636 H 58.17 0.944344 1.08711 0
M  V30 637 H 60.123 0.467777 4.18796 0
M  V30 638 H 58.847 -0.344786 3.24775 0
M  V30 639 H 57.506 1.78721 3.20085 0
M  V30 640 H 57.154 0.11686 5.02864 0
M  V30 641 H 56.854 1.77704 5.60085 0
M  V30 642 H 58.378 0.950093 6.03163 0
M  V30 643 H 59.792 2.93393 4.92538 0
M  V30 644 H 58.189 3.69936 4.72512 0
M  V30 645 H 59.259 3.53285 3.32142 0
M  V30 646 N 60.6021 -1.18246 1.0419 0
M  V30 647 C 61.8791 -1.84121 0.660208 0
M  V30 648 C 62.2591 -1.92778 -0.860221 0
M  V30 649 O 61.6071 -1.45464 -1.76217 0
M  V30 650 C 61.8171 -3.22355 1.33747 0
M  V30 651 C 63.1651 -3.98376 1.46906 0
M  V30 652 O 64.1891 -3.31799 1.29568 0
M  V30 653 O 63.0481 -5.17665 1.75171 0
M  V30 654 H 60.1421 -0.794036 0.231161 0
M  V30 655 H 62.6881 -1.25628 1.14087 0
M  V30 656 H 61.4601 -3.10964 2.37522 0
M  V30 657 H 61.0831 -3.88506 0.845515 0
M  V30 658 N 62.0802 -0.821533 -1.34494 0
M  V30 659 C 63.3272 -0.408946 -1.98328 0
M  V30 660 C 63.6552 1.02764 -1.65136 0
M  V30 661 O 62.9102 1.73026 -0.914349 0
M  V30 662 C 63.2092 -0.556512 -3.53041 0
M  V30 663 C 62.8752 -1.95861 -4.0614 0
M  V30 664 C 61.5372 -2.34217 -4.20352 0
M  V30 665 C 63.8892 -2.87523 -4.34718 0
M  V30 666 C 61.2172 -3.63572 -4.6047 0
M  V30 667 C 63.5692 -4.1634 -4.76281 0
M  V30 668 C 62.2332 -4.54675 -4.88699 0
M  V30 669 H 61.5032 -0.149644 -0.725732 0
M  V30 670 H 64.1502 -1.04521 -1.6046 0
M  V30 671 H 62.4552 0.163148 -3.9146 0
M  V30 672 H 64.1522 -0.217826 -4.00408 0
M  V30 673 H 60.7422 -1.65066 -3.95539 0
M  V30 674 H 64.9262 -2.59133 -4.23277 0
M  V30 675 H 60.1822 -3.93101 -4.68275 0
M  V30 676 H 64.3562 -4.87455 -4.97354 0
M  V30 677 H 61.9832 -5.54959 -5.19542 0
M  V30 678 N 63.5583 1.46682 -0.576371 0
M  V30 679 C 64.8063 2.02013 -0.0594163 0
M  V30 680 C 65.1273 1.45101 1.30271 0
M  V30 681 O 64.3973 0.633317 1.8538 0
M  V30 682 H 62.9773 0.746759 -0.0189745 0
M  V30 683 H 65.6393 1.79862 -0.750717 0
M  V30 684 H 64.7353 3.12097 0.014345 0
M  V30 685 N 65.0364 0.313813 1.54444 0
M  V30 686 C 66.2614 -0.296681 2.05267 0
M  V30 687 C 66.6864 -1.45757 1.18897 0
M  V30 688 O 66.0444 -1.80239 0.195886 0
M  V30 689 C 66.0924 -0.71831 3.53373 0
M  V30 690 O 65.1964 -1.82175 3.69981 0
M  V30 691 H 64.5374 -0.0554061 0.661684 0
M  V30 692 H 67.0674 0.459387 1.99376 0
M  V30 693 H 67.0774 -1.00364 3.95463 0
M  V30 694 H 65.7524 0.130821 4.15694 0
M  V30 695 H 64.3294 -1.53598 3.39797 0
M  V30 696 N 66.5145 -1.57545 0.0417849 0
M  V30 697 C 67.4245 -2.14451 -0.951213 0
M  V30 698 C 68.4405 -1.09992 -1.34825 0
M  V30 699 O 69.6165 -1.42114 -1.42708 0
M  V30 700 C 66.6815 -2.67063 -2.21084 0
M  V30 701 C 65.7425 -3.86284 -1.87304 0
M  V30 702 C 64.9755 -4.36378 -3.07261 0
M  V30 703 O 65.1985 -3.85587 -4.20332 0
M  V30 704 O 64.1325 -5.28077 -2.88822 0
M  V30 705 H 67.9585 -2.99601 -0.497287 0
M  V30 706 H 65.5435 -1.48317 -0.179567 0
M  V30 707 H 67.4255 -3.00914 -2.95006 0
M  V30 708 H 66.1005 -1.84989 -2.65633 0
M  V30 709 H 65.0075 -3.57338 -1.10727 0
M  V30 710 H 66.3405 -4.6956 -1.47562 0
M  V30 711 N 67.9926 0.231505 -1.5589 0
M  V30 712 C 68.9406 1.30649 -1.92441 0
M  V30 713 C 69.9346 1.49037 -0.805254 0
M  V30 714 O 71.1406 1.50329 -0.990007 0
M  V30 715 H 67.5156 0.437812 -0.611412 0
M  V30 716 H 69.4866 0.970973 -2.82161 0
M  V30 717 C 68.2356 2.65179 -2.24889 0
M  V30 718 H 67.5586 2.51835 -3.10514 0
M  V30 719 H 68.9986 3.39234 -2.54355 0
M  V30 720 C 67.4576 3.19439 -1.07054 0
M  V30 721 O 67.9876 4.00371 -0.326499 0
M  V30 722 N 66.1936 2.77675 -0.85703 0
M  V30 723 H 65.7406 2.11969 -1.46379 0
M  V30 724 H 65.6986 3.14321 -0.0703223 0
M  V30 725 N 69.4707 1.49531 0.497807 0
M  V30 726 C 70.4337 1.65916 1.58128 0
M  V30 727 C 71.4337 0.530825 1.51786 0
M  V30 728 O 72.6237 0.797342 1.54881 0
M  V30 729 C 69.7557 1.65951 2.9778 0
M  V30 730 H 70.9487 2.62556 1.44929 0
M  V30 731 H 68.5017 1.38611 0.722275 0
M  V30 732 H 69.2367 0.709065 3.16453 0
M  V30 733 H 69.0217 2.47897 3.03792 0
M  V30 734 H 70.5117 1.80673 3.76493 0
M  V30 735 N 70.9488 -0.749086 1.3866 0
M  V30 736 C 72.1888 -1.52112 1.36534 0
M  V30 737 C 72.5528 -1.91951 -0.0432316 0
M  V30 738 O 73.7538 -2.68132 -0.189396 0
M  V30 739 C 72.0248 -2.73704 2.29828 0
M  V30 740 S 73.5838 -3.63519 2.45763 0
M  V30 741 H 70.4018 -0.520482 0.484375 0
M  V30 742 H 73.0038 -0.878963 1.74627 0
M  V30 743 H 71.7078 -2.42552 3.31054 0
M  V30 744 H 71.2388 -3.4286 1.929 0
M  V30 745 H 73.2538 -4.66712 1.68505 0
M  V30 746 N 72.4269 -1.23603 -0.977757 0
M  V30 747 C 73.3369 -1.03632 -2.1047 0
M  V30 748 C 74.3529 0.0199435 -1.73989 0
M  V30 749 O 75.5289 -0.176076 -2.00629 0
M  V30 750 C 72.5939 -0.63276 -3.40877 0
M  V30 751 C 71.6549 -1.76437 -3.91367 0
M  V30 752 C 70.8879 -1.37997 -5.15551 0
M  V30 753 O 71.1109 -0.265357 -5.69782 0
M  V30 754 O 70.0449 -2.20201 -5.60174 0
M  V30 755 H 73.8709 -1.98086 -2.30208 0
M  V30 756 H 71.4559 -1.02332 -1.08851 0
M  V30 757 H 73.3379 -0.418761 -4.19314 0
M  V30 758 H 72.0129 0.282754 -3.22463 0
M  V30 759 H 70.9199 -2.03304 -3.14036 0
M  V30 760 H 72.2529 -2.6583 -4.14241 0
M  V30 761 N 73.905 1.17692 -1.04816 0
M  V30 762 C 75.321 1.39863 -0.768794 0
M  V30 763 C 75.521 1.91118 0.638451 0
M  V30 764 O 74.577 2.10036 1.40146 0
M  V30 765 C 75.89 2.39274 -1.82122 0
M  V30 766 C 77.438 2.52987 -1.843 0
M  V30 767 C 77.913 3.55669 -2.88555 0
M  V30 768 N 79.404 3.63183 -2.87493 0
M  V30 769 C 80.139 4.42381 -3.64811 0
M  V30 770 N 79.635 5.25125 -4.51903 0
M  V30 771 N 81.428 4.37217 -3.53267 0
M  V30 772 H 73.579 0.82752 -1.95617 0
M  V30 773 H 75.842 0.426123 -0.846831 0
M  V30 774 H 75.548 2.08678 -2.83102 0
M  V30 775 H 75.422 3.38725 -1.65967 0
M  V30 776 H 77.809 2.82896 -0.839869 0
M  V30 777 H 77.89 1.53623 -2.04532 0
M  V30 778 H 77.534 3.26499 -3.89051 0
M  V30 779 H 77.464 4.54728 -2.65575 0
M  V30 780 H 79.955 3.04103 -2.24343 0
M  V30 781 H 80.268 5.82728 -5.07591 0
M  V30 782 H 78.613 5.24519 -4.55966 0
M  V30 783 H 81.804 3.71626 -2.84625 0
M  V30 784 H 81.977 4.98696 -4.13771 0
M  V30 785 N 75.3831 0.828654 1.34056 0
M  V30 786 C 76.6111 0.43262 2.02326 0
M  V30 787 C 77.0261 -0.963147 1.62385 0
M  V30 788 O 76.3831 -1.62425 0.832121 0
M  V30 789 C 76.4341 0.53182 3.57567 0
M  V30 790 O 76.1551 1.87258 3.96063 0
M  V30 791 C 77.6561 0.131422 4.43105 0
M  V30 792 H 74.8761 0.172923 0.648335 0
M  V30 793 H 77.4201 1.1184 1.71208 0
M  V30 794 H 75.5751 -0.105938 3.87255 0
M  V30 795 H 75.9891 1.85087 4.90758 0
M  V30 796 H 77.4631 0.251904 5.51425 0
M  V30 797 H 77.9401 -0.925645 4.29335 0
M  V30 798 H 78.5461 0.743207 4.18756 0
M  V30 799 N 76.8612 -1.46375 0.584142 0
M  V30 800 C 78.0862 -2.07268 0.0740405 0
M  V30 801 C 78.5112 -1.42979 -1.22223 0
M  V30 802 O 77.8692 -0.514092 -1.73859 0
M  V30 803 C 77.9172 -3.60518 -0.0767769 0
M  V30 804 O 77.0212 -3.96533 -1.13292 0
M  V30 805 H 76.3622 -0.660961 0.0634524 0
M  V30 806 H 78.8922 -1.87991 0.807492 0
M  V30 807 H 78.9022 -4.07021 -0.282489 0
M  V30 808 H 77.5772 -4.06702 0.86986 0
M  V30 809 H 76.1542 -3.61738 -0.905553 0
M  V30 810 N 78.3393 -0.321999 -1.54275 0
M  V30 811 C 79.5863 0.281044 -2.0054 0
M  V30 812 C 79.9143 1.52265 -1.21019 0
M  V30 813 O 79.1693 1.93687 -0.279982 0
M  V30 814 C 79.4683 0.661769 -3.5122 0
M  V30 815 C 79.1343 -0.480482 -4.48333 0
M  V30 816 C 77.7963 -0.794005 -4.74604 0
M  V30 817 C 80.1483 -1.24783 -5.06042 0
M  V30 818 C 77.4763 -1.87763 -5.55844 0
M  V30 819 C 79.8283 -2.32153 -5.88462 0
M  V30 820 C 78.4923 -2.64089 -6.13036 0
M  V30 821 H 77.7623 0.102841 -0.733829 0
M  V30 822 H 80.4093 -0.445453 -1.86247 0
M  V30 823 H 78.7143 1.46867 -3.63232 0
M  V30 824 H 80.4113 1.13989 -3.84457 0
M  V30 825 H 77.0013 -0.226039 -4.28004 0
M  V30 826 H 81.1853 -1.01887 -4.85729 0
M  V30 827 H 76.4413 -2.12954 -5.73115 0
M  V30 828 H 80.6153 -2.92057 -6.32199 0
M  V30 829 H 78.2423 -3.48185 -6.75775 0
M  V30 830 N 79.8174 1.5752 -0.0501392 0
M  V30 831 C 80.7804 2.1037 0.909786 0
M  V30 832 C 81.7804 1.02308 1.24056 0
M  V30 833 O 82.9704 1.28385 1.17741 0
M  V30 834 C 80.1024 2.58708 2.21998 0
M  V30 835 H 81.2954 2.96479 0.451665 0
M  V30 836 H 78.8484 1.55038 0.198248 0
M  V30 837 H 79.5834 1.75989 2.72394 0
M  V30 838 H 79.3684 3.37675 1.99295 0
M  V30 839 H 80.8584 2.99747 2.9076 0
M  V30 840 N 81.2955 -0.223234 1.56011 0
M  V30 841 C 82.5425 -0.947875 1.78946 0
M  V30 842 C 82.8705 -1.844 0.618608 0
M  V30 843 O 82.1255 -1.91629 -0.397093 0
M  V30 844 C 82.4245 -1.81948 3.0762 0
M  V30 845 C 82.0905 -1.07672 4.37856 0
M  V30 846 C 80.7525 -0.871544 4.73242 0
M  V30 847 C 83.1045 -0.552081 5.18268 0
M  V30 848 C 80.4325 -0.129791 5.86556 0
M  V30 849 C 82.7845 0.17632 6.32354 0
M  V30 850 C 81.4485 0.39277 6.66343 0
M  V30 851 H 80.7185 -0.346852 0.654809 0
M  V30 852 H 83.3655 -0.216171 1.90276 0
M  V30 853 H 81.6705 -2.61899 2.91404 0
M  V30 854 H 83.3675 -2.38227 3.22566 0
M  V30 855 H 79.9575 -1.24662 4.1007 0
M  V30 856 H 84.1415 -0.698076 4.91366 0
M  V30 857 H 79.3975 0.048153 6.11381 0
M  V30 858 H 83.5715 0.590367 6.93893 0
M  V30 859 H 81.1985 0.969466 7.53993 0
M  V30 860 N 82.7736 -1.49793 -0.48987 0
M  V30 861 C 83.7036 -1.70201 -1.59856 0
M  V30 862 C 84.6846 -0.55076 -1.60937 0
M  V30 863 O 85.8696 -0.787841 -1.77501 0
M  V30 864 C 82.9996 -1.77882 -2.98287 0
M  V30 865 C 81.9536 -2.92907 -3.12073 0
M  V30 866 C 81.2796 -2.85712 -4.51965 0
M  V30 867 C 82.5796 -4.3369 -2.91051 0
M  V30 868 H 84.2736 -2.63025 -1.43032 0
M  V30 869 H 81.8196 -1.26574 -0.686664 0
M  V30 870 H 83.7726 -1.90744 -3.75759 0
M  V30 871 H 82.4966 -0.816653 -3.16225 0
M  V30 872 H 81.1556 -2.79665 -2.37029 0
M  V30 873 H 80.8036 -1.8738 -4.66795 0
M  V30 874 H 80.5036 -3.62921 -4.62128 0
M  V30 875 H 82.0276 -3.00598 -5.31482 0
M  V30 876 H 83.4416 -4.47555 -3.58284 0
M  V30 877 H 81.8386 -5.12205 -3.12675 0
M  V30 878 H 82.9086 -4.47362 -1.87071 0
M  V30 879 N 84.2517 0.741722 -1.39055 0
M  V30 880 C 85.6677 1.04638 -1.20512 0
M  V30 881 C 85.8677 2.01405 -0.0620218 0
M  V30 882 O 84.9237 2.45547 0.588457 0
M  V30 883 C 86.2367 1.6151 -2.53643 0
M  V30 884 C 87.7847 1.73623 -2.6043 0
M  V30 885 C 88.2597 2.33906 -3.93767 0
M  V30 886 N 89.7507 2.41323 -3.9537 0
M  V30 887 C 90.4857 2.88888 -4.95309 0
M  V30 888 N 89.9817 3.36401 -6.05645 0
M  V30 889 N 91.7747 2.88037 -4.82692 0
M  V30 890 H 83.9257 0.0998155 -2.12165 0
M  V30 891 H 86.1887 0.106907 -0.941953 0
M  V30 892 H 85.8947 0.978739 -3.37807 0
M  V30 893 H 85.7687 2.60411 -2.72885 0
M  V30 894 H 88.1557 2.36384 -1.76655 0
M  V30 895 H 88.2367 0.733945 -2.45045 0
M  V30 896 H 87.8807 1.71776 -4.7797 0
M  V30 897 H 87.8107 3.34799 -4.06469 0
M  V30 898 H 90.3017 2.07734 -3.15682 0
M  V30 899 H 90.6147 3.71186 -6.77821 0
M  V30 900 H 88.9597 3.34427 -6.09248 0
M  V30 901 H 92.1507 2.50237 -3.95599 0
M  V30 902 H 92.3237 3.24792 -5.60726 0
M  V30 903 N 85.7298 1.2412 0.971189 0
M  V30 904 C 86.6618 0.988349 2.06795 0
M  V30 905 C 87.6748 -0.0409541 1.62748 0
M  V30 906 O 88.8638 0.195673 1.77424 0
M  V30 907 C 85.9638 0.469023 3.35639 0
M  V30 908 C 85.1368 1.56065 4.08611 0
M  V30 909 C 84.1958 1.04458 5.15728 0
M  V30 910 O 83.2218 1.73553 5.42096 0
M  V30 911 N 84.4238 -0.122817 5.8037 0
M  V30 912 H 87.1888 1.93265 2.29061 0
M  V30 913 H 84.7498 1.15102 1.13856 0
M  V30 914 H 86.7418 0.108613 4.04554 0
M  V30 915 H 85.3118 -0.380919 3.1027 0
M  V30 916 H 84.5318 2.09341 3.34021 0
M  V30 917 H 85.8198 2.29449 4.54126 0
M  V30 918 H 85.2178 -0.700563 5.61345 0
M  V30 919 H 83.7748 -0.424404 6.50417 0
M  V30 920 N 87.2079 -1.17134 1.05439 0
M  V30 921 C 88.1179 -2.24878 0.668365 0
M  V30 922 C 89.1339 -1.71186 -0.311687 0
M  V30 923 O 90.3099 -2.00738 -0.163161 0
M  V30 924 C 87.3749 -3.46662 0.051648 0
M  V30 925 C 86.4359 -4.15429 1.08246 0
M  V30 926 C 85.6689 -5.31399 0.495082 0
M  V30 927 O 85.8919 -5.66153 -0.694743 0
M  V30 928 O 84.8259 -5.89187 1.23056 0
M  V30 929 H 88.6519 -2.60189 1.56637 0
M  V30 930 H 86.2369 -1.24482 0.826104 0
M  V30 931 H 88.1189 -4.20394 -0.290966 0
M  V30 932 H 86.7939 -3.13142 -0.819971 0
M  V30 933 H 85.7009 -3.43704 1.47711 0
M  V30 934 H 87.0339 -4.52982 1.92532 0
M  V30 935 N 88.686 -0.835752 -1.33615 0
M  V30 936 C 89.616 -0.281739 -2.31794 0
M  V30 937 C 90.597 0.608833 -1.58831 0
M  V30 938 O 91.782 0.533035 -1.86741 0
M  V30 939 C 88.912 0.546612 -3.42971 0
M  V30 940 C 87.866 -0.247904 -4.27281 0
M  V30 941 C 87.192 0.704001 -5.30045 0
M  V30 942 C 88.492 -1.46324 -5.01385 0
M  V30 943 H 90.186 -1.10206 -2.78379 0
M  V30 944 H 87.732 -0.531388 -1.33837 0
M  V30 945 H 89.685 0.944467 -4.1068 0
M  V30 946 H 88.409 1.40011 -2.95067 0
M  V30 947 H 87.068 -0.627281 -3.61194 0
M  V30 948 H 86.716 1.55381 -4.78399 0
M  V30 949 H 86.416 0.176524 -5.87335 0
M  V30 950 H 87.94 1.09944 -6.0062 0
M  V30 951 H 89.354 -1.13871 -5.61877 0
M  V30 952 H 87.751 -1.92728 -5.6831 0
M  V30 953 H 88.821 -2.23467 -4.30338 0
M  V30 954 N 90.1641 1.46063 -0.591896 0
M  V30 955 C 91.5751 1.85944 -0.167822 0
M  V30 956 C 91.9261 1.49429 1.27143 0
M  V30 957 O 91.0511 0.913515 1.96173 0
M  V30 958 C 91.6461 3.37489 -0.297794 0
M  V30 959 C 90.2051 3.76332 0.0714732 0
M  V30 960 C 89.3521 2.7006 -0.629509 0
M  V30 961 H 92.3031 1.37087 -0.799555 0
M  V30 962 H 92.3241 3.77532 0.474349 0
M  V30 963 H 91.8361 3.64034 -1.3454 0
M  V30 964 H 89.9371 3.55405 1.11886 0
M  V30 965 H 90.0501 4.78088 -0.311245 0
M  V30 966 H 88.4141 2.54607 -0.0687867 0
M  V30 967 H 89.1971 2.99444 -1.67894 0
M  V30 968 N 91.6422 0.330177 1.54103 0
M  V30 969 C 92.8882 -0.270806 2.00984 0
M  V30 970 C 93.2212 -1.51265 1.21789 0
M  V30 971 O 92.4962 -1.92142 0.301927 0
M  V30 972 C 92.7792 -0.598339 3.55094 0
M  V30 973 C 92.6322 0.654674 4.4501 0
M  V30 974 C 93.9512 -1.41334 4.16789 0
M  V30 975 H 91.0702 -0.0969531 0.730595 0
M  V30 976 H 93.7122 0.448066 1.84641 0
M  V30 977 H 91.8622 -1.21078 3.69151 0
M  V30 978 H 93.5342 1.29285 4.42813 0
M  V30 979 H 91.7772 1.28224 4.14416 0
M  V30 980 H 92.4482 0.380944 5.50684 0
M  V30 981 H 94.9242 -0.895597 4.06347 0
M  V30 982 H 93.8002 -1.61127 5.24718 0
M  V30 983 H 94.0612 -2.41146 3.70541 0
M  V30 984 N 93.1203 -1.57491 0.0584922 0
M  V30 985 C 94.5363 -1.56792 -0.298091 0
M  V30 986 C 94.7363 -1.06679 -1.70944 0
M  V30 987 O 93.7923 -0.726672 -2.41818 0
M  V30 988 C 95.1053 -3.00461 -0.119879 0
M  V30 989 C 96.6533 -3.1242 -0.190428 0
M  V30 990 C 97.1283 -4.57982 -0.0406567 0
M  V30 991 N 98.6193 -4.63099 -0.0966958 0
M  V30 992 C 99.3543 -5.734 -0.00502943 0
M  V30 993 N 98.8503 -6.9266 0.139402 0
M  V30 994 N 100.643 -5.62067 -0.0611391 0
M  V30 995 H 92.7943 -1.88386 0.98105 0
M  V30 996 H 95.0573 -0.867865 0.381463 0
M  V30 997 H 94.7633 -3.41187 0.85349 0
M  V30 998 H 94.6373 -3.66843 -0.877833 0
M  V30 999 H 97.0243 -2.71589 -1.15427 0
M  V30 1000 H 97.1053 -2.48702 0.598405 0
M  V30 1001 H 96.7493 -4.995 0.919897 0
M  V30 1002 H 96.6793 -5.19715 -0.848727 0
M  V30 1003 H 99.1703 -3.77331 -0.207277 0
M  V30 1004 H 99.4833 -7.72536 0.201855 0
M  V30 1005 H 97.8283 -6.94781 0.174586 0
M  V30 1006 H 101.019 -4.67782 -0.172583 0
M  V30 1007 H 101.192 -6.47999 0.0137562 0
M  V30 1008 N 94.5984 0.214957 -1.56127 0
M  V30 1009 C 95.5284 1.2695 -1.95974 0
M  V30 1010 C 96.5094 1.48539 -0.828868 0
M  V30 1011 O 97.6944 1.60611 -1.09168 0
M  V30 1012 C 94.8244 2.61794 -2.28214 0
M  V30 1013 C 93.7784 2.54851 -3.43853 0
M  V30 1014 C 93.1044 3.93785 -3.61715 0
M  V30 1015 C 94.4044 2.09065 -4.78632 0
M  V30 1016 H 96.0984 0.93846 -2.84312 0
M  V30 1017 H 93.6444 0.449996 -1.36788 0
M  V30 1018 H 95.5974 3.35731 -2.54682 0
M  V30 1019 H 94.3214 2.96599 -1.36736 0
M  V30 1020 H 92.9804 1.8337 -3.17444 0
M  V30 1021 H 92.6284 4.25908 -2.67602 0
M  V30 1022 H 92.3284 3.90019 -4.39498 0
M  V30 1023 H 93.8524 4.69374 -3.90539 0
M  V30 1024 H 95.2664 2.7275 -5.04262 0
M  V30 1025 H 93.6634 2.16346 -5.59745 0
M  V30 1026 H 94.7334 1.04315 -4.73547 0
M  V30 1027 N 96.0765 1.50051 0.48192 0
M  V30 1028 C 97.0395 1.67584 1.5636 0
M  V30 1029 C 98.0395 0.546894 1.51214 0
M  V30 1030 O 99.2295 0.813725 1.54026 0
M  V30 1031 C 96.3615 1.691 2.96003 0
M  V30 1032 H 97.5545 2.64078 1.42136 0
M  V30 1033 H 95.1075 1.39369 0.707533 0
M  V30 1034 H 95.8425 0.742589 3.15684 0
M  V30 1035 H 95.6275 2.51105 3.01146 0
M  V30 1036 H 97.1175 1.84656 3.74556 0
M  V30 1037 N 97.5546 -0.734337 1.39446 0
M  V30 1038 C 98.5026 -1.86971 1.38364 0
M  V30 1039 C 99.4966 -1.67288 0.266687 0
M  V30 1040 O 100.703 -1.74621 0.436755 0
M  V30 1041 H 97.0776 -0.615474 0.432082 0
M  V30 1042 H 99.0486 -1.85 2.34132 0
M  V30 1043 C 97.7976 -3.2466 1.24465 0
M  V30 1044 H 97.1206 -3.40402 2.09682 0
M  V30 1045 H 98.5606 -4.04292 1.27764 0
M  V30 1046 C 97.0196 -3.36867 -0.0468674 0
M  V30 1047 O 97.5496 -3.88618 -1.01681 0
M  V30 1048 N 95.7556 -2.90391 -0.110145 0
M  V30 1049 H 95.3026 -2.48466 0.679868 0
M  V30 1050 H 95.2606 -2.98939 -0.973799 0
M  V30 1051 N 99.0327 -1.24633 -0.964593 0
M  V30 1052 C 100.282 -1.08188 -1.7023 0
M  V30 1053 C 100.595 0.37873 -1.91898 0
M  V30 1054 O 101.801 0.663427 -2.6327 0
M  V30 1055 C 100.257 -1.88773 -3.06419 0
M  V30 1056 C 99.8647 -3.39263 -2.92582 0
M  V30 1057 C 101.609 -1.80867 -3.84041 0
M  V30 1058 C 99.5157 -4.1218 -4.24101 0
M  V30 1059 H 98.4457 -0.401245 -0.638372 0
M  V30 1060 H 101.097 -1.48742 -1.07462 0
M  V30 1061 H 99.4787 -1.41035 -3.70034 0
M  V30 1062 H 100.653 -3.94603 -2.37961 0
M  V30 1063 H 98.9677 -3.48154 -2.28424 0
M  V30 1064 H 101.565 -2.32646 -4.81435 0
M  V30 1065 H 101.908 -0.774543 -4.09031 0
M  V30 1066 H 102.441 -2.26301 -3.27159 0
M  V30 1067 H 99.1797 -5.15965 -4.04303 0
M  V30 1068 H 98.6997 -3.61626 -4.78526 0
M  V30 1069 H 100.379 -4.19349 -4.92702 0
M  V30 1070 N 100.511 1.16574 -1.06058 0
M  V30 1071 C 101.441 2.23057 -0.690488 0
M  V30 1072 C 102.422 1.67141 0.315901 0
M  V30 1073 O 103.607 1.93253 0.191556 0
M  V30 1074 C 100.737 3.47222 -0.073625 0
M  V30 1075 C 99.6908 4.16016 -1.00573 0
M  V30 1076 C 99.0168 5.34104 -0.252289 0
M  V30 1077 C 100.317 4.67264 -2.33371 0
M  V30 1078 H 102.011 2.54271 -1.58072 0
M  V30 1079 H 99.5568 1.22218 -0.76149 0
M  V30 1080 H 101.51 4.20939 0.19714 0
M  V30 1081 H 100.234 3.15302 0.85161 0
M  V30 1082 H 98.8928 3.44223 -1.2612 0
M  V30 1083 H 98.5408 4.98437 0.675988 0
M  V30 1084 H 98.2408 5.81072 -0.873455 0
M  V30 1085 H 99.7648 6.10599 0.0109857 0
M  V30 1086 H 101.179 5.32573 -2.12223 0
M  V30 1087 H 99.5758 5.24843 -2.90963 0
M  V30 1088 H 100.646 3.83602 -2.96611 0
M  V30 1089 N 101.989 0.842826 1.3317 0
M  V30 1090 C 102.936 0.276885 2.29133 0
M  V30 1091 C 103.906 -0.609527 1.54512 0
M  V30 1092 O 105.091 -0.546955 1.82792 0
M  V30 1093 C 102.231 -0.538707 3.40869 0
M  V30 1094 C 101.344 0.372169 4.30394 0
M  V30 1095 C 100.479 -0.454908 5.29249 0
M  V30 1096 C 99.5179 0.45411 6.10413 0
M  V30 1097 N 98.6549 -0.335075 7.013 0
M  V30 1098 H 103.495 1.10052 2.76934 0
M  V30 1099 H 101.032 0.554161 1.36262 0
M  V30 1100 H 102.99 -1.02709 4.0436 0
M  V30 1101 H 101.62 -1.32727 2.9425 0
M  V30 1102 H 100.672 0.97888 3.6759 0
M  V30 1103 H 101.984 1.0703 4.87182 0
M  V30 1104 H 101.138 -1.00695 5.98285 0
M  V30 1105 H 99.8769 -1.18646 4.73048 0
M  V30 1106 H 98.8819 1.01813 5.40291 0
M  V30 1107 H 100.107 1.18409 6.68697 0
M  V30 1108 H 98.0529 -1.04994 6.47543 0
M  V30 1109 H 97.9699 0.304262 7.55387 0
M  V30 1110 H 99.2379 -0.869224 7.74638 0
M  V30 1111 N 103.467 -1.45747 0.599634 0
M  V30 1112 C 104.377 -2.34262 -0.125888 0
M  V30 1113 C 105.393 -1.50768 -0.868625 0
M  V30 1114 O 106.569 -1.83592 -0.828003 0
M  V30 1115 C 103.634 -3.28252 -1.11587 0
M  V30 1116 C 102.695 -4.27651 -0.375956 0
M  V30 1117 C 101.928 -5.1715 -1.31877 0
M  V30 1118 O 102.151 -5.09916 -2.55621 0
M  V30 1119 O 101.085 -5.96286 -0.820157 0
M  V30 1120 H 104.911 -2.97688 0.601315 0
M  V30 1121 H 102.496 -1.44999 0.359934 0
M  V30 1122 H 104.378 -3.86191 -1.68626 0
M  V30 1123 H 103.053 -2.67401 -1.82424 0
M  V30 1124 H 101.96 -3.7335 0.236698 0
M  V30 1125 H 103.293 -4.91334 0.29177 0
M  V30 1126 N 104.945 -0.338344 -1.53925 0
M  V30 1127 C 106.194 0.260732 -2.00008 0
M  V30 1128 C 106.507 1.52073 -1.23017 0
M  V30 1129 O 107.713 2.19672 -1.5955 0
M  V30 1130 C 106.169 0.51515 -3.56194 0
M  V30 1131 C 105.777 -0.728645 -4.42035 0
M  V30 1132 C 107.521 1.07337 -4.10706 0
M  V30 1133 C 105.428 -0.445315 -5.89721 0
M  V30 1134 H 104.358 0.101205 -0.747177 0
M  V30 1135 H 107.009 -0.452866 -1.77824 0
M  V30 1136 H 105.391 1.28932 -3.74423 0
M  V30 1137 H 106.565 -1.50352 -4.35581 0
M  V30 1138 H 104.88 -1.20813 -3.98489 0
M  V30 1139 H 107.477 1.30022 -5.18651 0
M  V30 1140 H 107.82 2.0273 -3.63602 0
M  V30 1141 H 108.353 0.360034 -3.96167 0
M  V30 1142 H 105.092 -1.36883 -6.41049 0
M  V30 1143 H 104.612 0.291569 -5.99091 0
M  V30 1144 H 106.291 -0.0606218 -6.46972 0
M  V30 1145 N 106.423 1.57458 -0.0668435 0
M  V30 1146 C 107.7 1.8469 0.644132 0
M  V30 1147 C 108.08 0.958343 1.88093 0
M  V30 1148 O 107.428 0.0233579 2.28488 0
M  V30 1149 C 107.638 3.34767 0.986509 0
M  V30 1150 C 108.986 4.02159 1.36212 0
M  V30 1151 O 110.01 3.39484 1.07839 0
M  V30 1152 O 108.869 5.12694 1.89227 0
M  V30 1153 H 105.963 0.762816 0.319437 0
M  V30 1154 H 108.509 1.6942 -0.0973986 0
M  V30 1155 H 107.281 3.91151 0.107883 0
M  V30 1156 H 106.904 3.55281 1.78497 0
M  V30 1157 N 107.901 -0.206675 1.56239 0
M  V30 1158 C 109.15 -0.926964 1.79138 0
M  V30 1159 C 109.463 -1.84901 0.638043 0
M  V30 1160 O 110.669 -2.60906 0.751033 0
M  V30 1161 C 109.125 -1.6986 3.17294 0
M  V30 1162 C 108.733 -0.821956 4.40395 0
M  V30 1163 C 110.477 -2.40922 3.4951 0
M  V30 1164 C 108.384 -1.59179 5.69575 0
M  V30 1165 H 107.314 -0.349864 0.667915 0
M  V30 1166 H 109.965 -0.180487 1.8261 0
M  V30 1167 H 108.347 -2.48853 3.08039 0
M  V30 1168 H 109.521 -0.0715019 4.60745 0
M  V30 1169 H 107.836 -0.222741 4.15804 0
M  V30 1170 H 110.433 -2.99047 4.43255 0
M  V30 1171 H 110.776 -3.14542 2.72707 0
M  V30 1172 H 111.309 -1.68905 3.60161 0
M  V30 1173 H 108.048 -0.898589 6.49312 0
M  V30 1174 H 107.568 -2.31648 5.53262 0
M  V30 1175 H 109.247 -2.14862 6.10281 0
M  V30 1176 N 109.379 -1.50304 -0.473955 0
M  V30 1177 C 110.309 -1.71886 -1.58042 0
M  V30 1178 C 111.29 -0.567799 -1.60344 0
M  V30 1179 O 112.475 -0.806623 -1.76656 0
M  V30 1180 C 109.605 -1.81036 -2.96384 0
M  V30 1181 C 108.559 -2.962 -3.08949 0
M  V30 1182 C 107.885 -2.9049 -4.48909 0
M  V30 1183 C 109.185 -4.36752 -2.86434 0
M  V30 1184 H 110.879 -2.64527 -1.40234 0
M  V30 1185 H 108.425 -1.27295 -0.673201 0
M  V30 1186 H 110.378 -1.94719 -3.73714 0
M  V30 1187 H 109.102 -0.850147 -3.15341 0
M  V30 1188 H 107.761 -2.82164 -2.3405 0
M  V30 1189 H 107.409 -1.92321 -4.64781 0
M  V30 1190 H 107.109 -3.67802 -4.58253 0
M  V30 1191 H 108.633 -3.06218 -5.28264 0
M  V30 1192 H 110.047 -4.5133 -3.53517 0
M  V30 1193 H 108.444 -5.15493 -3.07225 0
M  V30 1194 H 109.514 -4.49321 -1.82316 0
M  V30 1195 N 110.857 0.726932 -1.39834 0
M  V30 1196 C 112.268 1.30558 -1.3346 0
M  V30 1197 C 112.619 1.962 -0.00273003 0
M  V30 1198 O 111.744 1.96826 0.899371 0
M  V30 1199 C 112.339 2.37404 -2.41713 0
M  V30 1200 C 110.898 2.90921 -2.38835 0
M  V30 1201 C 110.045 1.64578 -2.2318 0
M  V30 1202 H 112.996 0.523862 -1.49804 0
M  V30 1203 H 113.017 3.17984 -2.08966 0
M  V30 1204 H 112.529 1.89599 -3.38635 0
M  V30 1205 H 110.63 3.42985 -1.45575 0
M  V30 1206 H 110.743 3.43487 -3.33997 0
M  V30 1207 H 109.107 1.89219 -1.70494 0
M  V30 1208 H 109.89 1.18814 -3.22084 0
M  V30 1209 N 112.336 1.25143 0.95797 0
M  V30 1210 C 113.564 1.12424 1.73691 0
M  V30 1211 C 113.979 -0.322304 1.86029 0
M  V30 1212 O 113.336 -1.22186 1.35561 0
M  V30 1213 C 113.387 1.76933 3.15241 0
M  V30 1214 O 113.108 3.15932 3.03511 0
M  V30 1215 C 114.609 1.6995 4.09429 0
M  V30 1216 H 111.829 0.3923 0.544373 0
M  V30 1217 H 114.373 1.6544 1.20207 0
M  V30 1218 H 112.528 1.27895 3.6568 0
M  V30 1219 H 112.942 3.47598 3.9278 0
M  V30 1220 H 114.416 2.19753 5.06372 0
M  V30 1221 H 114.893 0.662619 4.34173 0
M  V30 1222 H 115.499 2.18461 3.64904 0
M  V30 1223 N 113.814 -1.1601 1.06675 0
M  V30 1224 C 114.746 -2.20115 0.638921 0
M  V30 1225 C 115.759 -1.59916 -0.305057 0
M  V30 1226 O 116.948 -1.78245 -0.0954446 0
M  V30 1227 C 114.048 -3.38798 -0.0830083 0
M  V30 1228 C 113.221 -4.2855 0.875426 0
M  V30 1229 C 112.28 -5.25849 0.192042 0
M  V30 1230 O 111.306 -5.63102 0.830921 0
M  V30 1231 N 112.508 -5.70648 -1.06493 0
M  V30 1232 H 115.273 -2.57439 1.53444 0
M  V30 1233 H 112.834 -1.31057 0.950557 0
M  V30 1234 H 114.826 -4.00936 -0.550685 0
M  V30 1235 H 113.396 -2.99947 -0.880386 0
M  V30 1236 H 112.616 -3.63617 1.52238 0
M  V30 1237 H 113.904 -4.85393 1.52548 0
M  V30 1238 H 113.302 -5.42482 -1.60405 0
M  V30 1239 H 111.859 -6.34859 -1.47641 0
M  V30 1240 N 115.292 -0.849877 -1.32721 0
M  V30 1241 C 116.222 -0.306308 -2.31482 0
M  V30 1242 C 117.203 0.591952 -1.59468 0
M  V30 1243 O 118.388 0.513199 -1.87296 0
M  V30 1244 C 115.518 0.510204 -3.43532 0
M  V30 1245 C 114.472 -0.293209 -4.26994 0
M  V30 1246 C 113.798 0.647743 -5.30762 0
M  V30 1247 C 115.098 -1.51634 -4.99804 0
M  V30 1248 H 116.792 -1.13153 -2.77195 0
M  V30 1249 H 114.338 -0.545553 -1.33266 0
M  V30 1250 H 116.291 0.900856 -4.11658 0
M  V30 1251 H 115.015 1.36874 -2.96535 0
M  V30 1252 H 113.674 -0.665555 -3.60508 0
M  V30 1253 H 113.322 1.50299 -4.8002 0
M  V30 1254 H 113.022 0.11422 -5.87489 0
M  V30 1255 H 114.546 1.03567 -6.01753 0
M  V30 1256 H 115.96 -1.19824 -5.60638 0
M  V30 1257 H 114.357 -1.98745 -5.66234 0
M  V30 1258 H 115.427 -2.28018 -4.27943 0
M  V30 1259 N 116.77 1.45427 -0.607355 0
M  V30 1260 C 118.016 2.0254 -0.102607 0
M  V30 1261 C 118.349 1.47478 1.26348 0
M  V30 1262 O 117.624 0.64939 1.83339 0
M  V30 1263 C 117.907 3.60044 -0.0634347 0
M  V30 1264 C 117.76 4.2544 -1.46017 0
M  V30 1265 C 119.079 4.35646 0.624514 0
M  V30 1266 H 116.198 0.73598 -0.0387607 0
M  V30 1267 H 118.84 1.73284 -0.779282 0
M  V30 1268 H 116.99 3.85101 0.512808 0
M  V30 1269 H 118.662 4.11569 -2.08347 0
M  V30 1270 H 116.905 3.83849 -2.02094 0
M  V30 1271 H 117.576 5.34342 -1.385 0
M  V30 1272 H 120.052 4.15882 0.134723 0
M  V30 1273 H 118.928 5.45376 0.621028 0
M  V30 1274 H 119.189 4.08501 1.69055 0
M  V30 1275 N 118.248 0.346503 1.53744 0
M  V30 1276 C 119.196 -0.52422 2.26616 0
M  V30 1277 C 120.19 -1.09948 1.28871 0
M  V30 1278 O 121.396 -1.04488 1.46568 0
M  V30 1279 H 117.771 -0.187743 0.728187 0
M  V30 1280 H 119.742 0.11239 2.98188 0
M  V30 1281 C 118.491 -1.66186 3.05414 0
M  V30 1282 H 117.814 -1.22848 3.80458 0
M  V30 1283 H 119.254 -2.24622 3.59612 0
M  V30 1284 C 117.713 -2.59302 2.1509 0
M  V30 1285 O 118.243 -3.61628 1.74895 0
M  V30 1286 N 116.449 -2.28055 1.8011 0
M  V30 1287 H 115.996 -1.44883 2.12994 0
M  V30 1288 H 115.954 -2.90615 1.19958 0
M  V30 1289 N 119.726 -1.57421 0.075193 0
M  V30 1290 C 120.954 -1.97946 -0.602076 0
M  V30 1291 C 121.369 -0.953674 -1.62943 0
M  V30 1292 O 120.726 0.0592551 -1.82404 0
M  V30 1293 C 120.777 -3.38546 -1.26762 0
M  V30 1294 O 120.498 -4.37195 -0.281376 0
M  V30 1295 C 121.999 -3.93966 -2.03239 0
M  V30 1296 H 119.219 -0.650918 -0.162931 0
M  V30 1297 H 121.763 -2.03959 0.148601 0
M  V30 1298 H 119.918 -3.33609 -1.96936 0
M  V30 1299 H 120.332 -5.18975 -0.759267 0
M  V30 1300 H 121.806 -4.94555 -2.45193 0
M  V30 1301 H 122.283 -3.30693 -2.8903 0
M  V30 1302 H 122.889 -4.02315 -1.37924 0
M  V30 1303 N 121.204 0.198386 -1.56346 0
M  V30 1304 C 122.429 0.939682 -1.84891 0
M  V30 1305 C 122.854 1.76202 -0.658369 0
M  V30 1306 O 122.212 1.76993 0.392851 0
M  V30 1307 C 122.26 1.81428 -3.11635 0
M  V30 1308 O 121.364 2.91265 -2.91956 0
M  V30 1309 H 120.705 0.264807 -0.608912 0
M  V30 1310 H 123.235 0.204695 -2.03573 0
M  V30 1311 H 123.245 2.21958 -3.42343 0
M  V30 1312 H 121.92 1.21004 -3.97908 0
M  V30 1313 H 120.497 2.54514 -2.72538 0
M  V30 1314 N 122.682 1.50554 0.465978 0
M  V30 1315 C 123.907 1.65838 1.24549 0
M  V30 1316 C 124.332 0.343486 1.84937 0
M  V30 1317 O 123.69 -0.69324 1.67523 0
M  V30 1318 C 123.738 2.75533 2.32624 0
M  V30 1319 O 122.842 2.37142 3.37398 0
M  V30 1320 H 122.183 0.553893 0.366194 0
M  V30 1321 H 124.713 1.96959 0.553927 0
M  V30 1322 H 124.723 2.98763 2.77857 0
M  V30 1323 H 123.398 3.70962 1.88043 0
M  V30 1324 H 121.975 2.24377 2.97841 0
M  V30 1325 N 124.16 -0.719506 1.40217 0
M  V30 1326 C 125.406 -1.48152 1.38488 0
M  V30 1327 C 125.739 -1.94195 -0.0141867 0
M  V30 1328 O 125.014 -1.67884 -0.982096 0
M  V30 1329 C 125.297 -2.71035 2.37091 0
M  V30 1330 C 125.15 -2.30912 3.86005 0
M  V30 1331 C 126.469 -3.73182 2.33288 0
M  V30 1332 H 123.588 -0.537395 0.504357 0
M  V30 1333 H 126.23 -0.821472 1.71324 0
M  V30 1334 H 124.38 -3.27352 2.0922 0
M  V30 1335 H 126.052 -1.80107 4.24687 0
M  V30 1336 H 124.295 -1.62958 4.02029 0
M  V30 1337 H 124.966 -3.18978 4.50508 0
M  V30 1338 H 127.442 -3.26485 2.57966 0
M  V30 1339 H 126.318 -4.56806 3.04334 0
M  V30 1340 H 126.579 -4.21202 1.34317 0
M  V30 1341 N 125.638 -1.25649 -0.95132 0
M  V30 1342 C 126.57 -1.02112 -2.05197 0
M  V30 1343 C 127.583 0.0150571 -1.62793 0
M  V30 1344 O 128.772 -0.223874 -1.77091 0
M  V30 1345 C 125.872 -0.522361 -3.3485 0
M  V30 1346 C 125.045 -1.62546 -4.06076 0
M  V30 1347 C 124.104 -1.12649 -5.14001 0
M  V30 1348 O 123.13 -1.82156 -5.39266 0
M  V30 1349 N 124.332 0.03047 -5.80492 0
M  V30 1350 H 127.097 -1.96885 -2.25957 0
M  V30 1351 H 124.658 -1.16899 -1.1201 0
M  V30 1352 H 126.65 -0.172961 -4.0433 0
M  V30 1353 H 125.22 0.33151 -3.10837 0
M  V30 1354 H 124.44 -2.14628 -3.30649 0
M  V30 1355 H 125.728 -2.36644 -4.50419 0
M  V30 1356 H 125.126 0.611169 -5.62389 0
M  V30 1357 H 123.683 0.320875 -6.5101 0
M  V30 1358 N 127.117 1.15442 -1.07289 0
M  V30 1359 C 128.047 2.22312 -0.714107 0
M  V30 1360 C 129.028 1.67467 0.298155 0
M  V30 1361 O 130.213 1.93445 0.171048 0
M  V30 1362 C 127.343 3.47124 -0.110448 0
M  V30 1363 C 126.297 4.14926 -1.04979 0
M  V30 1364 C 125.623 5.33807 -0.308924 0
M  V30 1365 C 126.923 4.64762 -2.38314 0
M  V30 1366 H 128.617 2.5258 -1.6076 0
M  V30 1367 H 126.163 1.21404 -0.77441 0
M  V30 1368 H 128.116 4.21124 0.152482 0
M  V30 1369 H 126.84 3.16187 0.81812 0
M  V30 1370 H 125.499 3.42866 -1.29764 0
M  V30 1371 H 125.147 4.99126 0.623084 0
M  V30 1372 H 124.847 5.80113 -0.935036 0
M  V30 1373 H 126.371 6.10576 -0.0537771 0
M  V30 1374 H 127.785 5.30292 -2.1786 0
M  V30 1375 H 126.182 5.21728 -2.96514 0
M  V30 1376 H 127.252 3.80434 -3.00663 0
M  V30 1377 N 128.595 0.856903 1.32268 0
M  V30 1378 C 129.841 0.462069 1.97466 0
M  V30 1379 C 130.174 -0.980298 1.67642 0
M  V30 1380 O 129.449 -1.68824 0.965858 0
M  V30 1381 C 129.732 0.704336 3.53145 0
M  V30 1382 C 129.585 2.19529 3.9259 0
M  V30 1383 C 130.904 0.1622 4.39801 0
M  V30 1384 H 128.023 0.169357 0.717278 0
M  V30 1385 H 130.665 1.07574 1.56614 0
M  V30 1386 H 128.815 0.181999 3.88073 0
M  V30 1387 H 130.487 2.78387 3.67829 0
M  V30 1388 H 128.73 2.67292 3.41668 0
M  V30 1389 H 129.401 2.31549 5.01088 0
M  V30 1390 H 131.877 0.608905 4.11621 0
M  V30 1391 H 130.753 0.361265 5.4771 0
M  V30 1392 H 131.014 -0.935158 4.32096 0
M  V30 1393 N 130.073 -1.45103 0.615059 0
M  V30 1394 C 131.02 -2.30586 -0.0993978 0
M  V30 1395 C 131.99 -1.42544 -0.852669 0
M  V30 1396 O 133.175 -1.71465 -0.836917 0
M  V30 1397 C 130.315 -3.27572 -1.08583 0
M  V30 1398 C 129.428 -4.30717 -0.332656 0
M  V30 1399 C 128.563 -5.14807 -1.30947 0
M  V30 1400 C 127.602 -6.09673 -0.544538 0
M  V30 1401 N 126.739 -6.86517 -1.47101 0
M  V30 1402 H 131.579 -2.91144 0.635542 0
M  V30 1403 H 129.116 -1.4346 0.325206 0
M  V30 1404 H 131.074 -3.82276 -1.67095 0
M  V30 1405 H 129.704 -2.68751 -1.78809 0
M  V30 1406 H 128.756 -3.78615 0.368107 0
M  V30 1407 H 130.068 -4.98102 0.263842 0
M  V30 1408 H 129.222 -5.73948 -1.96643 0
M  V30 1409 H 127.961 -4.47458 -1.9399 0
M  V30 1410 H 126.966 -5.49656 0.126003 0
M  V30 1411 H 128.191 -6.79052 0.080947 0
M  V30 1412 H 126.137 -6.21851 -2.08895 0
M  V30 1413 H 126.054 -7.50281 -0.928137 0
M  V30 1414 H 127.322 -7.50194 -2.11731 0
M  V30 1415 N 131.551 -0.354651 -1.53558 0
M  V30 1416 C 132.776 0.242153 -2.05981 0
M  V30 1417 C 133.201 1.42553 -1.2272 0
M  V30 1418 O 132.559 1.79656 -0.243604 0
M  V30 1419 C 132.607 0.624367 -3.55154 0
M  V30 1420 O 131.711 1.72301 -3.74681 0
M  V30 1421 H 131.052 0.0378432 -0.662921 0
M  V30 1422 H 133.582 -0.512087 -1.98088 0
M  V30 1423 H 133.592 0.898433 -3.97985 0
M  V30 1424 H 132.267 -0.240989 -4.15201 0
M  V30 1425 H 130.844 1.44535 -3.4375 0
M  V30 1426 N 133.029 1.57378 -0.0835403 0
M  V30 1427 C 134.275 1.95025 0.577664 0
M  V30 1428 C 134.63 0.964049 1.66505 0
M  V30 1429 O 133.923 -0.0118235 1.91596 0
M  V30 1430 C 134.117 3.37063 1.1884 0
M  V30 1431 C 133.946 4.49409 0.16171 0
M  V30 1432 C 132.716 5.04642 -0.257756 0
M  V30 1433 C 134.914 5.10722 -0.605634 0
M  V30 1434 N 132.896 6.00537 -1.27393 0
M  V30 1435 C 134.267 6.02225 -1.47395 0
M  V30 1436 C 136.322 4.93501 -0.660418 0
M  V30 1437 C 135.025 6.78355 -2.39221 0
M  V30 1438 C 137.051 5.70283 -1.56623 0
M  V30 1439 C 136.413 6.61444 -2.4222 0
M  V30 1440 H 132.512 0.760512 0.182058 0
M  V30 1441 H 135.096 1.94013 -0.163419 0
M  V30 1442 H 133.267 3.3879 1.89936 0
M  V30 1443 H 134.999 3.61917 1.81103 0
M  V30 1444 H 131.754 4.73428 0.127702 0
M  V30 1445 H 132.178 6.53184 -1.77987 0
M  V30 1446 H 136.82 4.22798 -0.0128221 0
M  V30 1447 H 134.538 7.48327 -3.05011 0
M  V30 1448 H 138.124 5.58976 -1.61361 0
M  V30 1449 H 137.004 7.1982 -3.11174 0
M  V30 1450 N 134.507 -0.190092 1.56449 0
M  V30 1451 C 135.737 -0.92443 1.84764 0
M  V30 1452 C 136.145 -1.77146 0.664529 0
M  V30 1453 O 135.488 -1.79812 -0.375957 0
M  V30 1454 C 135.55 -1.86651 3.07248 0
M  V30 1455 C 135.214 -1.20094 4.40938 0
M  V30 1456 C 136.211 -0.575445 5.16706 0
M  V30 1457 C 133.896 -1.2033 4.87674 0
M  V30 1458 C 135.89 0.0388111 6.37388 0
M  V30 1459 C 133.577 -0.585214 6.08291 0
M  V30 1460 C 134.575 0.0347578 6.82991 0
M  V30 1461 O 134.263 0.643147 8.01323 0
M  V30 1462 H 133.995 -0.274974 0.617548 0
M  V30 1463 H 136.549 -0.200788 2.04416 0
M  V30 1464 H 134.779 -2.62998 2.83494 0
M  V30 1465 H 136.468 -2.46907 3.22167 0
M  V30 1466 H 137.234 -0.565728 4.81689 0
M  V30 1467 H 133.113 -1.67526 4.29484 0
M  V30 1468 H 136.657 0.523329 6.95634 0
M  V30 1469 H 132.554 -0.592451 6.42775 0
M  V30 1470 H 133.322 0.540545 8.16713 0
M  V30 1471 N 135.985 -1.50799 -0.457987 0
M  V30 1472 C 137.234 -1.6168 -1.20593 0
M  V30 1473 C 137.547 -0.32888 -1.92815 0
M  V30 1474 O 138.753 -0.316773 -2.69646 0
M  V30 1475 C 137.209 -2.8545 -2.19195 0
M  V30 1476 C 136.817 -4.21168 -1.52715 0
M  V30 1477 C 138.561 -3.05681 -2.94549 0
M  V30 1478 C 136.468 -5.3611 -2.4968 0
M  V30 1479 H 135.398 -0.602134 -0.453818 0
M  V30 1480 H 138.049 -1.77245 -0.475031 0
M  V30 1481 H 136.431 -2.63472 -2.95632 0
M  V30 1482 H 137.605 -4.53449 -0.819775 0
M  V30 1483 H 135.92 -4.06648 -0.895922 0
M  V30 1484 H 138.517 -3.88727 -3.67145 0
M  V30 1485 H 138.86 -2.17929 -3.54701 0
M  V30 1486 H 139.393 -3.27901 -2.25223 0
M  V30 1487 H 136.132 -6.26057 -1.94249 0
M  V30 1488 H 135.652 -5.0823 -3.18532 0
M  V30 1489 H 137.331 -5.6722 -3.11241 0
M  V30 1490 N 137.463 0.71206 -1.40597 0
M  V30 1491 C 138.395 1.83704 -1.37061 0
M  V30 1492 C 139.408 1.60453 -0.275426 0
M  V30 1493 O 140.597 1.70262 -0.53602 0
M  V30 1494 C 137.697 3.20172 -1.11099 0
M  V30 1495 C 136.87 3.7059 -2.3234 0
M  V30 1496 C 135.929 4.85681 -2.02485 0
M  V30 1497 O 134.955 4.9815 -2.75382 0
M  V30 1498 N 136.157 5.71735 -1.00497 0
M  V30 1499 H 138.922 1.87235 -2.34016 0
M  V30 1500 H 136.483 0.893739 -1.34996 0
M  V30 1501 H 138.475 3.94768 -0.891064 0
M  V30 1502 H 137.045 3.11767 -0.227989 0
M  V30 1503 H 136.265 2.87085 -2.7014 0
M  V30 1504 H 137.553 4.01011 -3.13157 0
M  V30 1505 H 136.951 5.64275 -0.401298 0
M  V30 1506 H 135.508 6.463 -0.844942 0
M  V30 1507 N 138.941 1.26152 0.944643 0
M  V30 1508 C 140.166 1.14363 1.7302 0
M  V30 1509 C 140.591 -0.29772 1.85729 0
M  V30 1510 O 139.949 -1.2157 1.34501 0
M  V30 1511 C 139.997 1.81378 3.11664 0
M  V30 1512 O 139.101 1.10022 3.97453 0
M  V30 1513 H 138.442 0.398694 0.53098 0
M  V30 1514 H 140.972 1.66906 1.18337 0
M  V30 1515 H 140.982 1.88064 3.62072 0
M  V30 1516 H 139.657 2.86237 3.0173 0
M  V30 1517 H 138.234 1.11287 3.55907 0
M  V30 1518 N 140.419 -1.14872 1.07899 0
M  V30 1519 C 141.349 -2.2193 0.725887 0
M  V30 1520 C 142.33 -1.67622 -0.28927 0
M  V30 1521 O 143.515 -1.93533 -0.160787 0
M  V30 1522 C 140.645 -3.47061 0.128856 0
M  V30 1523 C 139.599 -4.14363 1.07178 0
M  V30 1524 C 138.925 -5.33636 0.337229 0
M  V30 1525 C 140.225 -4.63492 2.40775 0
M  V30 1526 H 141.919 -2.51724 1.62097 0
M  V30 1527 H 139.465 -1.20991 0.780838 0
M  V30 1528 H 141.418 -4.21199 -0.130147 0
M  V30 1529 H 140.142 -3.16617 -0.80134 0
M  V30 1530 H 138.801 -3.42173 1.3158 0
M  V30 1531 H 138.449 -4.99449 -0.596606 0
M  V30 1532 H 138.149 -5.79609 0.965788 0
M  V30 1533 H 139.673 -6.10539 0.0861567 0
M  V30 1534 H 141.087 -5.2913 2.20669 0
M  V30 1535 H 139.484 -5.20148 2.99276 0
M  V30 1536 H 140.554 -3.78834 3.02676 0
M  V30 1537 N 141.898 -0.863906 -1.31812 0
M  V30 1538 C 142.831 -0.259963 -2.26714 0
M  V30 1539 C 143.809 0.607392 -1.50829 0
M  V30 1540 O 144.993 0.562155 -1.79922 0
M  V30 1541 C 142.12 0.632456 -3.32743 0
M  V30 1542 C 141.166 -0.162743 -4.26189 0
M  V30 1543 S 141.999 -1.53726 -5.12961 0
M  V30 1544 C 143.155 -0.650803 -6.22507 0
M  V30 1545 H 143.388 -1.06445 -2.77591 0
M  V30 1546 H 140.921 -0.662071 -1.39485 0
M  V30 1547 H 142.879 1.14167 -3.94305 0
M  V30 1548 H 141.54 1.41083 -2.80632 0
M  V30 1549 H 140.733 0.517366 -5.01338 0
M  V30 1550 H 140.335 -0.60385 -3.69093 0
M  V30 1551 H 142.627 0.141134 -6.77353 0
M  V30 1552 H 143.57 -1.37322 -6.94657 0
M  V30 1553 H 143.978 -0.221041 -5.64067 0
M  V30 1554 N 143.376 1.44774 -0.622745 0
M  V30 1555 C 144.653 1.95522 -0.0551974 0
M  V30 1556 C 145.033 1.5649 1.41683 0
M  V30 1557 O 144.381 0.834848 2.12703 0
M  V30 1558 C 144.591 3.4796 -0.269242 0
M  V30 1559 C 145.939 4.24306 -0.158014 0
M  V30 1560 O 146.963 3.55637 -0.200162 0
M  V30 1561 O 145.822 5.46471 -0.0558693 0
M  V30 1562 H 142.916 0.826556 0.0271015 0
M  V30 1563 H 145.462 1.54866 -0.693864 0
M  V30 1564 H 144.234 3.6939 -1.29099 0
M  V30 1565 H 143.857 3.95543 0.403966 0
M  V30 1566 N 144.854 0.36279 1.53368 0
M  V30 1567 C 145.784 -0.476976 2.28576 0
M  V30 1568 C 146.765 -1.08631 1.30894 0
M  V30 1569 O 147.95 -1.10409 1.59761 0
M  V30 1570 C 145.08 -1.61828 3.07293 0
M  V30 1571 C 144.034 -1.13633 4.1264 0
M  V30 1572 C 143.36 -2.36766 4.79423 0
M  V30 1573 C 144.66 -0.223061 5.21823 0
M  V30 1574 H 146.354 0.150474 2.99022 0
M  V30 1575 H 143.9 0.0738103 1.43811 0
M  V30 1576 H 145.853 -2.21237 3.58653 0
M  V30 1577 H 144.577 -2.27292 2.34533 0
M  V30 1578 H 143.236 -0.564945 3.62221 0
M  V30 1579 H 142.884 -3.0068 4.03238 0
M  V30 1580 H 142.584 -2.05192 5.50609 0
M  V30 1581 H 144.108 -2.96865 5.33576 0
M  V30 1582 H 145.522 -0.724545 5.68703 0
M  V30 1583 H 143.919 0.001678 6.001 0
M  V30 1584 H 144.989 0.735553 4.79289 0
M  V30 1585 N 146.332 -1.57332 0.0918853 0
M  V30 1586 C 147.578 -1.94524 -0.573425 0
M  V30 1587 C 147.911 -0.973578 -1.68033 0
M  V30 1588 O 147.186 -0.00609226 -1.94499 0
M  V30 1589 C 147.469 -3.41858 -1.13161 0
M  V30 1590 C 147.322 -4.4979 -0.0299747 0
M  V30 1591 C 148.641 -3.90435 -2.03098 0
M  V30 1592 H 145.76 -0.70734 -0.206975 0
M  V30 1593 H 148.402 -1.89309 0.161942 0
M  V30 1594 H 146.552 -3.46433 -1.7583 0
M  V30 1595 H 148.224 -4.57327 0.604112 0
M  V30 1596 H 146.467 -4.291 0.636833 0
M  V30 1597 H 147.138 -5.50069 -0.461287 0
M  V30 1598 H 149.614 -3.87992 -1.50338 0
M  V30 1599 H 148.49 -4.94097 -2.39081 0
M  V30 1600 H 148.751 -3.29541 -2.94712 0
M  V30 1601 N 147.81 0.181792 -1.56548 0
M  V30 1602 C 148.72 1.24538 -1.98815 0
M  V30 1603 C 149.736 1.49045 -0.897861 0
M  V30 1604 O 150.912 1.61399 -1.20467 0
M  V30 1605 C 147.977 2.56683 -2.33055 0
M  V30 1606 C 147.038 2.40131 -3.55859 0
M  V30 1607 C 146.271 3.65975 -3.88456 0
M  V30 1608 O 146.494 4.70711 -3.22161 0
M  V30 1609 O 145.428 3.6071 -4.81842 0
M  V30 1610 H 149.254 0.916647 -2.89536 0
M  V30 1611 H 146.839 0.387842 -1.44278 0
M  V30 1612 H 148.721 3.34655 -2.56094 0
M  V30 1613 H 147.396 2.89157 -1.45498 0
M  V30 1614 H 146.303 1.60226 -3.38051 0
M  V30 1615 H 147.636 2.12585 -4.43924 0
M  V30 1616 N 149.288 1.51039 0.449983 0
M  V30 1617 C 150.535 1.63081 1.20045 0
M  V30 1618 C 150.863 0.341024 1.91487 0
M  V30 1619 O 150.118 -0.674276 1.83717 0
M  V30 1620 C 150.417 2.77556 2.25161 0
M  V30 1621 C 150.083 4.17289 1.70823 0
M  V30 1622 C 148.745 4.55305 1.55725 0
M  V30 1623 C 151.097 5.04536 1.3074 0
M  V30 1624 C 148.425 5.78287 0.989999 0
M  V30 1625 C 150.777 6.28085 0.754482 0
M  V30 1626 C 149.441 6.64885 0.590308 0
M  V30 1627 H 148.711 0.596755 0.439277 0
M  V30 1628 H 151.358 1.85037 0.49333 0
M  V30 1629 H 149.663 2.49771 3.01863 0
M  V30 1630 H 151.36 2.84073 2.83026 0
M  V30 1631 H 147.95 3.8731 1.83546 0
M  V30 1632 H 152.134 4.75782 1.41229 0
M  V30 1633 H 147.39 6.05456 0.850451 0
M  V30 1634 H 151.564 6.95038 0.435324 0
M  V30 1635 H 149.191 7.60055 0.14862 0
M  V30 1636 N 150.766 -0.704594 1.40972 0
M  V30 1637 C 151.716 -1.81051 1.38581 0
M  V30 1638 C 152.7 -1.58759 0.261585 0
M  V30 1639 O 153.892 -1.69745 0.501556 0
M  V30 1640 C 151.021 -3.19279 1.26157 0
M  V30 1641 C 150.107 -3.47296 2.43405 0
M  V30 1642 N 150.498 -3.46064 3.68881 0
M  V30 1643 C 148.796 -3.77804 2.37023 0
M  V30 1644 C 149.497 -3.72733 4.46592 0
M  V30 1645 N 148.473 -3.9203 3.76581 0
M  V30 1646 H 152.275 -1.78448 2.33525 0
M  V30 1647 H 149.789 -0.904198 1.349 0
M  V30 1648 H 151.786 -3.98488 1.22526 0
M  V30 1649 H 150.446 -3.231 0.321902 0
M  V30 1650 H 151.457 -3.26656 4.01891 0
M  V30 1651 H 148.134 -3.8905 1.51481 0
M  V30 1652 H 149.524 -3.77993 5.55492 0
M  V30 1653 N 152.244 -1.26651 -0.937939 0
M  V30 1654 C 153.154 -1.10276 -2.07066 0
M  V30 1655 C 154.17 -0.0354197 -1.73964 0
M  V30 1656 O 155.346 -0.239816 -1.99967 0
M  V30 1657 C 152.411 -0.740887 -3.38691 0
M  V30 1658 C 151.472 -1.88799 -3.85556 0
M  V30 1659 C 150.705 -1.54329 -5.10899 0
M  V30 1660 O 150.928 -0.446494 -5.6865 0
M  V30 1661 O 149.862 -2.37911 -5.52885 0
M  V30 1662 H 153.688 -2.05309 -2.23789 0
M  V30 1663 H 151.273 -1.05743 -1.0554 0
M  V30 1664 H 153.155 -0.55195 -4.1777 0
M  V30 1665 H 151.83 0.180022 -3.23199 0
M  V30 1666 H 150.737 -2.13191 -3.07409 0
M  V30 1667 H 152.07 -2.78874 -4.05574 0
M  V30 1668 N 153.722 1.14298 -1.08507 0
M  V30 1669 C 154.669 2.19414 -0.715965 0
M  V30 1670 C 155.639 1.63399 0.298326 0
M  V30 1671 O 156.824 1.89929 0.182101 0
M  V30 1672 C 153.964 3.44845 -0.132534 0
M  V30 1673 C 153.077 4.15007 -1.19973 0
M  V30 1674 C 152.212 5.28024 -0.580048 0
M  V30 1675 C 151.251 5.9002 -1.62921 0
M  V30 1676 N 150.388 6.94485 -1.03125 0
M  V30 1677 H 155.228 2.50336 -1.61666 0
M  V30 1678 H 152.765 1.2293 -0.807882 0
M  V30 1679 H 154.723 4.16601 0.223454 0
M  V30 1680 H 153.353 3.14403 0.731467 0
M  V30 1681 H 152.405 3.41629 -1.67313 0
M  V30 1682 H 153.717 4.57178 -1.99473 0
M  V30 1683 H 152.871 6.06455 -0.172364 0
M  V30 1684 H 151.61 4.87076 0.246603 0
M  V30 1685 H 150.615 5.10291 -2.04654 0
M  V30 1686 H 151.84 6.33042 -2.45835 0
M  V30 1687 H 149.786 6.55612 -0.225711 0
M  V30 1688 H 149.703 7.35148 -1.76334 0
M  V30 1689 H 150.971 7.7679 -0.649458 0
M  V30 1690 N 155.201 0.870884 1.31352 0
M  V30 1691 C 156.426 0.495957 2.01383 0
M  V30 1692 C 156.851 -0.904324 1.64935 0
M  V30 1693 O 156.209 -1.59687 0.858466 0
M  V30 1694 C 156.257 0.661433 3.54482 0
M  V30 1695 O 155.361 -0.298851 4.11316 0
M  V30 1696 H 154.702 0.197158 0.634054 0
M  V30 1697 H 157.232 1.17455 1.67527 0
M  V30 1698 H 157.242 0.555072 4.04207 0
M  V30 1699 H 155.917 1.68246 3.8035 0
M  V30 1700 H 154.494 -0.147368 3.72609 0
M  V30 1701 N 156.679 -1.44442 0.630414 0
M  V30 1702 C 158.09 -1.85434 0.217063 0
M  V30 1703 C 158.441 -1.52748 -1.23136 0
M  V30 1704 O 157.566 -0.965205 -1.93682 0
M  V30 1705 C 158.161 -3.36581 0.387168 0
M  V30 1706 C 156.72 -3.76389 0.0283297 0
M  V30 1707 C 155.867 -2.68296 0.700889 0
M  V30 1708 H 158.818 -1.34919 0.83562 0
M  V30 1709 H 158.839 -3.78657 -0.374086 0
M  V30 1710 H 158.351 -3.60339 1.44144 0
M  V30 1711 H 156.452 -3.58246 -1.02423 0
M  V30 1712 H 156.565 -4.77095 0.437892 0
M  V30 1713 H 154.929 -2.54335 0.136267 0
M  V30 1714 H 155.712 -2.94887 1.75774 0
M  V30 1715 N 158.157 -0.370918 -1.53173 0
M  V30 1716 C 159.434 0.273754 -1.93675 0
M  V30 1717 C 159.814 1.65938 -1.3049 0
M  V30 1718 O 159.162 2.23698 -0.465999 0
M  V30 1719 C 159.372 0.318602 -3.47543 0
M  V30 1720 C 160.72 0.556392 -4.20939 0
M  V30 1721 O 161.744 0.399587 -3.53952 0
M  V30 1722 O 160.603 0.862133 -5.39657 0
M  V30 1723 H 157.697 0.165448 -0.810281 0
M  V30 1724 H 160.243 -0.42409 -1.64315 0
M  V30 1725 H 159.015 -0.652687 -3.85818 0
M  V30 1726 H 158.638 1.06212 -3.83151 0
M  V30 1727 N 159.635 1.57281 -0.100228 0
M  V30 1728 C 160.912 1.86014 0.604812 0
M  V30 1729 C 161.292 0.998025 1.86018 0
M  V30 1730 O 160.64 0.0718184 2.28387 0
M  V30 1731 C 160.85 3.36784 0.915278 0
M  V30 1732 C 162.198 4.04957 1.27651 0
M  V30 1733 O 163.222 3.41695 1.00613 0
M  V30 1734 O 162.081 5.16593 1.7831 0
M  V30 1735 H 159.175 0.76942 0.303185 0
M  V30 1736 H 161.721 1.69176 -0.133313 0
M  V30 1737 H 160.493 3.91292 0.0248896 0
M  V30 1738 H 160.116 3.58987 1.70921 0
M  V30 1739 N 161.113 -0.173488 1.56642 0
M  V30 1740 C 162.045 -1.23935 1.92802 0
M  V30 1741 C 163.058 -1.40589 0.820889 0
M  V30 1742 O 164.247 -1.40631 1.09933 0
M  V30 1743 C 161.347 -2.60837 2.16373 0
M  V30 1744 C 160.52 -2.6551 3.47596 0
M  V30 1745 C 159.579 -3.8376 3.60021 0
M  V30 1746 O 158.605 -3.69859 4.32658 0
M  V30 1747 N 159.807 -5.00127 2.94709 0
M  V30 1748 H 162.572 -0.932236 2.84832 0
M  V30 1749 H 160.133 -0.363268 1.57772 0
M  V30 1750 H 162.125 -3.38407 2.21952 0
M  V30 1751 H 160.695 -2.83948 1.30738 0
M  V30 1752 H 159.915 -1.74052 3.53694 0
M  V30 1753 H 161.203 -2.65641 4.33949 0
M  V30 1754 H 160.601 -5.14322 2.35563 0
M  V30 1755 H 159.158 -5.75567 3.05886 0
M  V30 1756 N 162.591 -1.51276 -0.441967 0
M  V30 1757 C 163.538 -1.72256 -1.53612 0
M  V30 1758 C 164.508 -0.564164 -1.56225 0
M  V30 1759 O 165.693 -0.798074 -1.73307 0
M  V30 1760 C 162.833 -1.84932 -2.91366 0
M  V30 1761 C 161.946 -3.12459 -2.98317 0
M  V30 1762 C 161.081 -3.15758 -4.27166 0
M  V30 1763 C 160.12 -4.37619 -4.27967 0
M  V30 1764 N 159.257 -4.38493 -5.48333 0
M  V30 1765 H 164.097 -2.65654 -1.35026 0
M  V30 1766 H 161.634 -1.31662 -0.656009 0
M  V30 1767 H 163.592 -1.90263 -3.7129 0
M  V30 1768 H 162.222 -0.949461 -3.08521 0
M  V30 1769 H 161.274 -3.1646 -2.11086 0
M  V30 1770 H 162.586 -4.02382 -2.94771 0
M  V30 1771 H 161.74 -3.19979 -5.15459 0
M  V30 1772 H 160.479 -2.23715 -4.33362 0
M  V30 1773 H 159.484 -4.33579 -3.38067 0
M  V30 1774 H 160.709 -5.30921 -4.23438 0
M  V30 1775 H 158.655 -3.49318 -5.55259 0
M  V30 1776 H 158.572 -5.22219 -5.46647 0
M  V30 1777 H 159.84 -4.469 -6.38671 0
M  V30 1778 N 164.069 0.697108 -1.41344 0
M  V30 1779 C 165.032 1.79281 -1.42797 0
M  V30 1780 C 166.032 1.57607 -0.318837 0
M  V30 1781 O 167.222 1.64309 -0.578642 0
M  V30 1782 C 164.354 3.17632 -1.23785 0
M  V30 1783 H 165.547 1.79385 -2.40335 0
M  V30 1784 H 163.1 0.904582 -1.27464 0
M  V30 1785 H 163.835 3.23167 -0.270814 0
M  V30 1786 H 163.62 3.34765 -2.04144 0
M  V30 1787 H 165.11 3.97617 -1.27633 0
M  V30 1788 N 165.547 1.27147 0.931209 0
M  V30 1789 C 166.477 1.12081 2.04842 0
M  V30 1790 C 167.458 0.0232364 1.70084 0
M  V30 1791 O 168.643 0.197085 1.93197 0
M  V30 1792 C 165.773 0.76354 3.38803 0
M  V30 1793 C 164.727 1.81396 3.87659 0
M  V30 1794 C 164.053 1.31075 5.18385 0
M  V30 1795 C 165.353 3.21739 4.11438 0
M  V30 1796 H 167.047 2.05537 2.17703 0
M  V30 1797 H 164.593 0.989603 1.04608 0
M  V30 1798 H 166.546 0.644982 4.16435 0
M  V30 1799 H 165.27 -0.206727 3.25945 0
M  V30 1800 H 163.929 1.92136 3.12217 0
M  V30 1801 H 163.577 0.330037 5.01916 0
M  V30 1802 H 163.277 2.013 5.52044 0
M  V30 1803 H 164.801 1.20506 5.98591 0
M  V30 1804 H 166.215 3.14019 4.79651 0
M  V30 1805 H 164.612 3.89644 4.56397 0
M  V30 1806 H 165.682 3.67054 3.16859 0
M  V30 1807 N 167.025 -1.13721 1.09112 0
M  V30 1808 C 168.25 -1.89314 0.847053 0
M  V30 1809 C 168.675 -1.78416 -0.595774 0
M  V30 1810 O 168.033 -1.12942 -1.41823 0
M  V30 1811 C 168.081 -3.3701 1.28284 0
M  V30 1812 O 167.185 -4.10054 0.439267 0
M  V30 1813 H 166.526 -0.588745 0.307044 0
M  V30 1814 H 169.056 -1.43902 1.45442 0
M  V30 1815 H 169.066 -3.87834 1.26683 0
M  V30 1816 H 167.741 -3.4426 2.33363 0
M  V30 1817 H 166.318 -3.69266 0.519312 0
M  V30 1818 N 168.503 -0.877838 -1.30888 0
M  V30 1819 C 169.78 -0.413052 -1.91189 0
M  V30 1820 C 170.16 1.1056 -1.79832 0
M  V30 1821 O 169.508 1.93771 -1.21099 0
M  V30 1822 C 169.718 -0.903191 -3.3711 0
M  V30 1823 C 171.066 -0.93395 -4.14201 0
M  V30 1824 O 172.09 -0.849373 -3.45925 0
M  V30 1825 O 170.949 -1.05772 -5.36167 0
M  V30 1826 H 168.043 -0.125035 -0.817493 0
M  V30 1827 H 170.589 -0.966269 -1.39504 0
M  V30 1828 H 169.361 -1.94692 -3.39427 0
M  V30 1829 H 168.984 -0.328732 -3.96239 0
M  V30 1830 N 169.982 1.44106 -0.638065 0
M  V30 1831 C 171.229 2.01978 -0.14533 0
M  V30 1832 C 171.557 1.50234 1.23532 0
M  V30 1833 O 170.812 0.679548 1.83523 0
M  V30 1834 C 171.111 3.5729 -0.0887327 0
M  V30 1835 C 170.777 4.28317 -1.40909 0
M  V30 1836 C 169.439 4.47437 -1.77069 0
M  V30 1837 C 171.791 4.6867 -2.28031 0
M  V30 1838 C 169.119 5.04171 -3.00047 0
M  V30 1839 C 171.471 5.26766 -3.50286 0
M  V30 1840 C 170.135 5.44104 -3.86661 0
M  V30 1841 H 169.405 0.739089 -0.0531801 0
M  V30 1842 H 172.052 1.72781 -0.825761 0
M  V30 1843 H 170.357 3.8594 0.675095 0
M  V30 1844 H 172.054 3.99807 0.309145 0
M  V30 1845 H 168.644 4.1377 -1.1177 0
M  V30 1846 H 172.828 4.53604 -2.01388 0
M  V30 1847 H 168.084 5.15782 -3.28298 0
M  V30 1848 H 172.258 5.56983 -4.18023 0
M  V30 1849 H 169.885 5.87832 -4.82034 0
M  V30 1850 N 171.46 0.379036 1.52974 0
M  V30 1851 C 172.706 -0.206727 2.01744 0
M  V30 1852 C 173.039 -1.47314 1.26539 0
M  V30 1853 O 172.314 -1.91084 0.362903 0
M  V30 1854 C 172.597 -0.485066 3.56818 0
M  V30 1855 C 172.45 0.795919 4.42702 0
M  V30 1856 C 173.769 -1.28003 4.21074 0
M  V30 1857 H 170.888 -0.0736607 0.73331 0
M  V30 1858 H 173.53 0.506581 1.83122 0
M  V30 1859 H 171.68 -1.09272 3.72816 0
M  V30 1860 H 173.352 1.43307 4.38476 0
M  V30 1861 H 171.595 1.41344 4.10127 0
M  V30 1862 H 172.266 0.555947 5.49193 0
M  V30 1863 H 174.742 -0.765867 4.08991 0
M  V30 1864 H 173.618 -1.44352 5.29579 0
M  V30 1865 H 173.879 -2.29236 3.78026 0
M  V30 1866 N 172.938 -1.57226 0.108567 0
M  V30 1867 C 174.215 -1.86333 -0.594939 0
M  V30 1868 C 174.595 -1.00788 -1.85486 0
M  V30 1869 O 173.943 -0.0839293 -2.28346 0
M  V30 1870 C 174.153 -3.37265 -0.897405 0
M  V30 1871 C 175.501 -4.05629 -1.25501 0
M  V30 1872 O 176.525 -3.42224 -0.987998 0
M  V30 1873 O 175.384 -5.17531 -1.75567 0
M  V30 1874 H 172.478 -0.771018 -0.2991 0
M  V30 1875 H 175.024 -1.69102 0.142283 0
M  V30 1876 H 173.796 -3.913 -0.00413806 0
M  V30 1877 H 173.419 -3.59889 -1.69014 0
M  V30 1878 N 174.416 0.165178 -1.56732 0
M  V30 1879 C 175.644 0.896218 -1.86482 0
M  V30 1880 C 176.059 1.75555 -0.694675 0
M  V30 1881 O 175.416 1.79379 0.33607 0
M  V30 1882 C 175.467 1.76792 -3.1532 0
M  V30 1883 O 175.188 0.943239 -4.27825 0
M  V30 1884 C 176.689 2.6081 -3.58459 0
M  V30 1885 H 173.909 0.260064 -0.618553 0
M  V30 1886 H 176.453 0.163428 -2.03846 0
M  V30 1887 H 174.608 2.45398 -2.99764 0
M  V30 1888 H 175.022 1.53998 -5.01383 0
M  V30 1889 H 176.496 3.17579 -4.51495 0
M  V30 1890 H 176.973 3.35977 -2.82872 0
M  V30 1891 H 177.579 1.97526 -3.76648 0
M  V30 1892 N 175.894 1.51508 0.433938 0
M  V30 1893 C 176.824 1.76016 1.53429 0
M  V30 1894 C 177.805 0.610112 1.58782 0
M  V30 1895 O 178.99 0.853177 1.74455 0
M  V30 1896 C 176.12 1.88831 2.9148 0
M  V30 1897 C 175.074 3.04288 3.00987 0
M  V30 1898 C 174.4 3.0229 4.4105 0
M  V30 1899 C 175.7 4.44193 2.74754 0
M  V30 1900 H 177.394 2.68152 1.33171 0
M  V30 1901 H 174.94 1.29035 0.639214 0
M  V30 1902 H 176.893 2.04559 3.6842 0
M  V30 1903 H 175.617 0.933455 3.12976 0
M  V30 1904 H 174.276 2.8827 2.26486 0
M  V30 1905 H 173.924 2.04576 4.59519 0
M  V30 1906 H 173.624 3.79822 4.4834 0
M  V30 1907 H 175.148 3.20116 5.1996 0
M  V30 1908 H 176.562 4.60544 3.41426 0
M  V30 1909 H 174.959 5.23457 2.9345 0
M  V30 1910 H 176.029 4.53996 1.70339 0
M  V30 1911 N 177.372 -0.689602 1.41712 0
M  V30 1912 C 178.621 -1.44534 1.40686 0
M  V30 1913 C 178.934 -1.95588 0.0213352 0
M  V30 1914 O 180.14 -2.71271 -0.111534 0
M  V30 1915 C 178.596 -2.61387 2.47396 0
M  V30 1916 C 178.204 -2.17094 3.91885 0
M  V30 1917 C 179.948 -3.38986 2.55517 0
M  V30 1918 C 177.855 -3.3094 4.90135 0
M  V30 1919 H 176.785 -0.542925 0.52321 0
M  V30 1920 H 179.436 -0.748054 1.6756 0
M  V30 1921 H 177.818 -3.33412 2.13664 0
M  V30 1922 H 178.992 -1.52318 4.34897 0
M  V30 1923 H 177.307 -1.52473 3.8748 0
M  V30 1924 H 179.904 -4.23747 3.26102 0
M  V30 1925 H 180.247 -3.84578 1.59391 0
M  V30 1926 H 180.78 -2.74021 2.8837 0
M  V30 1927 H 177.519 -2.90355 5.87685 0
M  V30 1928 H 177.039 -3.94546 4.51767 0
M  V30 1929 H 178.718 -3.9663 5.11169 0
M  V30 1930 N 178.85 -1.27639 -0.924453 0
M  V30 1931 C 179.797 -1.10644 -2.0255 0
M  V30 1932 C 180.767 -0.00658438 -1.66099 0
M  V30 1933 O 181.952 -0.16952 -1.90045 0
M  V30 1934 C 179.092 -0.76309 -3.36557 0
M  V30 1935 C 178.205 -1.94091 -3.85944 0
M  V30 1936 C 177.34 -1.53914 -5.08413 0
M  V30 1937 C 176.379 -2.68425 -5.50104 0
M  V30 1938 N 175.516 -2.28815 -6.63768 0
M  V30 1939 H 180.356 -2.04858 -2.16419 0
M  V30 1940 H 177.893 -1.01974 -1.06017 0
M  V30 1941 H 179.851 -0.544822 -4.13627 0
M  V30 1942 H 178.481 0.142102 -3.22487 0
M  V30 1943 H 177.533 -2.27162 -3.05125 0
M  V30 1944 H 178.845 -2.7998 -4.12811 0
M  V30 1945 H 177.999 -1.28231 -5.92994 0
M  V30 1946 H 176.738 -0.651391 -4.8333 0
M  V30 1947 H 175.743 -2.94819 -4.64071 0
M  V30 1948 H 176.968 -3.57826 -5.7718 0
M  V30 1949 H 174.914 -1.42495 -6.40337 0
M  V30 1950 H 174.831 -3.08242 -6.90306 0
M  V30 1951 H 176.099 -2.06387 -7.51681 0
M  V30 1952 N 180.328 1.1314 -1.09713 0
M  V30 1953 C 181.574 1.84757 -0.836224 0
M  V30 1954 C 181.907 1.8347 0.636598 0
M  V30 1955 O 181.182 1.27491 1.46889 0
M  V30 1956 C 181.465 3.32782 -1.37578 0
M  V30 1957 C 181.318 3.42567 -2.91493 0
M  V30 1958 C 182.637 4.28307 -1.01198 0
M  V30 1959 H 179.756 0.67082 -0.305236 0
M  V30 1960 H 182.398 1.3278 -1.35903 0
M  V30 1961 H 180.548 3.77177 -0.931097 0
M  V30 1962 H 182.22 3.06862 -3.44432 0
M  V30 1963 H 180.463 2.83349 -3.28475 0
M  V30 1964 H 181.134 4.46674 -3.24324 0
M  V30 1965 H 183.61 3.91999 -1.39556 0
M  V30 1966 H 182.486 5.30307 -1.41653 0
M  V30 1967 H 182.747 4.42029 0.0794833 0
M  V30 1968 N 181.806 0.884767 1.30421 0
M  V30 1969 C 183.222 0.57874 1.48737 0
M  V30 1970 C 183.422 -0.883567 1.81095 0
M  V30 1971 O 182.478 -1.6648 1.89844 0
M  V30 1972 C 183.791 1.49171 2.61091 0
M  V30 1973 C 185.339 1.49532 2.74971 0
M  V30 1974 C 185.814 2.39421 3.90438 0
M  V30 1975 N 187.305 2.37383 3.97748 0
M  V30 1976 C 188.04 3.03647 4.86401 0
M  V30 1977 N 187.536 3.79136 5.79852 0
M  V30 1978 N 189.329 2.9288 4.79768 0
M  V30 1979 H 181.48 1.83075 1.0769 0
M  V30 1980 H 183.743 0.783637 0.533495 0
M  V30 1981 H 183.449 2.53291 2.44001 0
M  V30 1982 H 183.323 1.20113 3.57565 0
M  V30 1983 H 185.71 0.46163 2.91467 0
M  V30 1984 H 185.791 1.8262 1.79119 0
M  V30 1985 H 185.435 3.42874 3.74699 0
M  V30 1986 H 185.365 2.03649 4.85628 0
M  V30 1987 H 187.856 1.82525 3.30897 0
M  V30 1988 H 188.169 4.26789 6.4426 0
M  V30 1989 H 186.514 3.83243 5.79784 0
M  V30 1990 H 189.705 2.33433 4.05742 0
M  V30 1991 H 189.878 3.448 5.4865 0
M  V30 1992 N 183.284 -1.43765 0.645699 0
M  V30 1993 C 184.232 -2.32516 -0.0624849 0
M  V30 1994 C 185.226 -1.48183 -0.820855 0
M  V30 1995 O 186.432 -1.64439 -0.732106 0
M  V30 1996 H 182.807 -0.750989 -0.0389864 0
M  V30 1997 H 184.778 -2.89979 0.703892 0
M  V30 1998 C 183.527 -3.32389 -1.02044 0
M  V30 1999 H 182.85 -3.97301 -0.446312 0
M  V30 2000 H 184.29 -3.97138 -1.48517 0
M  V30 2001 C 182.749 -2.62416 -2.11281 0
M  V30 2002 O 183.279 -2.434 -3.19561 0
M  V30 2003 N 181.485 -2.21913 -1.87624 0
M  V30 2004 H 181.032 -2.37578 -0.995703 0
M  V30 2005 H 180.99 -1.75424 -2.6091 0
M  V30 2006 N 184.763 -0.387143 -1.52771 0
M  V30 2007 C 186.179 -0.037007 -1.59557 0
M  V30 2008 C 186.379 1.44801 -1.40124 0
M  V30 2009 O 185.435 2.21227 -1.21716 0
M  V30 2010 C 186.748 -0.512256 -2.96305 0
M  V30 2011 C 188.296 -0.468328 -3.09476 0
M  V30 2012 C 188.771 -0.919731 -4.4867 0
M  V30 2013 N 190.262 -0.875656 -4.54848 0
M  V30 2014 C 190.997 -1.19637 -5.6078 0
M  V30 2015 N 190.493 -1.58745 -6.74368 0
M  V30 2016 N 192.286 -1.11776 -5.50874 0
M  V30 2017 H 184.437 -1.35395 -1.63652 0
M  V30 2018 H 186.7 -0.554818 -0.768688 0
M  V30 2019 H 186.406 -1.54935 -3.15734 0
M  V30 2020 H 186.28 0.089805 -3.77093 0
M  V30 2021 H 188.667 0.559671 -2.89744 0
M  V30 2022 H 188.748 -1.10616 -2.30646 0
M  V30 2023 H 188.392 -1.94595 -4.69143 0
M  V30 2024 H 188.322 -0.258927 -5.25963 0
M  V30 2025 H 190.813 -0.587843 -3.733 0
M  V30 2026 H 191.126 -1.81586 -7.51163 0
M  V30 2027 H 189.471 -1.6263 -6.75705 0
M  V30 2028 H 192.662 -0.811264 -4.61016 0
M  V30 2029 H 192.835 -1.37103 -6.3333 0
M  V30 2030 N 186.241 1.57166 -0.116904 0
M  V30 2031 C 187.191 2.11756 0.845178 0
M  V30 2032 C 188.175 1.03783 1.22955 0
M  V30 2033 O 189.367 1.3002 1.20099 0
M  V30 2034 C 186.496 2.71886 2.09602 0
M  V30 2035 C 185.582 3.86937 1.7361 0
M  V30 2036 N 185.973 4.94073 1.08284 0
M  V30 2037 C 184.271 3.97082 2.03082 0
M  V30 2038 C 184.972 5.74477 0.913855 0
M  V30 2039 N 183.948 5.2423 1.43818 0
M  V30 2040 H 187.75 2.91967 0.336523 0
M  V30 2041 H 185.264 1.62174 0.0856332 0
M  V30 2042 H 187.261 3.09338 2.79492 0
M  V30 2043 H 185.921 1.93138 2.61013 0
M  V30 2044 H 186.932 5.12483 0.747067 0
M  V30 2045 H 183.609 3.29372 2.56554 0
M  V30 2046 H 184.999 6.70701 0.40125 0
M  V30 2047 N 187.719 -0.156864 1.56817 0
M  V30 2048 C 188.669 -1.19891 1.93934 0
M  V30 2049 C 189.653 -1.39061 0.809372 0
M  V30 2050 O 190.845 -1.40789 1.07273 0
M  V30 2051 C 187.974 -2.53493 2.31508 0
M  V30 2052 C 187.06 -2.37957 3.51052 0
M  V30 2053 N 187.451 -1.92158 4.67877 0
M  V30 2054 C 185.749 -2.68739 3.55943 0
M  V30 2055 C 186.45 -1.8943 5.49992 0
M  V30 2056 N 185.426 -2.32375 4.91429 0
M  V30 2057 H 189.228 -0.836746 2.81737 0
M  V30 2058 H 186.742 -0.365012 1.58245 0
M  V30 2059 H 188.739 -3.28811 2.56299 0
M  V30 2060 H 187.399 -2.905 1.45051 0
M  V30 2061 H 188.41 -1.62274 4.91821 0
M  V30 2062 H 185.087 -3.09687 2.80001 0
M  V30 2063 H 186.477 -1.55596 6.53636 0
M  V30 2064 N 189.197 -1.51736 -0.425897 0
M  V30 2065 C 190.145 -1.74464 -1.53834 0
M  V30 2066 C 191.139 -0.611241 -1.57988 0
M  V30 2067 O 192.345 -0.792899 -1.61596 0
M  V30 2068 H 188.72 -0.551437 -0.511293 0
M  V30 2069 H 190.691 -2.67694 -1.31843 0
M  V30 2070 C 189.44 -1.8972 -2.91379 0
M  V30 2071 H 188.763 -2.76344 -2.88919 0
M  V30 2072 H 190.203 -2.09629 -3.68553 0
M  V30 2073 C 188.662 -0.65992 -3.30374 0
M  V30 2074 O 189.192 0.180083 -4.01296 0
M  V30 2075 N 187.398 -0.500677 -2.86254 0
M  V30 2076 H 186.945 -1.18532 -2.28709 0
M  V30 2077 H 186.903 0.325903 -3.12706 0
M  V30 2078 N 190.675 0.682077 -1.42076 0
M  V30 2079 C 191.921 1.44428 -1.42367 0
M  V30 2080 C 192.254 1.94164 -0.0373056 0
M  V30 2081 O 191.529 1.70429 0.937239 0
M  V30 2082 C 191.812 2.64654 -2.44194 0
M  V30 2083 C 191.665 2.20596 -3.91991 0
M  V30 2084 C 192.984 3.66865 -2.431 0
M  V30 2085 H 190.103 0.523834 -0.518428 0
M  V30 2086 H 192.745 0.77576 -1.73442 0
M  V30 2087 H 190.895 3.2169 -2.17826 0
M  V30 2088 H 192.567 1.68783 -4.29313 0
M  V30 2089 H 190.81 1.52242 -4.06208 0
M  V30 2090 H 191.481 3.06921 -4.58807 0
M  V30 2091 H 193.957 3.19531 -2.66532 0
M  V30 2092 H 192.833 4.48577 -3.16339 0
M  V30 2093 H 193.094 4.17493 -1.45437 0
M  V30 2094 N 192.153 1.28127 0.917671 0
M  V30 2095 C 193.399 1.15223 1.66888 0
M  V30 2096 C 193.732 -0.299293 1.9188 0
M  V30 2097 O 193.007 -1.21805 1.51637 0
M  V30 2098 C 193.29 1.94706 3.02922 0
M  V30 2099 C 193.143 3.47898 2.85109 0
M  V30 2100 C 194.462 1.75939 4.03402 0
M  V30 2101 H 191.581 0.419946 0.605652 0
M  V30 2102 H 194.223 1.57398 1.06423 0
M  V30 2103 H 192.373 1.58864 3.54534 0
M  V30 2104 H 194.045 3.93624 2.40537 0
M  V30 2105 H 192.288 3.7373 2.20246 0
M  V30 2106 H 192.959 3.98765 3.81694 0
M  V30 2107 H 195.435 2.07209 3.60837 0
M  V30 2108 H 194.311 2.33931 4.96556 0
M  V30 2109 H 194.572 0.709877 4.36364 0
M  V30 2110 N 193.631 -1.12557 1.10312 0
M  V30 2111 C 195.042 -1.65574 0.862678 0
M  V30 2112 C 195.393 -1.86566 -0.607256 0
M  V30 2113 O 194.518 -1.59121 -1.46662 0
M  V30 2114 C 195.113 -3.00776 1.55947 0
M  V30 2115 C 193.672 -3.50748 1.36576 0
M  V30 2116 C 192.819 -2.25797 1.60968 0
M  V30 2117 H 195.77 -0.963552 1.26101 0
M  V30 2118 H 195.791 -3.67185 0.997753 0
M  V30 2119 H 195.303 -2.85465 2.62928 0
M  V30 2120 H 193.404 -3.71245 0.317531 0
M  V30 2121 H 193.517 -4.30289 2.10686 0
M  V30 2122 H 191.881 -2.32841 1.03234 0
M  V30 2123 H 192.664 -2.13043 2.69198 0
M  V30 2124 N 195.109 -0.891671 -1.2995 0
M  V30 2125 C 196.337 -0.52866 -2.00032 0
M  V30 2126 C 196.752 0.884574 -1.66795 0
M  V30 2127 O 196.109 1.5827 -0.908669 0
M  V30 2128 C 196.16 -0.701814 -3.54622 0
M  V30 2129 O 195.881 -2.05942 -3.86678 0
M  V30 2130 C 197.382 -0.342683 -4.41973 0
M  V30 2131 H 194.602 -0.203659 -0.639347 0
M  V30 2132 H 197.146 -1.19881 -1.65677 0
M  V30 2133 H 195.301 -0.0789468 -3.8732 0
M  V30 2134 H 195.715 -2.08291 -4.81368 0
M  V30 2135 H 197.189 -0.514709 -5.49595 0
M  V30 2136 H 197.666 0.71975 -4.33262 0
M  V30 2137 H 198.272 -0.942154 -4.14733 0
M  V30 2138 N 196.587 1.43421 -0.653314 0
M  V30 2139 C 197.52 2.2803 0.0879804 0
M  V30 2140 C 198.498 1.39833 0.82979 0
M  V30 2141 O 199.682 1.69275 0.829341 0
M  V30 2142 C 196.809 3.19247 1.13132 0
M  V30 2143 C 195.855 4.23704 0.487546 0
M  V30 2144 S 196.688 5.30377 -0.738961 0
M  V30 2145 C 197.844 6.25162 0.30384 0
M  V30 2146 H 198.077 2.90554 -0.629739 0
M  V30 2147 H 195.61 1.47934 -0.442156 0
M  V30 2148 H 197.568 3.72346 1.72827 0
M  V30 2149 H 196.229 2.55901 1.82136 0
M  V30 2150 H 195.422 4.87631 1.27407 0
M  V30 2151 H 195.024 3.73983 -0.0352915 0
M  V30 2152 H 197.316 6.67321 1.17 0
M  V30 2153 H 198.259 7.07463 -0.300402 0
M  V30 2154 H 198.667 5.60864 0.63969 0
M  V30 2155 N 198.065 0.39524 1.52563 0
M  V30 2156 C 199.028 -0.425001 2.25225 0
M  V30 2157 C 200.028 -0.985266 1.27079 0
M  V30 2158 O 201.218 -0.866332 1.5113 0
M  V30 2159 C 198.35 -1.59686 3.01186 0
M  V30 2160 H 199.543 0.211233 2.99155 0
M  V30 2161 H 197.096 0.147472 1.55603 0
M  V30 2162 H 197.831 -2.27035 2.31572 0
M  V30 2163 H 197.616 -1.20176 3.73229 0
M  V30 2164 H 199.106 -2.17743 3.5634 0
M  V30 2165 N 199.544 -1.57102 0.125237 0
M  V30 2166 C 200.476 -2.12726 -0.853237 0
M  V30 2167 C 201.489 -1.07145 -1.22571 0
M  V30 2168 O 202.678 -1.34497 -1.17358 0
M  V30 2169 C 199.778 -2.61709 -2.15317 0
M  V30 2170 C 198.951 -3.91456 -1.95143 0
M  V30 2171 C 198.01 -4.25973 -3.08923 0
M  V30 2172 O 197.036 -4.94682 -2.81564 0
M  V30 2173 N 198.238 -3.83795 -4.35524 0
M  V30 2174 H 201.003 -2.97307 -0.377964 0
M  V30 2175 H 198.564 -1.61792 -0.0590011 0
M  V30 2176 H 200.556 -2.81826 -2.90441 0
M  V30 2177 H 199.126 -1.81974 -2.54174 0
M  V30 2178 H 198.346 -3.80185 -1.04177 0
M  V30 2179 H 199.634 -4.76283 -1.78976 0
M  V30 2180 H 199.032 -3.2839 -4.60626 0
M  V30 2181 H 197.589 -4.09008 -5.07499 0
M  V30 2182 N 201.022 0.148545 -1.56898 0
M  V30 2183 C 202.27 0.859717 -1.82902 0
M  V30 2184 C 202.591 1.81775 -0.70588 0
M  V30 2185 O 201.861 1.93994 0.272586 0
M  V30 2186 H 200.441 0.320469 -0.674766 0
M  V30 2187 H 203.103 0.142918 -1.94375 0
M  V30 2188 H 202.199 1.4229 -2.77777 0
M  V30 2189 N 202.5 1.5196 0.417844 0
M  V30 2190 C 203.749 1.6482 1.16264 0
M  V30 2191 C 204.062 0.379886 1.91876 0
M  V30 2192 O 205.268 0.388154 2.68711 0
M  V30 2193 C 203.724 2.91161 2.1155 0
M  V30 2194 C 203.332 4.25068 1.41495 0
M  V30 2195 C 205.076 3.13383 2.86341 0
M  V30 2196 C 202.983 5.42541 2.35379 0
M  V30 2197 H 201.913 0.613954 0.437694 0
M  V30 2198 H 204.564 1.78442 0.427871 0
M  V30 2199 H 202.946 2.71218 2.88543 0
M  V30 2200 H 204.12 4.55463 0.699263 0
M  V30 2201 H 202.435 4.0888 0.787792 0
M  V30 2202 H 205.032 3.98324 3.5671 0
M  V30 2203 H 205.375 2.27256 3.48798 0
M  V30 2204 H 205.908 3.33757 2.1645 0
M  V30 2205 H 202.647 6.30987 1.77582 0
M  V30 2206 H 202.167 5.16497 3.04945 0
M  V30 2207 H 203.846 5.75272 2.96093 0
M  V30 2208 N 203.978 -0.674533 1.42435 0
M  V30 2209 C 205.227 -1.43034 1.42212 0
M  V30 2210 C 205.54 -1.95555 0.0420788 0
M  V30 2211 O 206.746 -2.71374 -0.0827558 0
M  V30 2212 C 205.202 -2.58748 2.50155 0
M  V30 2213 C 204.81 -2.12925 3.94166 0
M  V30 2214 C 206.554 -3.36257 2.59098 0
M  V30 2215 C 204.461 -3.25723 4.93618 0
M  V30 2216 H 203.391 -0.537345 0.528939 0
M  V30 2217 H 206.042 -0.73024 1.68344 0
M  V30 2218 H 204.424 -3.31128 2.17188 0
M  V30 2219 H 205.598 -1.47697 4.36488 0
M  V30 2220 H 203.913 -1.48354 3.89076 0
M  V30 2221 H 206.51 -4.20264 3.30578 0
M  V30 2222 H 206.853 -3.82866 1.63461 0
M  V30 2223 H 207.386 -2.70947 2.9126 0
M  V30 2224 H 204.125 -2.84105 5.90732 0
M  V30 2225 H 203.645 -3.89732 4.55926 0
M  V30 2226 H 205.324 -3.91186 5.15347 0
M  V30 2227 N 205.456 -1.28612 -0.910864 0
M  V30 2228 C 206.366 -1.14643 -2.0468 0
M  V30 2229 C 207.382 -0.0723121 -1.7385 0
M  V30 2230 O 208.558 -0.282178 -1.99413 0
M  V30 2231 C 205.623 -0.812561 -3.37044 0
M  V30 2232 C 204.684 -1.96935 -3.81465 0
M  V30 2233 C 203.917 -1.65131 -5.07511 0
M  V30 2234 O 204.14 -0.567013 -5.67575 0
M  V30 2235 O 203.074 -2.49585 -5.47714 0
M  V30 2236 H 206.9 -2.1001 -2.19384 0
M  V30 2237 H 204.485 -1.07958 -1.03274 0
M  V30 2238 H 206.367 -0.640441 -4.16505 0
M  V30 2239 H 205.042 0.111426 -3.23508 0
M  V30 2240 H 203.949 -2.19664 -3.02818 0
M  V30 2241 H 205.282 -2.87414 -3.99567 0
M  V30 2242 N 206.934 1.1197 -1.10907 0
M  V30 2243 C 208.164 1.8713 -0.875553 0
M  V30 2244 C 208.572 1.8016 0.577843 0
M  V30 2245 O 207.915 1.17699 1.41042 0
M  V30 2246 C 207.977 3.37005 -1.2517 0
M  V30 2247 C 207.641 3.67748 -2.71313 0
M  V30 2248 C 208.638 3.65698 -3.69542 0
M  V30 2249 C 206.323 3.96928 -3.07821 0
M  V30 2250 C 208.317 3.92395 -5.023 0
M  V30 2251 C 206.004 4.23284 -4.40765 0
M  V30 2252 C 207.002 4.21005 -5.37814 0
M  V30 2253 O 206.69 4.46704 -6.68364 0
M  V30 2254 H 206.422 0.598786 -0.313737 0
M  V30 2255 H 208.976 1.42568 -1.47863 0
M  V30 2256 H 207.206 3.82146 -0.591741 0
M  V30 2257 H 208.895 3.93519 -0.994877 0
M  V30 2258 H 209.661 3.43211 -3.42682 0
M  V30 2259 H 205.54 3.97841 -2.32902 0
M  V30 2260 H 209.084 3.90531 -5.78041 0
M  V30 2261 H 204.981 4.45246 -4.67361 0
M  V30 2262 H 205.749 4.64299 -6.74069 0
M  V30 2263 N 208.412 0.89855 1.29475 0
M  V30 2264 C 209.359 0.373819 2.27753 0
M  V30 2265 C 210.329 -0.543444 1.56958 0
M  V30 2266 O 211.514 -0.468934 1.84948 0
M  V30 2267 C 208.654 -0.393648 3.42848 0
M  V30 2268 C 207.767 0.554379 4.28428 0
M  V30 2269 C 206.902 -0.230026 5.30702 0
M  V30 2270 C 205.941 0.712599 6.07938 0
M  V30 2271 N 205.078 -0.0373283 7.0209 0
M  V30 2272 H 209.918 1.21699 2.72017 0
M  V30 2273 H 207.455 0.611456 1.33789 0
M  V30 2274 H 209.413 -0.85466 4.08352 0
M  V30 2275 H 208.043 -1.20128 2.99615 0
M  V30 2276 H 207.095 1.13391 3.63107 0
M  V30 2277 H 208.407 1.27597 4.82204 0
M  V30 2278 H 207.561 -0.752288 6.02018 0
M  V30 2279 H 206.3 -0.984758 4.77654 0
M  V30 2280 H 205.305 1.24637 5.35486 0
M  V30 2281 H 206.53 1.46664 6.63074 0
M  V30 2282 H 204.476 -0.774348 6.51414 0
M  V30 2283 H 204.393 0.624374 7.53417 0
M  V30 2284 H 205.661 -0.539891 7.77628 0
M  V30 2285 N 209.89 -1.43072 0.660911 0
M  V30 2286 C 211.167 -1.95307 0.107017 0
M  V30 2287 C 211.547 -1.60192 -1.37484 0
M  V30 2288 O 210.895 -0.890949 -2.10415 0
M  V30 2289 C 211.105 -3.47124 0.361402 0
M  V30 2290 C 212.453 -4.23738 0.270455 0
M  V30 2291 O 213.477 -3.54981 0.294382 0
M  V30 2292 O 212.336 -5.46131 0.200737 0
M  V30 2293 H 209.43 -0.826984 -0.00517729 0
M  V30 2294 H 211.976 -1.52972 0.734681 0
M  V30 2295 H 210.748 -3.65837 1.38848 0
M  V30 2296 H 210.371 -3.96475 -0.298953 0
M  V30 2297 N 211.368 -0.403325 -1.52352 0
M  V30 2298 C 212.331 0.413051 -2.25447 0
M  V30 2299 C 213.331 0.978513 -1.276 0
M  V30 2300 O 214.521 0.858305 -1.51587 0
M  V30 2301 C 211.653 1.58087 -3.02029 0
M  V30 2302 H 212.846 -0.227094 -2.99039 0
M  V30 2303 H 210.399 -0.155722 -1.55522 0
M  V30 2304 H 211.134 2.25804 -2.32772 0
M  V30 2305 H 210.919 1.18195 -3.73861 0
M  V30 2306 H 212.409 2.1585 -3.57489 0
M  V30 2307 N 212.846 1.57033 -0.133567 0
M  V30 2308 C 214.086 1.97575 0.523789 0
M  V30 2309 C 214.45 1.01605 1.62912 0
M  V30 2310 O 215.651 1.3114 2.3464 0
M  V30 2311 C 213.922 3.42256 1.02935 0
M  V30 2312 S 215.481 4.04817 1.69319 0
M  V30 2313 H 212.299 0.690427 0.169799 0
M  V30 2314 H 214.901 1.94234 -0.222101 0
M  V30 2315 H 213.605 4.09842 0.213917 0
M  V30 2316 H 213.136 3.4928 1.81017 0
M  V30 2317 H 215.151 3.96767 2.97977 0
M  V30 2318 N 214.325 -0.140222 1.56975 0
M  V30 2319 C 215.553 -0.866437 1.87884 0
M  V30 2320 C 215.968 -1.74428 0.722517 0
M  V30 2321 O 215.325 -1.79891 -0.30749 0
M  V30 2322 C 215.376 -1.71753 3.18093 0
M  V30 2323 O 215.097 -0.875056 4.29272 0
M  V30 2324 C 216.598 -2.55074 3.62563 0
M  V30 2325 H 213.818 -0.25019 0.622612 0
M  V30 2326 H 216.362 -0.130977 2.0408 0
M  V30 2327 H 214.517 -2.40598 3.03631 0
M  V30 2328 H 214.931 -1.46002 5.03769 0
M  V30 2329 H 216.405 -3.10356 4.5649 0
M  V30 2330 H 216.882 -3.31434 2.88181 0
M  V30 2331 H 217.488 -1.91509 3.79743 0
M  V30 2332 N 215.803 -1.52179 -0.40978 0
M  V30 2333 C 217.049 -1.66453 -1.15851 0
M  V30 2334 C 217.382 -0.392972 -1.90182 0
M  V30 2335 O 216.657 0.608579 -1.84734 0
M  V30 2336 C 216.94 -2.88612 -2.15349 0
M  V30 2337 C 216.793 -4.25815 -1.44918 0
M  V30 2338 C 218.112 -3.06294 -3.16026 0
M  V30 2339 H 215.231 -0.60575 -0.419805 0
M  V30 2340 H 217.873 -1.84732 -0.444314 0
M  V30 2341 H 216.023 -2.73158 -2.76255 0
M  V30 2342 H 217.695 -4.52995 -0.871365 0
M  V30 2343 H 215.938 -4.27247 -0.751159 0
M  V30 2344 H 216.609 -5.07337 -2.17516 0
M  V30 2345 H 219.085 -3.20641 -2.65195 0
M  V30 2346 H 217.961 -3.93283 -3.8291 0
M  V30 2347 H 218.222 -2.19579 -3.83715 0
M  V30 2348 N 217.281 0.66697 -1.42791 0
M  V30 2349 C 218.558 1.4234 -1.34159 0
M  V30 2350 C 218.938 2.11093 0.0172729 0
M  V30 2351 O 218.286 2.03808 1.03318 0
M  V30 2352 C 218.496 2.41942 -2.51526 0
M  V30 2353 C 219.844 3.06353 -2.93995 0
M  V30 2354 O 220.868 2.52269 -2.51473 0
M  V30 2355 O 219.727 4.04376 -3.67617 0
M  V30 2356 H 216.821 0.635277 -0.529483 0
M  V30 2357 H 219.367 0.695034 -1.54814 0
M  V30 2358 H 218.139 1.89991 -3.42081 0
M  V30 2359 H 217.762 3.22249 -2.32898 0
M  V30 2360 N 218.759 1.29093 0.90403 0
M  V30 2361 C 220.17 1.15186 1.46932 0
M  V30 2362 C 220.521 -0.254587 1.94541 0
M  V30 2363 O 219.646 -1.14972 1.83332 0
M  V30 2364 C 220.241 2.08492 2.67051 0
M  V30 2365 C 218.8 1.98621 3.19729 0
M  V30 2366 C 217.947 1.9967 1.92425 0
M  V30 2367 H 220.898 1.41641 0.715789 0
M  V30 2368 H 220.919 1.65461 3.42641 0
M  V30 2369 H 220.431 3.10847 2.3237 0
M  V30 2370 H 218.532 0.993389 3.59114 0
M  V30 2371 H 218.645 2.86068 3.8432 0
M  V30 2372 H 217.009 1.44208 2.09943 0
M  V30 2373 H 217.792 3.03721 1.60026 0
M  V30 2374 N 220.237 -1.11381 1.11499 0
M  V30 2375 C 221.483 -1.83403 0.865512 0
M  V30 2376 C 221.816 -1.84459 -0.607329 0
M  V30 2377 O 221.091 -1.29811 -1.44842 0
M  V30 2378 C 221.374 -3.30552 1.42855 0
M  V30 2379 C 221.227 -3.37886 2.96906 0
M  V30 2380 C 222.546 -4.26643 1.08 0
M  V30 2381 H 219.665 -0.665879 0.31587 0
M  V30 2382 H 222.307 -1.30601 1.37998 0
M  V30 2383 H 220.457 -3.75648 0.990985 0
M  V30 2384 H 222.129 -3.01343 3.49271 0
M  V30 2385 H 220.372 -2.78088 3.32941 0
M  V30 2386 H 221.043 -4.41458 3.31389 0
M  V30 2387 H 223.519 -3.89729 1.45775 0
M  V30 2388 H 222.395 -5.27986 1.50072 0
M  V30 2389 H 222.656 -4.42099 -0.00915037 0
M  V30 2390 N 221.715 -0.905404 -1.28997 0
M  V30 2391 C 222.943 -0.549846 -1.9946 0
M  V30 2392 C 223.358 0.866834 -1.67724 0
M  V30 2393 O 222.715 1.57298 -0.925404 0
M  V30 2394 C 222.766 -0.739387 -3.53858 0
M  V30 2395 O 222.487 -2.10031 -3.84472 0
M  V30 2396 C 223.988 -0.389541 -4.41585 0
M  V30 2397 H 221.208 -0.210429 -0.637151 0
M  V30 2398 H 223.752 -1.21632 -1.64396 0
M  V30 2399 H 221.907 -0.120023 -3.87214 0
M  V30 2400 H 222.321 -2.13385 -4.79132 0
M  V30 2401 H 223.795 -0.572972 -5.49018 0
M  V30 2402 H 224.272 0.673756 -4.34001 0
M  V30 2403 H 224.878 -0.986089 -4.1371 0
M  V30 2404 N 223.193 1.4272 -0.668489 0
M  V30 2405 C 224.141 2.32586 0.0254857 0
M  V30 2406 C 225.135 1.49471 0.797176 0
M  V30 2407 O 226.341 1.65583 0.705853 0
M  V30 2408 H 222.716 0.751514 0.0270339 0
M  V30 2409 H 224.687 2.88823 -0.749936 0
M  V30 2410 C 223.436 3.3397 0.967427 0
M  V30 2411 H 222.759 3.97961 0.383048 0
M  V30 2412 H 224.199 3.9945 1.42181 0
M  V30 2413 C 222.658 2.65744 2.0708 0
M  V30 2414 O 223.188 2.48454 3.15648 0
M  V30 2415 N 221.394 2.2487 1.8407 0
M  V30 2416 H 220.941 2.39132 0.95778 0
M  V30 2417 H 220.899 1.79552 2.58086 0
M  V30 2418 N 224.671 0.411399 1.52136 0
M  V30 2419 C 225.603 -0.448386 2.24771 0
M  V30 2420 C 226.616 -1.00828 1.27818 0
M  V30 2421 O 227.805 -0.906841 1.53749 0
M  V30 2422 C 224.905 -1.63636 2.96777 0
M  V30 2423 C 224.078 -1.19995 4.20618 0
M  V30 2424 C 223.137 -2.25509 4.75428 0
M  V30 2425 O 222.163 -1.86007 5.3795 0
M  V30 2426 N 223.365 -3.577 4.57199 0
M  V30 2427 H 226.13 0.174025 2.99194 0
M  V30 2428 H 223.691 0.238897 1.60128 0
M  V30 2429 H 225.683 -2.33793 3.30338 0
M  V30 2430 H 224.253 -2.16465 2.25526 0
M  V30 2431 H 223.473 -0.326421 3.92846 0
M  V30 2432 H 224.761 -0.885365 5.01038 0
M  V30 2433 H 224.159 -3.92543 4.07341 0
M  V30 2434 H 222.716 -4.23827 4.95191 0
M  V30 2435 N 226.149 -1.5696 0.141893 0
M  V30 2436 C 227.097 -2.17784 -0.816874 0
M  V30 2437 C 228.091 -1.1334 -1.25899 0
M  V30 2438 O 229.297 -1.316 -1.22806 0
M  V30 2439 H 225.672 -0.697278 -0.281615 0
M  V30 2440 H 227.643 -2.97087 -0.279621 0
M  V30 2441 C 226.392 -2.80983 -2.04802 0
M  V30 2442 H 225.715 -3.61062 -1.7168 0
M  V30 2443 H 227.155 -3.2705 -2.69841 0
M  V30 2444 C 225.614 -1.79228 -2.8527 0
M  V30 2445 O 226.144 -1.25962 -3.8144 0
M  V30 2446 N 224.35 -1.48647 -2.49704 0
M  V30 2447 H 223.897 -1.92155 -1.71564 0
M  V30 2448 H 223.855 -0.808115 -3.03837 0
M  V30 2449 N 227.627 0.131896 -1.57047 0
M  V30 2450 C 228.557 1.16384 -2.02428 0
M  V30 2451 C 229.538 1.43936 -0.90644 0
M  V30 2452 O 230.723 1.54599 -1.17528 0
M  V30 2453 C 227.853 2.49328 -2.4177 0
M  V30 2454 C 226.807 2.36266 -3.56879 0
M  V30 2455 C 226.133 3.74057 -3.8208 0
M  V30 2456 C 227.433 1.834 -4.89042 0
M  V30 2457 H 229.127 0.786433 -2.88887 0
M  V30 2458 H 226.673 0.376855 -1.38981 0
M  V30 2459 H 228.626 3.21759 -2.7212 0
M  V30 2460 H 227.35 2.88934 -1.52266 0
M  V30 2461 H 226.009 1.66286 -3.26718 0
M  V30 2462 H 225.657 4.11125 -2.89803 0
M  V30 2463 H 225.357 3.66174 -4.59554 0
M  V30 2464 H 226.881 4.48012 -4.1487 0
M  V30 2465 H 228.295 2.45636 -5.18011 0
M  V30 2466 H 226.692 1.8637 -5.70426 0
M  V30 2467 H 227.762 0.790662 -4.7841 0
M  V30 2468 N 229.106 1.52395 0.401703 0
M  V30 2469 C 230.038 1.72505 1.50912 0
M  V30 2470 C 231.051 0.605468 1.51122 0
M  V30 2471 O 232.24 0.880828 1.55254 0
M  V30 2472 C 229.34 1.75711 2.89791 0
M  V30 2473 C 228.513 3.04824 3.1369 0
M  V30 2474 C 227.572 2.99743 4.32482 0
M  V30 2475 O 226.598 3.73635 4.29402 0
M  V30 2476 N 227.8 2.18047 5.37992 0
M  V30 2477 H 230.565 2.68049 1.34052 0
M  V30 2478 H 228.126 1.50724 0.591084 0
M  V30 2479 H 230.118 1.69834 3.6734 0
M  V30 2480 H 228.688 0.876092 3.00072 0
M  V30 2481 H 227.908 3.2429 2.24119 0
M  V30 2482 H 229.196 3.90221 3.26504 0
M  V30 2483 H 228.594 1.57456 5.43345 0
M  V30 2484 H 227.151 2.18021 6.14256 0
M  V30 2485 N 230.584 -0.659388 1.43143 0
M  V30 2486 C 231.814 -1.44513 1.47646 0
M  V30 2487 C 232.222 -1.88981 0.0910095 0
M  V30 2488 O 231.565 -1.59702 -0.907789 0
M  V30 2489 C 231.627 -2.71663 2.35456 0
M  V30 2490 C 231.291 -2.49175 3.83094 0
M  V30 2491 C 232.288 -2.1279 4.74359 0
M  V30 2492 C 229.973 -2.63691 4.27519 0
M  V30 2493 C 231.967 -1.9121 6.08044 0
M  V30 2494 C 229.654 -2.41726 5.61259 0
M  V30 2495 C 230.652 -2.0554 6.51339 0
M  V30 2496 O 230.34 -1.838 7.82606 0
M  V30 2497 H 230.072 -0.45064 0.503884 0
M  V30 2498 H 232.626 -0.816248 1.88485 0
M  V30 2499 H 230.856 -3.37089 1.89493 0
M  V30 2500 H 232.545 -3.33595 2.31235 0
M  V30 2501 H 233.311 -2.01157 4.41317 0
M  V30 2502 H 229.19 -2.90832 3.57684 0
M  V30 2503 H 232.734 -1.62889 6.78316 0
M  V30 2504 H 228.631 -2.52959 5.9387 0
M  V30 2505 H 229.399 -1.98275 7.94122 0
M  V30 2506 N 232.062 -1.29571 -0.897171 0
M  V30 2507 C 233.309 -1.17689 -1.6479 0
M  V30 2508 C 233.637 0.27107 -1.92602 0
M  V30 2509 O 232.892 1.21193 -1.53658 0
M  V30 2510 C 233.191 -1.9382 -3.00281 0
M  V30 2511 C 232.857 -3.43522 -2.92068 0
M  V30 2512 C 231.519 -3.84348 -2.89535 0
M  V30 2513 C 233.871 -4.38906 -2.81089 0
M  V30 2514 C 231.199 -5.18869 -2.73846 0
M  V30 2515 C 233.551 -5.73521 -2.66939 0
M  V30 2516 C 232.215 -6.13601 -2.62774 0
M  V30 2517 H 231.485 -0.430654 -0.603008 0
M  V30 2518 H 234.132 -1.60536 -1.04404 0
M  V30 2519 H 232.437 -1.4357 -3.64547 0
M  V30 2520 H 234.134 -1.82028 -3.57305 0
M  V30 2521 H 230.724 -3.11072 -2.94842 0
M  V30 2522 H 234.908 -4.08315 -2.82121 0
M  V30 2523 H 230.164 -5.4903 -2.69027 0
M  V30 2524 H 234.338 -6.47078 -2.57416 0
M  V30 2525 H 231.965 -7.17786 -2.50375 0
M  V30 2526 N 233.54 1.10788 -1.12088 0
M  V30 2527 C 234.47 2.19083 -0.807755 0
M  V30 2528 C 235.451 1.6858 0.226859 0
M  V30 2529 O 236.636 1.93997 0.0888475 0
M  V30 2530 C 233.766 3.46344 -0.257576 0
M  V30 2531 C 232.72 4.101 -1.22483 0
M  V30 2532 C 232.046 5.32016 -0.535052 0
M  V30 2533 C 233.346 4.54236 -2.57811 0
M  V30 2534 H 235.04 2.45534 -1.71328 0
M  V30 2535 H 232.586 1.1801 -0.825205 0
M  V30 2536 H 234.539 4.21392 -0.0262679 0
M  V30 2537 H 233.263 3.19373 0.683278 0
M  V30 2538 H 231.922 3.37054 -1.44189 0
M  V30 2539 H 231.57 5.01319 0.410827 0
M  V30 2540 H 231.27 5.75625 -1.18024 0
M  V30 2541 H 232.794 6.09799 -0.312695 0
M  V30 2542 H 234.208 5.20575 -2.40155 0
M  V30 2543 H 232.605 5.08682 -3.18375 0
M  V30 2544 H 233.675 3.6734 -3.16528 0
M  V30 2545 N 235.018 0.912232 1.28515 0
M  V30 2546 C 236.295 0.463597 1.90027 0
M  V30 2547 C 236.675 -1.05753 1.82701 0
M  V30 2548 O 236.023 -1.90492 1.26194 0
M  V30 2549 C 236.233 0.992253 3.34597 0
M  V30 2550 C 237.581 1.04344 4.11579 0
M  V30 2551 O 238.605 0.94079 3.43551 0
M  V30 2552 O 237.464 1.1995 5.33174 0
M  V30 2553 H 234.558 0.146666 0.813891 0
M  V30 2554 H 237.104 1.00292 1.36893 0
M  V30 2555 H 235.876 2.03623 3.34146 0
M  V30 2556 H 235.499 0.433672 3.95228 0
M  V30 2557 N 236.496 -1.42363 0.676048 0
M  V30 2558 C 237.912 -1.55811 0.345718 0
M  V30 2559 C 238.112 -1.65544 -1.14879 0
M  V30 2560 O 237.168 -1.62306 -1.93424 0
M  V30 2561 C 238.481 -2.80746 1.07713 0
M  V30 2562 C 240.029 -2.9452 1.05958 0
M  V30 2563 C 240.504 -4.22318 1.77233 0
M  V30 2564 N 241.995 -4.29233 1.74108 0
M  V30 2565 C 242.73 -5.26935 2.26113 0
M  V30 2566 N 242.226 -6.30783 2.86505 0
M  V30 2567 N 244.019 -5.18741 2.1648 0
M  V30 2568 H 236.17 -1.34289 1.6456 0
M  V30 2569 H 238.433 -0.646506 0.69335 0
M  V30 2570 H 238.139 -2.79696 2.13221 0
M  V30 2571 H 238.013 -3.71676 0.64316 0
M  V30 2572 H 240.4 -2.95097 0.0128255 0
M  V30 2573 H 240.481 -2.04817 1.53244 0
M  V30 2574 H 240.125 -4.22502 2.81877 0
M  V30 2575 H 240.055 -5.10958 1.27396 0
M  V30 2576 H 242.546 -3.54814 1.30059 0
M  V30 2577 H 242.859 -7.01691 3.23805 0
M  V30 2578 H 241.204 -6.31341 2.90575 0
M  V30 2579 H 244.395 -4.36533 1.68987 0
M  V30 2580 H 244.568 -5.94721 2.57316 0
M  V30 2581 N 237.974 -0.419461 -1.51915 0
M  V30 2582 C 239.221 0.152939 -2.01922 0
M  V30 2583 C 239.549 1.4426 -1.30458 0
M  V30 2584 O 238.804 1.91514 -0.402593 0
M  V30 2585 C 239.103 0.437067 -3.54717 0
M  V30 2586 C 238.769 -0.764632 -4.44369 0
M  V30 2587 C 237.431 -1.09423 -4.68594 0
M  V30 2588 C 239.783 -1.56713 -4.97082 0
M  V30 2589 C 237.111 -2.22732 -5.42777 0
M  V30 2590 C 239.463 -2.69107 -5.72507 0
M  V30 2591 C 238.127 -3.02541 -5.95 0
M  V30 2592 H 237.397 0.0559644 -0.738884 0
M  V30 2593 H 240.044 -0.562998 -1.83037 0
M  V30 2594 H 238.349 1.23469 -3.71837 0
M  V30 2595 H 240.046 0.893083 -3.90928 0
M  V30 2596 H 236.636 -0.497775 -4.257 0
M  V30 2597 H 240.82 -1.32571 -4.78266 0
M  V30 2598 H 236.076 -2.48971 -5.58411 0
M  V30 2599 H 240.25 -3.31671 -6.12346 0
M  V30 2600 H 237.877 -3.90457 -6.52264 0
M  V30 2601 N 239.452 1.56882 -0.150215 0
M  V30 2602 C 240.682 2.00302 0.506213 0
M  V30 2603 C 241.09 1.02934 1.58749 0
M  V30 2604 O 240.433 0.0188384 1.8369 0
M  V30 2605 C 240.495 3.40156 1.16337 0
M  V30 2606 C 240.159 4.56439 0.226311 0
M  V30 2607 C 241.156 5.17012 -0.547265 0
M  V30 2608 C 238.841 5.02136 0.128279 0
M  V30 2609 C 240.835 6.21693 -1.40629 0
M  V30 2610 C 238.522 6.06672 -0.734345 0
M  V30 2611 C 239.52 6.6632 -1.50023 0
M  V30 2612 O 239.208 7.68831 -2.34848 0
M  V30 2613 H 238.94 0.662182 0.135984 0
M  V30 2614 H 241.494 2.03961 -0.242746 0
M  V30 2615 H 239.724 3.33346 1.96004 0
M  V30 2616 H 241.413 3.67663 1.71985 0
M  V30 2617 H 242.179 4.82603 -0.48158 0
M  V30 2618 H 238.058 4.55435 0.714157 0
M  V30 2619 H 241.602 6.68179 -2.00455 0
M  V30 2620 H 237.499 6.40507 -0.801309 0
M  V30 2621 H 238.267 7.86065 -2.28131 0
M  V30 2622 N 240.93 -0.123565 1.57115 0
M  V30 2623 C 241.863 -1.18202 1.95201 0
M  V30 2624 C 242.841 -1.40349 0.821031 0
M  V30 2625 O 244.025 -1.54578 1.07879 0
M  V30 2626 C 241.152 -2.53671 2.24429 0
M  V30 2627 C 240.198 -2.4798 3.46999 0
M  V30 2628 S 241.031 -1.92389 4.99747 0
M  V30 2629 C 242.187 -3.2954 5.32123 0
M  V30 2630 H 242.42 -0.857212 2.84674 0
M  V30 2631 H 239.953 -0.33014 1.50829 0
M  V30 2632 H 241.911 -3.3162 2.41947 0
M  V30 2633 H 240.572 -2.83332 1.35579 0
M  V30 2634 H 239.765 -3.47758 3.64801 0
M  V30 2635 H 239.367 -1.7815 3.28844 0
M  V30 2636 H 241.659 -4.25736 5.27025 0
M  V30 2637 H 242.602 -3.16569 6.33395 0
M  V30 2638 H 243.01 -3.27758 4.59603 0
M  V30 2639 N 242.408 -1.52605 -0.393616 0
M  V30 2640 C 243.356 -1.77688 -1.50099 0
M  V30 2641 C 244.35 -0.644615 -1.56656 0
M  V30 2642 O 245.556 -0.826997 -1.59877 0
M  V30 2643 H 241.931 -0.562159 -0.499481 0
M  V30 2644 H 243.902 -2.7043 -1.26135 0
M  V30 2645 C 242.651 -1.95858 -2.87289 0
M  V30 2646 H 241.974 -2.8241 -2.82992 0
M  V30 2647 H 243.414 -2.174 -3.64024 0
M  V30 2648 C 241.873 -0.729848 -3.28899 0
M  V30 2649 O 242.403 0.0949217 -4.01588 0
M  V30 2650 N 240.609 -0.561283 -2.85128 0
M  V30 2651 H 240.156 -1.23357 -2.26143 0
M  V30 2652 H 240.114 0.2595 -3.13327 0
M  V30 2653 N 243.887 0.651787 -1.4349 0
M  V30 2654 C 245.303 0.96762 -1.26922 0
M  V30 2655 C 245.503 2.00602 -0.189982 0
M  V30 2656 O 244.559 2.48793 0.431107 0
M  V30 2657 C 245.872 1.45052 -2.63401 0
M  V30 2658 C 247.42 1.5671 -2.70945 0
M  V30 2659 C 247.895 2.0839 -4.07845 0
M  V30 2660 N 249.386 2.1569 -4.09917 0
M  V30 2661 C 250.121 2.56804 -5.12679 0
M  V30 2662 N 249.617 2.97203 -6.25813 0
M  V30 2663 N 251.41 2.56756 -5.00033 0
M  V30 2664 H 243.561 -0.0353158 -2.12371 0
M  V30 2665 H 245.824 0.0467858 -0.946845 0
M  V30 2666 H 245.53 0.761926 -3.43348 0
M  V30 2667 H 245.404 2.42529 -2.88894 0
M  V30 2668 H 247.791 2.2467 -1.9133 0
M  V30 2669 H 247.872 0.57662 -2.49216 0
M  V30 2670 H 247.516 1.41031 -4.87927 0
M  V30 2671 H 247.446 3.08271 -4.26938 0
M  V30 2672 H 249.937 1.87237 -3.28254 0
M  V30 2673 H 250.25 3.27328 -7.00055 0
M  V30 2674 H 248.595 2.95004 -6.29283 0
M  V30 2675 H 251.786 2.24572 -4.10713 0
M  V30 2676 H 251.959 2.88475 -5.80247 0
M  V30 2677 N 245.365 1.30045 0.890287 0
M  V30 2678 C 246.614 1.17929 1.63633 0
M  V30 2679 C 246.927 -0.266204 1.9378 0
M  V30 2680 O 248.133 -0.508804 2.6669 0
M  V30 2681 C 246.589 2.06317 2.94892 0
M  V30 2682 C 246.197 3.55745 2.72305 0
M  V30 2683 C 247.941 2.0295 3.72843 0
M  V30 2684 C 245.848 4.36205 3.99348 0
M  V30 2685 H 244.778 0.437782 0.613892 0
M  V30 2686 H 247.429 1.54754 0.986075 0
M  V30 2687 H 245.811 1.6237 3.61182 0
M  V30 2688 H 246.985 4.07805 2.1455 0
M  V30 2689 H 245.3 3.6088 2.07737 0
M  V30 2690 H 247.897 2.60319 4.67053 0
M  V30 2691 H 248.24 1.0117 4.0382 0
M  V30 2692 H 248.773 2.4499 3.13408 0
M  V30 2693 H 245.512 5.38659 3.73533 0
M  V30 2694 H 245.032 3.8891 4.56628 0
M  V30 2695 H 246.711 4.47362 4.67415 0
M  V30 2696 N 246.843 -1.10192 1.12674 0
M  V30 2697 C 248.068 -1.86523 0.906853 0
M  V30 2698 C 248.493 -1.80221 -0.538711 0
M  V30 2699 O 247.851 -1.17396 -1.38158 0
M  V30 2700 C 247.899 -3.32758 1.3894 0
M  V30 2701 O 247.003 -4.08449 0.5695 0
M  V30 2702 H 246.344 -0.578678 0.325619 0
M  V30 2703 H 248.874 -1.39203 1.49946 0
M  V30 2704 H 248.884 -3.83608 1.38958 0
M  V30 2705 H 247.559 -3.36661 2.44197 0
M  V30 2706 H 246.136 -3.67427 0.636528 0
M  V30 2707 N 248.321 -0.919034 -1.28029 0
M  V30 2708 C 249.549 -0.570971 -1.98866 0
M  V30 2709 C 249.964 0.848996 -1.68634 0
M  V30 2710 O 249.321 1.56307 -0.942036 0
M  V30 2711 C 249.372 -0.776876 -3.53054 0
M  V30 2712 O 249.093 -2.14097 -3.82222 0
M  V30 2713 C 250.594 -0.436356 -4.41147 0
M  V30 2714 H 247.814 -0.217175 -0.634883 0
M  V30 2715 H 250.358 -1.23368 -1.63097 0
M  V30 2716 H 248.513 -0.161085 -3.87065 0
M  V30 2717 H 248.927 -2.18455 -4.76841 0
M  V30 2718 H 250.401 -0.63117 -5.4838 0
M  V30 2719 H 250.878 0.627686 -4.34692 0
M  V30 2720 H 251.484 -1.02991 -4.12641 0
M  V30 2721 N 249.799 1.42003 -0.683588 0
M  V30 2722 C 251.215 1.55625 -0.353976 0
M  V30 2723 C 251.415 1.66151 1.14 0
M  V30 2724 O 250.471 1.63329 1.92561 0
M  V30 2725 C 251.784 2.80171 -1.092 0
M  V30 2726 C 253.332 2.93954 -1.07518 0
M  V30 2727 C 253.807 4.21372 -1.79471 0
M  V30 2728 N 255.298 4.28303 -1.76381 0
M  V30 2729 C 256.033 5.25729 -2.28904 0
M  V30 2730 N 255.529 6.29254 -2.89846 0
M  V30 2731 N 257.322 5.17586 -2.19228 0
M  V30 2732 H 249.473 1.33415 -1.6527 0
M  V30 2733 H 251.736 0.64282 -0.696769 0
M  V30 2734 H 251.442 2.78561 -2.14701 0
M  V30 2735 H 251.316 3.7133 -0.662862 0
M  V30 2736 H 253.703 2.95086 -0.028475 0
M  V30 2737 H 253.784 2.04002 -1.54328 0
M  V30 2738 H 253.428 4.21001 -2.84114 0
M  V30 2739 H 253.358 5.10275 -1.30104 0
M  V30 2740 H 255.849 3.54119 -1.31939 0
M  V30 2741 H 256.162 6.99964 -3.27522 0
M  V30 2742 H 254.507 6.29791 -2.93919 0
M  V30 2743 H 257.698 4.35631 -1.71299 0
M  V30 2744 H 257.871 5.93348 -2.60466 0
M  V30 2745 N 251.277 0.427512 1.51691 0
M  V30 2746 C 252.21 -0.433876 2.24037 0
M  V30 2747 C 253.188 -1.03287 1.25581 0
M  V30 2748 O 254.372 -1.07722 1.54688 0
M  V30 2749 C 251.499 -1.60385 2.98319 0
M  V30 2750 C 250.545 -1.12648 4.11355 0
M  V30 2751 S 251.378 -0.076543 5.35445 0
M  V30 2752 C 252.534 -1.25141 6.13262 0
M  V30 2753 H 252.767 0.180367 2.96752 0
M  V30 2754 H 250.3 0.211946 1.52938 0
M  V30 2755 H 252.258 -2.27462 3.41718 0
M  V30 2756 H 250.919 -2.18948 2.25213 0
M  V30 2757 H 250.112 -2.0011 4.62571 0
M  V30 2758 H 249.714 -0.534088 3.70167 0
M  V30 2759 H 252.006 -2.17162 6.41753 0
M  V30 2760 H 252.949 -0.779411 7.03797 0
M  V30 2761 H 253.357 -1.48553 5.44603 0
M  V30 2762 N 252.755 -1.56801 0.158532 0
M  V30 2763 C 253.685 -2.20347 -0.772609 0
M  V30 2764 C 254.666 -1.15518 -1.24859 0
M  V30 2765 O 255.851 -1.43902 -1.30406 0
M  V30 2766 C 252.981 -2.83417 -2.00729 0
M  V30 2767 C 251.935 -3.94174 -1.66765 0
M  V30 2768 C 251.261 -4.44233 -2.97592 0
M  V30 2769 C 252.561 -5.14392 -0.905447 0
M  V30 2770 H 254.255 -2.98413 -0.242959 0
M  V30 2771 H 251.801 -1.43537 -0.115419 0
M  V30 2772 H 253.754 -3.26543 -2.6636 0
M  V30 2773 H 252.478 -2.02701 -2.56086 0
M  V30 2774 H 251.137 -3.51684 -1.03508 0
M  V30 2775 H 250.785 -3.60325 -3.50963 0
M  V30 2776 H 250.485 -5.18945 -2.75626 0
M  V30 2777 H 252.009 -4.90037 -3.64274 0
M  V30 2778 H 253.423 -5.5429 -1.46408 0
M  V30 2779 H 251.82 -5.9494 -0.7853 0
M  V30 2780 H 252.89 -4.84795 0.100668 0
M  V30 2781 N 254.233 0.115231 -1.57178 0
M  V30 2782 C 255.166 1.17166 -1.95825 0
M  V30 2783 C 256.144 1.39912 -0.828463 0
M  V30 2784 O 257.328 1.54004 -1.08697 0
M  V30 2785 C 254.455 2.52478 -2.25771 0
M  V30 2786 C 253.501 2.46136 -3.48309 0
M  V30 2787 S 254.334 1.89736 -5.0076 0
M  V30 2788 C 255.49 3.26713 -5.33863 0
M  V30 2789 H 255.723 0.842103 -2.85124 0
M  V30 2790 H 253.256 0.322136 -1.51002 0
M  V30 2791 H 255.214 3.30332 -2.43702 0
M  V30 2792 H 253.875 2.82609 -1.37079 0
M  V30 2793 H 253.068 3.45819 -3.66641 0
M  V30 2794 H 252.67 1.76404 -3.29784 0
M  V30 2795 H 254.962 4.22935 -5.29275 0
M  V30 2796 H 255.905 3.13205 -6.35065 0
M  V30 2797 H 256.313 3.25316 -4.61335 0
M  V30 2798 N 255.711 1.52812 0.385517 0
M  V30 2799 C 256.659 1.78482 1.49155 0
M  V30 2800 C 257.653 0.652914 1.56312 0
M  V30 2801 O 258.859 0.835464 1.59436 0
M  V30 2802 H 255.234 0.5648 0.496493 0
M  V30 2803 H 257.205 2.71095 1.24699 0
M  V30 2804 C 255.954 1.97378 2.86247 0
M  V30 2805 H 255.277 2.83907 2.81491 0
M  V30 2806 H 256.717 2.19327 3.62866 0
M  V30 2807 C 255.176 0.74728 3.28508 0
M  V30 2808 O 255.706 -0.0736232 4.01633 0
M  V30 2809 N 253.912 0.576396 2.84826 0
M  V30 2810 H 253.459 1.24555 2.25486 0
M  V30 2811 H 253.417 -0.24288 3.1346 0
M  V30 2812 N 257.189 -0.644168 1.43834 0
M  V30 2813 C 258.121 -1.76955 1.45669 0
M  V30 2814 C 259.134 -1.58956 0.351666 0
M  V30 2815 O 260.323 -1.6751 0.616644 0
M  V30 2816 C 257.423 -3.14507 1.26248 0
M  V30 2817 C 256.596 -3.59083 2.49757 0
M  V30 2818 C 255.655 -4.75467 2.25427 0
M  V30 2819 O 254.681 -4.84444 2.98836 0
M  V30 2820 N 255.883 -5.66289 1.27661 0
M  V30 2821 H 258.648 -1.75856 2.42682 0
M  V30 2822 H 256.209 -0.828312 1.39106 0
M  V30 2823 H 258.201 -3.90067 1.0784 0
M  V30 2824 H 256.771 -3.10325 0.376478 0
M  V30 2825 H 255.991 -2.7387 2.8353 0
M  V30 2826 H 257.279 -3.85613 3.31934 0
M  V30 2827 H 256.677 -5.61718 0.670064 0
M  V30 2828 H 255.234 -6.41533 1.15234 0
M  V30 2829 N 258.668 -1.30515 -0.883378 0
M  V30 2830 C 259.618 -1.13641 -1.9766 0
M  V30 2831 C 260.602 -0.0511314 -1.60819 0
M  V30 2832 O 261.794 -0.274623 -1.74857 0
M  V30 2833 C 258.923 -0.831976 -3.33066 0
M  V30 2834 C 258.009 -1.95759 -3.76217 0
M  V30 2835 N 258.4 -3.20313 -3.9145 0
M  V30 2836 C 256.698 -1.85431 -4.05625 0
M  V30 2837 C 257.399 -3.93856 -4.2808 0
M  V30 2838 N 256.375 -3.21919 -4.38029 0
M  V30 2839 H 260.177 -2.08106 -2.07531 0
M  V30 2840 H 257.691 -1.21877 -1.0733 0
M  V30 2841 H 259.688 -0.692102 -4.11115 0
M  V30 2842 H 258.348 0.104588 -3.24532 0
M  V30 2843 H 259.359 -3.55583 -3.76538 0
M  V30 2844 H 256.036 -0.991531 -4.05555 0
M  V30 2845 H 257.426 -5.01125 -4.47575 0
M  V30 2846 N 260.146 1.09593 -1.13257 0
M  V30 2847 C 261.395 1.81105 -0.887917 0
M  V30 2848 C 261.708 1.86563 0.587672 0
M  V30 2849 O 262.914 2.54367 0.949204 0
M  V30 2850 C 261.37 3.25338 -1.53895 0
M  V30 2851 C 260.978 3.28151 -3.04994 0
M  V30 2852 C 262.722 4.01617 -1.37492 0
M  V30 2853 C 260.629 4.66897 -3.6299 0
M  V30 2854 H 259.559 0.678661 -0.328534 0
M  V30 2855 H 262.21 1.23183 -1.36008 0
M  V30 2856 H 260.592 3.8331 -0.994446 0
M  V30 2857 H 261.766 2.79953 -3.66009 0
M  V30 2858 H 260.081 2.65361 -3.20893 0
M  V30 2859 H 262.678 5.04119 -1.78235 0
M  V30 2860 H 263.021 4.15072 -0.31957 0
M  V30 2861 H 263.554 3.50082 -1.88912 0
M  V30 2862 H 260.293 4.58643 -4.68323 0
M  V30 2863 H 259.813 5.15426 -3.06752 0
M  V30 2864 H 261.492 5.3587 -3.62563 0
M  V30 2865 N 261.624 0.925811 1.2754 0
M  V30 2866 C 262.554 0.440748 2.29303 0
M  V30 2867 C 263.535 -0.497971 1.62648 0
M  V30 2868 O 264.72 -0.403126 1.8997 0
M  V30 2869 C 261.85 -0.309048 3.45922 0
M  V30 2870 C 260.804 0.54166 4.24559 0
M  V30 2871 C 260.13 -0.337191 5.33636 0
M  V30 2872 C 261.43 1.80516 4.90114 0
M  V30 2873 H 263.124 1.29121 2.70126 0
M  V30 2874 H 260.67 0.622323 1.29858 0
M  V30 2875 H 262.623 -0.659315 4.1621 0
M  V30 2876 H 261.347 -1.19352 3.04011 0
M  V30 2877 H 260.006 0.874609 3.56014 0
M  V30 2878 H 259.654 -1.22056 4.87966 0
M  V30 2879 H 259.354 0.228497 5.87156 0
M  V30 2880 H 260.878 -0.683072 6.06767 0
M  V30 2881 H 262.292 1.52307 5.52698 0
M  V30 2882 H 260.689 2.3142 5.53683 0
M  V30 2883 H 261.759 2.52581 4.13921 0
M  V30 2884 N 263.102 -1.41638 0.69111 0
M  V30 2885 C 264.351 -2.00526 0.217318 0
M  V30 2886 C 264.664 -1.55353 -1.18848 0
M  V30 2887 O 265.87 -2.06769 -1.75951 0
M  V30 2888 C 264.326 -3.58313 0.337639 0
M  V30 2889 C 263.934 -4.12469 1.74852 0
M  V30 2890 C 265.678 -4.24431 -0.0766066 0
M  V30 2891 C 263.585 -5.62675 1.82074 0
M  V30 2892 H 262.515 -0.750008 0.0774893 0
M  V30 2893 H 265.166 -1.6217 0.858661 0
M  V30 2894 H 263.548 -3.9425 -0.371879 0
M  V30 2895 H 264.722 -3.8796 2.48644 0
M  V30 2896 H 263.037 -3.58861 2.11205 0
M  V30 2897 H 265.634 -5.34683 -0.0430284 0
M  V30 2898 H 265.977 -4.01101 -1.1146 0
M  V30 2899 H 266.51 -3.93512 0.582476 0
M  V30 2900 H 263.249 -5.90826 2.83911 0
M  V30 2901 H 262.769 -5.89124 1.12661 0
M  V30 2902 H 264.448 -6.27371 1.58159 0
M  V30 2903 N 264.58 -0.43555 -1.51462 0
M  V30 2904 C 265.827 0.131514 -2.02072 0
M  V30 2905 C 266.155 1.42868 -1.31981 0
M  V30 2906 O 265.41 1.91076 -0.422883 0
M  V30 2907 C 265.709 0.39942 -3.55161 0
M  V30 2908 C 265.375 -0.81172 -4.43533 0
M  V30 2909 C 264.037 -1.14387 -4.67407 0
M  V30 2910 C 266.389 -1.61976 -4.95392 0
M  V30 2911 C 263.717 -2.28477 -5.40384 0
M  V30 2912 C 266.069 -2.75164 -5.6962 0
M  V30 2913 C 264.733 -3.08835 -5.91758 0
M  V30 2914 H 264.003 0.0481244 -0.739436 0
M  V30 2915 H 266.65 -0.58238 -1.8243 0
M  V30 2916 H 264.955 1.19519 -3.73125 0
M  V30 2917 H 266.652 0.85157 -3.91854 0
M  V30 2918 H 263.242 -0.542898 -4.25148 0
M  V30 2919 H 267.426 -1.37637 -4.76833 0
M  V30 2920 H 262.682 -2.5488 -5.55739 0
M  V30 2921 H 266.856 -3.38147 -6.08793 0
M  V30 2922 H 264.483 -3.97353 -6.48086 0
M  V30 2923 N 266.058 1.56714 -0.166846 0
M  V30 2924 C 267.283 2.01557 0.488833 0
M  V30 2925 C 267.708 1.0463 1.56314 0
M  V30 2926 O 267.066 0.0251304 1.81283 0
M  V30 2927 C 267.114 3.4503 1.04818 0
M  V30 2928 O 266.218 3.51163 2.16236 0
M  V30 2929 H 265.559 0.653516 0.117526 0
M  V30 2930 H 268.089 2.02818 -0.269421 0
M  V30 2931 H 268.099 3.84243 1.37191 0
M  V30 2932 H 266.774 4.15077 0.261572 0
M  V30 2933 H 265.351 3.23807 1.84942 0
M  V30 2934 N 267.536 -0.106894 1.57237 0
M  V30 2935 C 268.813 -0.843526 1.76477 0
M  V30 2936 C 269.193 -1.97499 0.745464 0
M  V30 2937 O 268.541 -2.27357 -0.228306 0
M  V30 2938 C 268.751 -1.34903 3.21873 0
M  V30 2939 C 270.099 -1.79654 3.8472 0
M  V30 2940 O 271.123 -1.44554 3.2555 0
M  V30 2941 O 269.982 -2.44515 4.88748 0
M  V30 2942 H 267.076 -0.401468 0.723016 0
M  V30 2943 H 269.622 -0.0896927 1.69463 0
M  V30 2944 H 268.394 -0.53781 3.87586 0
M  V30 2945 H 268.017 -2.16522 3.33473 0
M  V30 2946 N 269.014 -1.53014 -0.377408 0
M  V30 2947 C 270.239 -1.72818 -1.14668 0
M  V30 2948 C 270.664 -0.450725 -1.8262 0
M  V30 2949 O 270.022 0.59439 -1.7128 0
M  V30 2950 C 270.07 -2.88627 -2.16164 0
M  V30 2951 O 269.174 -2.56409 -3.22998 0
M  V30 2952 H 268.515 -0.574301 -0.333278 0
M  V30 2953 H 271.045 -1.99853 -0.438152 0
M  V30 2954 H 271.055 -3.14455 -2.59966 0
M  V30 2955 H 269.73 -3.81294 -1.66095 0
M  V30 2956 H 268.307 -2.4136 -2.84253 0
M  V30 2957 N 270.492 0.636531 -1.44174 0
M  V30 2958 C 271.424 1.7618 -1.46606 0
M  V30 2959 C 272.437 1.58768 -0.360091 0
M  V30 2960 O 273.626 1.67181 -0.625518 0
M  V30 2961 C 270.726 3.13833 -1.27915 0
M  V30 2962 C 269.899 3.57753 -2.51658 0
M  V30 2963 C 268.958 4.74265 -2.27945 0
M  V30 2964 O 267.984 4.82852 -3.01401 0
M  V30 2965 N 269.186 5.65604 -1.30662 0
M  V30 2966 H 271.951 1.74567 -2.43612 0
M  V30 2967 H 269.512 0.820924 -1.39544 0
M  V30 2968 H 271.504 3.8949 -1.09907 0
M  V30 2969 H 270.074 3.10121 -0.39293 0
M  V30 2970 H 269.294 2.72362 -2.84978 0
M  V30 2971 H 270.582 3.83847 -3.33974 0
M  V30 2972 H 269.98 5.61354 -0.699844 0
M  V30 2973 H 268.537 6.40913 -1.18634 0
M  V30 2974 N 271.97 1.30982 0.876444 0
M  V30 2975 C 273.198 1.23242 1.6619 0
M  V30 2976 C 273.613 -0.203345 1.87702 0
M  V30 2977 O 272.97 -1.13317 1.43057 0
M  V30 2978 C 273.021 1.96623 3.03351 0
M  V30 2979 O 272.742 3.34594 2.82804 0
M  V30 2980 C 274.243 1.95644 3.97792 0
M  V30 2981 H 271.463 0.426126 0.518322 0
M  V30 2982 H 274.007 1.7275 1.09442 0
M  V30 2983 H 272.162 1.50892 3.56806 0
M  V30 2984 H 272.576 3.71873 3.69879 0
M  V30 2985 H 274.05 2.51511 4.91372 0
M  V30 2986 H 274.527 0.937395 4.2908 0
M  V30 2987 H 275.133 2.41225 3.50272 0
M  V30 2988 N 273.449 -1.08991 1.13837 0
M  V30 2989 C 274.697 -1.80899 0.901098 0
M  V30 2990 C 275.018 -1.86356 -0.574134 0
M  V30 2991 O 274.288 -1.35235 -1.41733 0
M  V30 2992 H 272.868 -0.669966 0.330386 0
M  V30 2993 H 275.53 -1.318 1.43578 0
M  V30 2994 H 274.626 -2.83929 1.29578 0
M  V30 2995 N 274.927 -0.932562 -1.27047 0
M  V30 2996 C 275.875 -0.42603 -2.28665 0
M  V30 2997 C 276.869 0.49219 -1.62092 0
M  V30 2998 O 278.075 0.371355 -1.76128 0
M  V30 2999 H 274.45 -0.119213 -0.742491 0
M  V30 3000 H 276.421 -1.29579 -2.68797 0
M  V30 3001 C 275.17 0.301426 -3.46391 0
M  V30 3002 H 274.493 -0.39595 -3.97834 0
M  V30 3003 H 275.933 0.6202 -4.1944 0
M  V30 3004 C 274.392 1.51616 -3.00856 0
M  V30 3005 O 274.922 2.61476 -3.04948 0
M  V30 3006 N 273.128 1.36969 -2.56296 0
M  V30 3007 H 272.675 0.475873 -2.53166 0
M  V30 3008 H 272.633 2.18368 -2.26192 0
M  V30 3009 N 276.405 1.4127 -0.698611 0
M  V30 3010 C 277.816 1.84187 -0.305289 0
M  V30 3011 C 278.167 1.58449 1.15708 0
M  V30 3012 O 277.292 1.05651 1.88856 0
M  V30 3013 C 277.887 3.3435 -0.547314 0
M  V30 3014 C 276.446 3.75826 -0.207878 0
M  V30 3015 C 275.593 2.64647 -0.828099 0
M  V30 3016 H 278.544 1.30778 -0.89904 0
M  V30 3017 H 278.565 3.8001 0.192998 0
M  V30 3018 H 278.077 3.53051 -1.61172 0
M  V30 3019 H 276.178 3.62725 0.852143 0
M  V30 3020 H 276.291 4.74462 -0.665021 0
M  V30 3021 H 274.655 2.53395 -0.257458 0
M  V30 3022 H 275.438 2.86165 -1.89643 0
M  V30 3023 N 277.883 0.443576 1.51229 0
M  V30 3024 C 279.108 -0.121648 2.07043 0
M  V30 3025 C 279.533 -1.35156 1.30823 0
M  V30 3026 O 278.891 -1.7793 0.347934 0
M  V30 3027 C 278.939 -0.41624 3.5819 0
M  V30 3028 O 278.043 -1.50163 3.8409 0
M  V30 3029 H 277.384 0.000871367 0.663999 0
M  V30 3030 H 279.914 0.626706 1.94765 0
M  V30 3031 H 279.924 -0.664867 4.02546 0
M  V30 3032 H 278.599 0.482653 4.1309 0
M  V30 3033 H 277.176 -1.24248 3.51592 0
M  V30 3034 N 279.361 -1.56624 0.175154 0
M  V30 3035 C 280.311 -2.14747 -0.766004 0
M  V30 3036 C 281.295 -1.08275 -1.19018 0
M  V30 3037 O 282.487 -1.34388 -1.15191 0
M  V30 3038 C 279.616 -2.79478 -1.99366 0
M  V30 3039 C 278.702 -3.93114 -1.5913 0
M  V30 3040 N 279.093 -4.97752 -0.89872 0
M  V30 3041 C 277.391 -4.04345 -1.88204 0
M  V30 3042 C 278.092 -5.77473 -0.700012 0
M  V30 3043 N 277.068 -5.29207 -1.24263 0
M  V30 3044 H 280.87 -2.93015 -0.22793 0
M  V30 3045 H 278.384 -1.6238 -0.0253843 0
M  V30 3046 H 280.381 -3.19498 -2.67818 0
M  V30 3047 H 279.041 -2.02692 -2.53665 0
M  V30 3048 H 280.052 -5.14903 -0.556347 0
M  V30 3049 H 276.729 -3.38667 -2.44153 0
M  V30 3050 H 278.119 -6.71728 -0.152047 0
M  V30 3051 N 280.839 0.0985539 -1.57292 0
M  V30 3052 C 282.088 0.801358 -1.85098 0
M  V30 3053 C 282.401 1.80066 -0.763902 0
M  V30 3054 O 283.607 2.55112 -0.928981 0
M  V30 3055 C 282.063 1.47599 -3.28242 0
M  V30 3056 C 281.671 0.516624 -4.45011 0
M  V30 3057 C 283.415 2.16272 -3.65276 0
M  V30 3058 C 281.322 1.19564 -5.79188 0
M  V30 3059 H 280.252 0.303022 -0.69043 0
M  V30 3060 H 282.903 0.0542623 -1.8342 0
M  V30 3061 H 281.285 2.27042 -3.2445 0
M  V30 3062 H 282.459 -0.246065 -4.60143 0
M  V30 3063 H 280.774 -0.064227 -4.1635 0
M  V30 3064 H 283.371 2.67802 -4.62803 0
M  V30 3065 H 283.714 2.95009 -2.93727 0
M  V30 3066 H 284.247 1.43693 -3.70941 0
M  V30 3067 H 280.986 0.449157 -6.53959 0
M  V30 3068 H 280.506 1.92984 -5.67906 0
M  V30 3069 H 282.185 1.7231 -6.23633 0
M  V30 3070 N 282.317 1.53212 0.369288 0
M  V30 3071 C 283.565 1.68881 1.11012 0
M  V30 3072 C 283.886 0.441285 1.89941 0
M  V30 3073 O 283.156 -0.544623 1.88177 0
M  V30 3074 H 281.736 0.622569 0.412816 0
M  V30 3075 H 284.398 1.90391 0.416802 0
M  V30 3076 H 283.494 2.54822 1.80201 0
M  V30 3077 N 283.795 -0.628877 1.44509 0
M  V30 3078 C 285.02 -1.42048 1.5112 0
M  V30 3079 C 285.445 -1.87594 0.137818 0
M  V30 3080 O 284.803 -1.58873 -0.873437 0
M  V30 3081 C 284.851 -2.61541 2.48251 0
M  V30 3082 O 283.955 -3.61453 1.98559 0
M  V30 3083 H 283.296 -0.424942 0.510216 0
M  V30 3084 H 285.826 -0.767374 1.89664 0
M  V30 3085 H 285.836 -3.09057 2.66361 0
M  V30 3086 H 284.511 -2.27736 3.48007 0
M  V30 3087 H 283.088 -3.20731 1.90227 0
M  V30 3088 N 285.273 -1.31445 -0.869486 0
M  V30 3089 C 286.522 -1.20517 -1.61736 0
M  V30 3090 C 286.835 0.235341 -1.94179 0
M  V30 3091 O 288.041 0.466312 -2.67465 0
M  V30 3092 C 286.497 -2.10982 -2.91573 0
M  V30 3093 C 286.105 -3.60032 -2.66611 0
M  V30 3094 C 287.849 -2.08856 -3.69567 0
M  V30 3095 C 285.756 -4.42503 -3.92358 0
M  V30 3096 H 284.686 -0.447493 -0.606849 0
M  V30 3097 H 287.337 -1.56303 -0.96133 0
M  V30 3098 H 285.719 -1.68095 -3.58553 0
M  V30 3099 H 286.893 -4.11167 -2.08035 0
M  V30 3100 H 285.208 -3.64139 -2.0197 0
M  V30 3101 H 287.805 -2.67716 -4.62852 0
M  V30 3102 H 288.148 -1.07582 -4.02159 0
M  V30 3103 H 288.681 -2.49945 -3.09471 0
M  V30 3104 H 285.42 -5.44533 -3.64916 0
M  V30 3105 H 284.94 -3.96125 -4.50383 0
M  V30 3106 H 286.619 -4.54741 -4.60238 0
M  V30 3107 N 286.751 1.08385 -1.14413 0
M  V30 3108 C 288.028 1.77429 -0.823297 0
M  V30 3109 C 288.408 1.9974 0.683163 0
M  V30 3110 O 287.756 1.60739 1.62405 0
M  V30 3111 C 287.966 3.09004 -1.62227 0
M  V30 3112 C 289.314 3.83532 -1.82177 0
M  V30 3113 O 290.338 3.18786 -1.58915 0
M  V30 3114 O 289.197 4.99792 -2.21067 0
M  V30 3115 H 286.291 0.769999 -0.301712 0
M  V30 3116 H 288.837 1.14846 -1.24934 0
M  V30 3117 H 287.609 2.88316 -2.64555 0
M  V30 3118 H 287.232 3.79316 -1.19187 0
M  V30 3119 N 288.23 0.939286 1.26551 0
M  V30 3120 C 289.641 0.628782 1.75793 0
M  V30 3121 C 289.992 -0.856046 1.7654 0
M  V30 3122 O 289.117 -1.66994 1.3763 0
M  V30 3123 C 289.712 1.13465 3.19235 0
M  V30 3124 C 288.271 0.874601 3.66098 0
M  V30 3125 C 287.418 1.28667 2.45642 0
M  V30 3126 H 290.369 1.1178 1.12654 0
M  V30 3127 H 290.39 0.487609 3.77363 0
M  V30 3128 H 289.902 2.21535 3.1866 0
M  V30 3129 H 288.003 -0.191793 3.72106 0
M  V30 3130 H 288.116 1.50028 4.55004 0
M  V30 3131 H 286.48 0.705109 2.44745 0
M  V30 3132 H 287.263 2.37625 2.47769 0
M  V30 3133 N 289.708 -1.40897 0.706093 0
M  V30 3134 C 290.656 -2.32572 0.0361893 0
M  V30 3135 C 291.65 -1.51532 -0.757266 0
M  V30 3136 O 292.856 -1.67396 -0.661703 0
M  V30 3137 H 289.231 -0.751966 -0.00709935 0
M  V30 3138 H 291.202 -2.86733 0.826249 0
M  V30 3139 C 289.951 -3.36418 -0.87854 0
M  V30 3140 H 289.274 -3.98836 -0.277401 0
M  V30 3141 H 290.714 -4.0308 -1.3154 0
M  V30 3142 C 289.173 -2.71141 -1.99961 0
M  V30 3143 O 289.703 -2.56735 -3.0895 0
M  V30 3144 N 287.909 -2.29671 -1.78043 0
M  V30 3145 H 287.456 -2.41588 -0.894042 0
M  V30 3146 H 287.414 -1.86332 -2.53235 0
M  V30 3147 N 291.186 -0.45159 -1.50991 0
M  V30 3148 C 292.426 0.109066 -2.04109 0
M  V30 3149 C 292.79 1.38716 -1.32747 0
M  V30 3150 O 293.991 2.02896 -1.76314 0
M  V30 3151 C 292.262 0.308354 -3.56067 0
M  V30 3152 S 293.821 0.830369 -4.30872 0
M  V30 3153 H 290.639 0.0251531 -0.710555 0
M  V30 3154 H 293.241 -0.614264 -1.85599 0
M  V30 3155 H 291.945 -0.627962 -4.05567 0
M  V30 3156 H 291.476 1.05836 -3.78896 0
M  V30 3157 H 293.491 2.10626 -4.49279 0
M  V30 3158 N 292.664 1.56529 -0.183458 0
M  V30 3159 C 293.941 1.88959 0.50536 0
M  V30 3160 C 294.321 1.09523 1.80466 0
M  V30 3161 O 293.669 0.19278 2.27685 0
M  V30 3162 C 293.879 3.41162 0.73547 0
M  V30 3163 C 295.227 4.11155 1.06005 0
M  V30 3164 O 296.251 3.46548 0.823594 0
M  V30 3165 O 295.11 5.25318 1.50675 0
M  V30 3166 H 292.204 0.78441 0.261973 0
M  V30 3167 H 294.75 1.68231 -0.222802 0
M  V30 3168 H 293.522 3.90874 -0.182561 0
M  V30 3169 H 293.145 3.67543 1.51651 0
M  V30 3170 N 294.142 -0.090211 1.57342 0
M  V30 3171 C 295.388 -0.793982 1.86611 0
M  V30 3172 C 295.721 -1.78142 0.773252 0
M  V30 3173 O 294.996 -1.93271 -0.218304 0
M  V30 3174 C 295.279 -1.51839 3.26523 0
M  V30 3175 C 295.132 -0.548609 4.46442 0
M  V30 3176 C 296.451 -2.46779 3.64401 0
M  V30 3177 H 293.57 -0.287186 0.678744 0
M  V30 3178 H 296.212 -0.0575076 1.89913 0
M  V30 3179 H 294.362 -2.14617 3.23839 0
M  V30 3180 H 296.034 0.0725513 4.61243 0
M  V30 3181 H 294.277 0.137614 4.33582 0
M  V30 3182 H 294.948 -1.09271 5.41076 0
M  V30 3183 H 297.424 -1.94089 3.68061 0
M  V30 3184 H 296.3 -2.94479 4.63221 0
M  V30 3185 H 296.561 -3.30758 2.93346 0
M  V30 3186 N 295.62 -1.53406 -0.361157 0
M  V30 3187 C 296.866 -1.70054 -1.10496 0
M  V30 3188 C 297.199 -0.453278 -1.88836 0
M  V30 3189 O 296.474 0.5495 -1.86576 0
M  V30 3190 C 296.757 -2.95317 -2.06058 0
M  V30 3191 C 296.61 -4.3021 -1.31298 0
M  V30 3192 C 297.929 -3.16193 -3.06121 0
M  V30 3193 H 295.048 -0.618799 -0.400321 0
M  V30 3194 H 297.69 -1.86052 -0.385318 0
M  V30 3195 H 295.84 -2.81809 -2.67425 0
M  V30 3196 H 297.512 -4.55538 -0.726807 0
M  V30 3197 H 295.755 -4.29421 -0.614853 0
M  V30 3198 H 296.426 -5.14 -2.01265 0
M  V30 3199 H 298.902 -3.28916 -2.5486 0
M  V30 3200 H 297.778 -4.05266 -3.70204 0
M  V30 3201 H 298.039 -2.31676 -3.76535 0
M  V30 3202 N 297.098 0.621204 -1.44841 0
M  V30 3203 C 298.061 1.71459 -1.521 0
M  V30 3204 C 299.061 1.55696 -0.401933 0
M  V30 3205 O 300.251 1.61011 -0.664925 0
M  V30 3206 C 297.383 3.10624 -1.40447 0
M  V30 3207 H 298.576 1.66394 -2.49506 0
M  V30 3208 H 296.129 0.835745 -1.3208 0
M  V30 3209 H 296.864 3.21277 -0.441737 0
M  V30 3210 H 296.649 3.23473 -2.21602 0
M  V30 3211 H 298.139 3.90293 -1.4853 0
M  V30 3212 N 298.576 1.31904 0.862503 0
M  V30 3213 C 299.822 1.22197 1.61851 0
M  V30 3214 C 300.155 -0.217641 1.92977 0
M  V30 3215 O 299.43 -1.15264 1.56666 0
M  V30 3216 C 299.713 2.07378 2.94391 0
M  V30 3217 C 299.566 3.59678 2.70096 0
M  V30 3218 C 300.885 1.92891 3.95577 0
M  V30 3219 H 298.004 0.445255 0.587296 0
M  V30 3220 H 300.646 1.6177 0.99651 0
M  V30 3221 H 298.796 1.73758 3.47477 0
M  V30 3222 H 300.468 4.03472 2.23625 0
M  V30 3223 H 298.711 3.82735 2.04197 0
M  V30 3224 H 299.382 4.14595 3.64438 0
M  V30 3225 H 301.858 2.22327 3.51724 0
M  V30 3226 H 300.734 2.54781 4.86187 0
M  V30 3227 H 300.995 0.894315 4.3296 0
M  V30 3228 N 300.054 -1.07777 1.14986 0
M  V30 3229 C 301.3 -1.80557 0.923422 0
M  V30 3230 C 301.633 -1.86298 -0.548337 0
M  V30 3231 O 300.908 -1.34354 -1.40639 0
M  V30 3232 C 301.191 -3.25839 1.53299 0
M  V30 3233 C 301.044 -3.28269 3.07505 0
M  V30 3234 C 302.363 -4.22991 1.21518 0
M  V30 3235 H 299.482 -0.655493 0.336894 0
M  V30 3236 H 302.124 -1.26144 1.42083 0
M  V30 3237 H 300.274 -3.72306 1.10999 0
M  V30 3238 H 301.946 -2.90079 3.58681 0
M  V30 3239 H 300.189 -2.67355 3.4162 0
M  V30 3240 H 300.86 -4.30691 3.45266 0
M  V30 3241 H 303.336 -3.84894 1.581 0
M  V30 3242 H 302.212 -5.22945 1.66793 0
M  V30 3243 H 302.473 -4.41904 0.131505 0
M  V30 3244 N 301.532 -0.945985 -1.26051 0
M  V30 3245 C 302.464 -0.416662 -2.25381 0
M  V30 3246 C 303.477 0.462712 -1.56086 0
M  V30 3247 O 304.666 0.272383 -1.7641 0
M  V30 3248 C 301.766 0.419812 -3.3629 0
M  V30 3249 C 300.939 -0.444531 -4.35135 0
M  V30 3250 C 299.998 0.332305 -5.2515 0
M  V30 3251 O 299.024 -0.266324 -5.68577 0
M  V30 3252 N 300.226 1.62763 -5.57215 0
M  V30 3253 H 302.991 -1.27059 -2.71433 0
M  V30 3254 H 300.552 -0.815392 -1.39868 0
M  V30 3255 H 302.544 0.947013 -3.93464 0
M  V30 3256 H 301.114 1.17456 -2.89694 0
M  V30 3257 H 300.334 -1.15291 -3.76964 0
M  V30 3258 H 301.622 -1.03478 -4.98166 0
M  V30 3259 H 301.02 2.13603 -5.23823 0
M  V30 3260 H 299.577 2.10097 -6.17011 0
M  V30 3261 N 303.011 1.40521 -0.713556 0
M  V30 3262 C 304.288 1.94775 -0.17943 0
M  V30 3263 C 304.668 1.65184 1.31444 0
M  V30 3264 O 304.016 0.968429 2.06963 0
M  V30 3265 C 304.226 3.45543 -0.489986 0
M  V30 3266 C 305.574 4.22442 -0.427536 0
M  V30 3267 O 306.598 3.53644 -0.425929 0
M  V30 3268 O 305.457 5.4501 -0.403292 0
M  V30 3269 H 302.551 0.826606 -0.0255192 0
M  V30 3270 H 305.097 1.5014 -0.790949 0
M  V30 3271 H 303.869 3.60432 -1.5233 0
M  V30 3272 H 303.492 3.97311 0.151598 0
M  V30 3273 N 304.489 0.459591 1.5075 0
M  V30 3274 C 305.452 -0.329093 2.26825 0
M  V30 3275 C 306.452 -0.930481 1.31144 0
M  V30 3276 O 307.642 -0.801453 1.54669 0
M  V30 3277 C 304.774 -1.46768 3.07688 0
M  V30 3278 H 305.967 0.337924 2.9799 0
M  V30 3279 H 303.52 0.213336 1.54837 0
M  V30 3280 H 304.255 -2.17009 2.40993 0
M  V30 3281 H 304.04 -1.04238 3.77991 0
M  V30 3282 H 305.53 -2.02433 3.65254 0
M  V30 3283 N 305.967 -1.56429 0.191757 0
M  V30 3284 C 307.214 -1.97485 -0.447891 0
M  V30 3285 C 307.542 -1.07852 -1.61859 0
M  V30 3286 O 306.797 -0.116903 -1.95351 0
M  V30 3287 C 307.096 -3.44449 -0.953384 0
M  V30 3288 C 306.762 -4.50781 0.103586 0
M  V30 3289 C 305.424 -4.79584 0.394023 0
M  V30 3290 C 307.776 -5.1471 0.819946 0
M  V30 3291 C 305.104 -5.69607 1.40585 0
M  V30 3292 C 307.456 -6.05827 1.8209 0
M  V30 3293 C 306.12 -6.32987 2.11857 0
M  V30 3294 H 305.39 -0.722648 -0.163895 0
M  V30 3295 H 308.037 -1.89322 0.28802 0
M  V30 3296 H 306.342 -3.49666 -1.76751 0
M  V30 3297 H 308.039 -3.73569 -1.45765 0
M  V30 3298 H 304.629 -4.28394 -0.132951 0
M  V30 3299 H 308.813 -4.92552 0.608789 0
M  V30 3300 H 304.069 -5.88926 1.64243 0
M  V30 3301 H 308.243 -6.54424 2.38123 0
M  V30 3302 H 305.87 -7.02544 2.90407 0
M  V30 3303 N 307.445 0.0818655 -1.57387 0
M  V30 3304 C 308.355 1.11642 -2.06333 0
M  V30 3305 C 309.371 1.43033 -0.99083 0
M  V30 3306 O 310.547 1.53411 -1.30488 0
M  V30 3307 C 307.612 2.41342 -2.48907 0
M  V30 3308 C 306.673 2.17014 -3.7041 0
M  V30 3309 C 305.906 3.4053 -4.10944 0
M  V30 3310 O 306.129 4.4927 -3.51444 0
M  V30 3311 O 305.063 3.29336 -5.03807 0
M  V30 3312 H 308.889 0.730657 -2.9478 0
M  V30 3313 H 306.474 0.295301 -1.46452 0
M  V30 3314 H 308.356 3.17691 -2.76858 0
M  V30 3315 H 307.031 2.79319 -1.63593 0
M  V30 3316 H 305.938 1.38403 -3.47556 0
M  V30 3317 H 307.271 1.83923 -4.56545 0
M  V30 3318 N 308.923 1.53595 0.353017 0
M  V30 3319 C 310.163 1.72094 1.10286 0
M  V30 3320 C 310.527 0.469217 1.86178 0
M  V30 3321 O 311.728 0.531083 2.63501 0
M  V30 3322 C 309.999 2.94386 2.02661 0
M  V30 3323 S 311.558 3.33651 2.84996 0
M  V30 3324 H 308.376 0.605433 0.372789 0
M  V30 3325 H 310.978 1.91722 0.38248 0
M  V30 3326 H 309.682 3.83669 1.45691 0
M  V30 3327 H 309.213 2.77197 2.79152 0
M  V30 3328 H 311.228 2.86645 4.0503 0
M  V30 3329 N 310.401 -0.613514 1.45168 0
M  V30 3330 C 311.626 -1.40437 1.52618 0
M  V30 3331 C 312.051 -1.87438 0.157707 0
M  V30 3332 O 311.409 -1.59791 -0.856537 0
M  V30 3333 C 311.457 -2.58894 2.51011 0
M  V30 3334 O 310.561 -3.59326 2.02382 0
M  V30 3335 H 309.902 -0.419506 0.514695 0
M  V30 3336 H 312.432 -0.747215 1.90467 0
M  V30 3337 H 312.442 -3.06214 2.69624 0
M  V30 3338 H 311.117 -2.24032 3.50403 0
M  V30 3339 H 309.694 -3.18695 1.93618 0
M  V30 3340 N 311.879 -1.3236 -0.855495 0
M  V30 3341 C 313.295 -1.11332 -1.14356 0
M  V30 3342 C 313.495 0.106751 -2.01217 0
M  V30 3343 O 312.551 0.791891 -2.39761 0
M  V30 3344 C 313.864 -2.39237 -1.82171 0
M  V30 3345 C 315.412 -2.44986 -1.9481 0
M  V30 3346 C 315.887 -3.7281 -2.66039 0
M  V30 3347 N 317.378 -3.73787 -2.73565 0
M  V30 3348 C 318.113 -4.69394 -3.29327 0
M  V30 3349 N 317.609 -5.75367 -3.85907 0
M  V30 3350 N 319.402 -4.56893 -3.27423 0
M  V30 3351 H 311.553 -2.10586 -0.277027 0
M  V30 3352 H 313.816 -0.929701 -0.185364 0
M  V30 3353 H 313.522 -3.28431 -1.25802 0
M  V30 3354 H 313.396 -2.50134 -2.82335 0
M  V30 3355 H 315.783 -1.56252 -2.50338 0
M  V30 3356 H 315.864 -2.38043 -0.936448 0
M  V30 3357 H 315.508 -4.61918 -2.11174 0
M  V30 3358 H 315.438 -3.77024 -3.67642 0
M  V30 3359 H 317.929 -2.97189 -2.33424 0
M  V30 3360 H 318.242 -6.44378 -4.26611 0
M  V30 3361 H 316.587 -5.79123 -3.84242 0
M  V30 3362 H 319.778 -3.73269 -2.82467 0
M  V30 3363 H 319.951 -5.31577 -3.7058 0
M  V30 3364 N 313.357 1.07166 -1.15556 0
M  V30 3365 C 314.29 2.13808 -0.797593 0
M  V30 3366 C 315.268 1.6101 0.226812 0
M  V30 3367 O 316.452 1.88161 0.112932 0
M  V30 3368 C 313.579 3.38187 -0.186371 0
M  V30 3369 C 312.625 4.09766 -1.18297 0
M  V30 3370 S 313.458 4.60932 -2.72584 0
M  V30 3371 C 314.614 5.88583 -2.12886 0
M  V30 3372 H 314.847 2.43843 -1.70083 0
M  V30 3373 H 312.38 1.19467 -0.978106 0
M  V30 3374 H 314.338 4.10189 0.159837 0
M  V30 3375 H 312.999 3.06326 0.694489 0
M  V30 3376 H 312.192 4.99065 -0.703562 0
M  V30 3377 H 311.794 3.43736 -1.47381 0
M  V30 3378 H 314.086 6.60866 -1.49208 0
M  V30 3379 H 315.029 6.41241 -3.0036 0
M  V30 3380 H 315.437 5.42194 -1.57116 0
M  V30 3381 N 314.835 0.952656 1.25548 0
M  V30 3382 C 315.765 0.489287 2.28316 0
M  V30 3383 C 316.746 -0.463359 1.63667 0
M  V30 3384 O 317.931 -0.36274 1.90782 0
M  V30 3385 C 315.061 -0.235603 3.465 0
M  V30 3386 C 314.015 0.631593 4.23314 0
M  V30 3387 C 313.341 -0.223923 5.34231 0
M  V30 3388 C 314.641 1.90871 4.86174 0
M  V30 3389 H 316.335 1.34822 2.67326 0
M  V30 3390 H 313.881 0.649728 1.28509 0
M  V30 3391 H 315.834 -0.570882 4.17515 0
M  V30 3392 H 314.558 -1.12877 3.06474 0
M  V30 3393 H 313.217 0.949929 3.54079 0
M  V30 3394 H 312.865 -1.11678 4.90446 0
M  V30 3395 H 312.565 0.35299 5.86539 0
M  V30 3396 H 314.089 -0.554214 6.0808 0
M  V30 3397 H 315.503 1.63997 5.49343 0
M  V30 3398 H 313.9 2.43112 5.4865 0
M  V30 3399 H 314.97 2.61304 4.08471 0
M  V30 3400 N 316.313 -1.40141 0.720998 0
M  V30 3401 C 317.553 -2.02644 0.267335 0
M  V30 3402 C 317.917 -1.55948 -1.12001 0
M  V30 3403 O 319.118 -2.10552 -1.67097 0
M  V30 3404 C 317.389 -3.55679 0.350281 0
M  V30 3405 S 318.948 -4.38793 -0.0256004 0
M  V30 3406 H 315.766 -0.703105 0.105664 0
M  V30 3407 H 318.368 -1.71175 0.944416 0
M  V30 3408 H 317.072 -3.87157 1.36153 0
M  V30 3409 H 316.603 -3.91883 -0.345096 0
M  V30 3410 H 318.618 -4.803 -1.24604 0
M  V30 3411 N 317.792 -0.46758 -1.50504 0
M  V30 3412 C 319.069 0.15003 -1.95024 0
M  V30 3413 C 319.449 1.57304 -1.40779 0
M  V30 3414 O 318.797 2.20281 -0.607319 0
M  V30 3415 C 319.007 0.0969324 -3.48865 0
M  V30 3416 C 320.355 0.287565 -4.23625 0
M  V30 3417 O 321.379 0.173678 -3.55776 0
M  V30 3418 O 320.238 0.517186 -5.44047 0
M  V30 3419 H 317.332 0.113582 -0.819163 0
M  V30 3420 H 319.878 -0.52773 -1.61286 0
M  V30 3421 H 318.65 -0.896732 -3.80886 0
M  V30 3422 H 318.273 0.816303 -3.8913 0
M  V30 3423 N 319.27 1.56325 -0.20005 0
M  V30 3424 C 320.202 2.16555 0.750771 0
M  V30 3425 C 321.215 1.12871 1.1732 0
M  V30 3426 O 322.404 1.39943 1.10807 0
M  V30 3427 C 319.504 2.71684 2.02586 0
M  V30 3428 C 318.677 4.00321 1.76244 0
M  V30 3429 C 317.736 4.40227 2.88248 0
M  V30 3430 O 316.762 5.07552 2.57642 0
M  V30 3431 N 317.964 4.04138 4.16717 0
M  V30 3432 H 320.729 2.98772 0.235685 0
M  V30 3433 H 318.29 1.6189 -0.0182594 0
M  V30 3434 H 320.282 2.95363 2.76664 0
M  V30 3435 H 318.852 1.93893 2.45202 0
M  V30 3436 H 318.072 3.84723 0.85919 0
M  V30 3437 H 319.36 4.84279 1.56048 0
M  V30 3438 H 318.758 3.49993 4.44434 0
M  V30 3439 H 317.315 4.32756 4.87407 0
M  V30 3440 N 320.748 -0.0735177 1.57428 0
M  V30 3441 C 321.978 -0.78483 1.91112 0
M  V30 3442 C 322.386 -1.71729 0.7941 0
M  V30 3443 O 321.729 -1.82105 -0.241542 0
M  V30 3444 C 321.791 -1.63346 3.20247 0
M  V30 3445 C 321.455 -0.870557 4.48632 0
M  V30 3446 C 322.452 -0.19058 5.19551 0
M  V30 3447 C 320.137 -0.838242 4.95256 0
M  V30 3448 C 322.131 0.511503 6.35344 0
M  V30 3449 C 319.818 -0.132386 6.10957 0
M  V30 3450 C 320.816 0.541288 6.80852 0
M  V30 3451 O 320.504 1.23578 7.94345 0
M  V30 3452 H 320.236 -0.228408 0.636244 0
M  V30 3453 H 322.79 -0.0486039 2.05342 0
M  V30 3454 H 321.02 -2.41245 3.02222 0
M  V30 3455 H 322.709 -2.22329 3.39595 0
M  V30 3456 H 323.475 -0.206864 4.84559 0
M  V30 3457 H 319.354 -1.35206 4.40727 0
M  V30 3458 H 322.898 1.03789 6.89836 0
M  V30 3459 H 318.795 -0.114023 6.45399 0
M  V30 3460 H 319.563 1.14487 8.10454 0
M  V30 3461 N 322.226 -1.5378 -0.344866 0
M  V30 3462 C 323.456 -1.74646 -1.10374 0
M  V30 3463 C 323.864 -0.48491 -1.8288 0
M  V30 3464 O 323.207 0.553062 -1.75177 0
M  V30 3465 C 323.269 -2.87145 -2.16306 0
M  V30 3466 C 322.933 -4.26795 -1.63386 0
M  V30 3467 C 323.93 -5.08412 -1.08688 0
M  V30 3468 C 321.615 -4.73276 -1.68272 0
M  V30 3469 C 323.609 -6.34609 -0.595792 0
M  V30 3470 C 321.296 -5.99446 -1.18776 0
M  V30 3471 C 322.294 -6.79946 -0.645215 0
M  V30 3472 O 321.982 -8.03745 -0.157626 0
M  V30 3473 H 321.714 -0.587112 -0.335075 0
M  V30 3474 H 324.268 -2.01403 -0.403252 0
M  V30 3475 H 322.498 -2.55909 -2.89909 0
M  V30 3476 H 324.187 -2.95992 -2.77747 0
M  V30 3477 H 324.953 -4.73666 -1.04236 0
M  V30 3478 H 320.832 -4.10677 -2.09442 0
M  V30 3479 H 324.376 -6.97389 -0.171654 0
M  V30 3480 H 320.273 -6.33687 -1.22928 0
M  V30 3481 H 321.041 -8.18038 -0.275037 0
M  V30 3482 N 323.704 0.605807 -1.45491 0
M  V30 3483 C 324.634 1.72709 -1.57143 0
M  V30 3484 C 325.615 1.6476 -0.422884 0
M  V30 3485 O 326.8 1.83132 -0.646247 0
M  V30 3486 C 323.93 3.11316 -1.53948 0
M  V30 3487 C 322.884 3.34077 -2.67537 0
M  V30 3488 C 322.21 4.72975 -2.49397 0
M  V30 3489 C 323.51 3.24158 -4.09535 0
M  V30 3490 H 325.204 1.63214 -2.51001 0
M  V30 3491 H 322.75 0.78379 -1.208 0
M  V30 3492 H 324.703 3.89557 -1.60696 0
M  V30 3493 H 323.427 3.21655 -0.566205 0
M  V30 3494 H 322.086 2.58227 -2.6022 0
M  V30 3495 H 321.734 4.8005 -1.50205 0
M  V30 3496 H 321.434 4.8916 -3.25571 0
M  V30 3497 H 322.958 5.53414 -2.58002 0
M  V30 3498 H 324.372 3.92271 -4.18086 0
M  V30 3499 H 322.769 3.51872 -4.86113 0
M  V30 3500 H 323.839 2.2157 -4.31317 0
M  V30 3501 N 325.182 1.32811 0.848464 0
M  V30 3502 C 326.407 1.26882 1.6406 0
M  V30 3503 C 326.832 -0.15913 1.87426 0
M  V30 3504 O 326.19 -1.11258 1.43148 0
M  V30 3505 C 326.238 2.03997 2.97351 0
M  V30 3506 O 325.342 1.39201 3.88197 0
M  V30 3507 H 324.683 0.436982 0.499943 0
M  V30 3508 H 327.213 1.75224 1.0563 0
M  V30 3509 H 327.223 2.14403 3.47124 0
M  V30 3510 H 325.898 3.0783 2.79666 0
M  V30 3511 H 324.475 1.37381 3.46671 0
M  V30 3512 N 326.66 -1.06551 1.16123 0
M  V30 3513 C 327.885 -1.83544 0.965735 0
M  V30 3514 C 328.31 -1.81843 -0.481102 0
M  V30 3515 O 327.668 -1.21732 -1.34354 0
M  V30 3516 C 327.716 -3.28169 1.49457 0
M  V30 3517 O 326.82 -4.0643 0.699157 0
M  V30 3518 H 326.161 -0.568026 0.343864 0
M  V30 3519 H 328.691 -1.34362 1.54299 0
M  V30 3520 H 328.701 -3.78992 1.51092 0
M  V30 3521 H 327.376 -3.28722 2.54784 0
M  V30 3522 H 325.953 -3.65216 0.7531 0
M  V30 3523 N 328.138 -0.959301 -1.25041 0
M  V30 3524 C 329.549 -0.65667 -1.74771 0
M  V30 3525 C 329.9 0.827852 -1.77879 0
M  V30 3526 O 329.025 1.64783 -1.40269 0
M  V30 3527 C 329.62 -1.1853 -3.1739 0
M  V30 3528 C 328.179 -0.932734 -3.6466 0
M  V30 3529 C 327.326 -1.32558 -2.43564 0
M  V30 3530 H 330.277 -1.13558 -1.10862 0
M  V30 3531 H 330.298 -0.547582 -3.76539 0
M  V30 3532 H 329.81 -2.26576 -3.15095 0
M  V30 3533 H 327.911 0.13257 -3.72364 0
M  V30 3534 H 328.024 -1.57248 -4.52559 0
M  V30 3535 H 326.388 -0.743956 -2.43593 0
M  V30 3536 H 327.171 -2.41537 -2.43957 0
M  V30 3537 N 329.616 1.39756 -0.72842 0
M  V30 3538 C 330.526 2.34444 -0.0855374 0
M  V30 3539 C 331.542 1.57976 0.729356 0
M  V30 3540 O 332.718 1.90301 0.659346 0
M  V30 3541 C 329.783 3.36965 0.815798 0
M  V30 3542 C 328.844 4.29299 -0.0105996 0
M  V30 3543 C 328.077 5.26923 0.84781 0
M  V30 3544 O 328.3 5.30859 2.08673 0
M  V30 3545 O 327.234 6.01249 0.279969 0
M  V30 3546 H 331.06 2.91065 -0.866892 0
M  V30 3547 H 328.645 1.4117 -0.48902 0
M  V30 3548 H 330.527 3.99804 1.33171 0
M  V30 3549 H 329.202 2.82739 1.57608 0
M  V30 3550 H 328.109 3.69703 -0.571877 0
M  V30 3551 H 329.442 4.86712 -0.73295 0
M  V30 3552 N 331.094 0.475555 1.50254 0
M  V30 3553 C 332.024 -0.30611 2.31485 0
M  V30 3554 C 333.005 -0.986228 1.38591 0
M  V30 3555 O 334.19 -0.982541 1.67511 0
M  V30 3556 C 331.32 -1.38588 3.1845 0
M  V30 3557 C 330.274 -0.827115 4.19932 0
M  V30 3558 C 329.6 -2.00551 4.95665 0
M  V30 3559 C 330.9 0.16463 5.2204 0
M  V30 3560 H 332.594 0.371866 2.97082 0
M  V30 3561 H 330.14 0.180282 1.42867 0
M  V30 3562 H 332.093 -1.94023 3.74076 0
M  V30 3563 H 330.817 -2.09269 2.50747 0
M  V30 3564 H 329.476 -0.294702 3.65414 0
M  V30 3565 H 329.124 -2.6994 4.2443 0
M  V30 3566 H 328.824 -1.63784 5.64313 0
M  V30 3567 H 330.348 -2.56468 5.54127 0
M  V30 3568 H 331.762 -0.300699 5.72511 0
M  V30 3569 H 330.159 0.446813 5.98434 0
M  V30 3570 H 331.229 1.08905 4.72512 0
M  V30 3571 N 332.573 -1.56217 0.208337 0
M  V30 3572 C 333.52 -2.19699 -0.707192 0
M  V30 3573 C 334.49 -1.14836 -1.20008 0
M  V30 3574 O 335.675 -1.4314 -1.26157 0
M  V30 3575 C 332.815 -2.87061 -1.91546 0
M  V30 3576 C 331.928 -4.06483 -1.46271 0
M  V30 3577 C 331.063 -4.61665 -2.62752 0
M  V30 3578 C 330.102 -5.73417 -2.14147 0
M  V30 3579 N 329.239 -6.22948 -3.23853 0
M  V30 3580 H 334.079 -2.97575 -0.159111 0
M  V30 3581 H 331.616 -1.46948 -0.0667874 0
M  V30 3582 H 333.574 -3.24294 -2.62468 0
M  V30 3583 H 332.204 -2.11725 -2.43664 0
M  V30 3584 H 331.256 -3.74825 -0.648886 0
M  V30 3585 H 332.568 -4.87271 -1.06622 0
M  V30 3586 H 331.722 -5.01272 -3.41776 0
M  V30 3587 H 330.461 -3.80013 -3.05682 0
M  V30 3588 H 329.466 -5.33326 -1.33581 0
M  V30 3589 H 330.691 -6.56897 -1.72232 0
M  V30 3590 H 328.637 -5.44213 -3.6629 0
M  V30 3591 H 328.554 -6.98823 -2.88414 0
M  V30 3592 H 329.822 -6.6721 -4.03052 0
M  V30 3593 N 334.051 0.0651679 -1.57465 0
M  V30 3594 C 334.981 1.07693 -2.07182 0
M  V30 3595 C 335.962 1.39962 -0.966673 0
M  V30 3596 O 337.147 1.49475 -1.2398 0
M  V30 3597 C 334.277 2.3885 -2.52127 0
M  V30 3598 C 333.231 2.20917 -3.66579 0
M  V30 3599 C 332.557 3.57515 -3.97601 0
M  V30 3600 C 333.857 1.62493 -4.9638 0
M  V30 3601 H 335.551 0.663199 -2.91962 0
M  V30 3602 H 333.097 0.317569 -1.40455 0
M  V30 3603 H 335.05 3.09928 -2.85522 0
M  V30 3604 H 333.774 2.82215 -1.64384 0
M  V30 3605 H 332.433 1.52279 -3.33477 0
M  V30 3606 H 332.081 3.98463 -3.06979 0
M  V30 3607 H 331.781 3.46353 -4.74672 0
M  V30 3608 H 333.305 4.30013 -4.33499 0
M  V30 3609 H 334.719 2.23445 -5.27963 0
M  V30 3610 H 333.116 1.62009 -5.77818 0
M  V30 3611 H 334.186 0.587041 -4.81333 0
M  V30 3612 N 335.529 1.53961 0.336706 0
M  V30 3613 C 336.757 1.75483 1.09605 0
M  V30 3614 C 337.172 0.4972 1.82136 0
M  V30 3615 O 336.529 -0.53149 1.74589 0
M  V30 3616 C 336.58 2.93943 2.10428 0
M  V30 3617 O 336.301 4.14842 1.40846 0
M  V30 3618 C 337.802 3.27571 2.98684 0
M  V30 3619 H 335.022 0.586166 0.326574 0
M  V30 3620 H 337.566 2.00808 0.38683 0
M  V30 3621 H 335.721 2.70929 2.76905 0
M  V30 3622 H 336.135 4.81383 2.08255 0
M  V30 3623 H 337.609 4.13791 3.6535 0
M  V30 3624 H 338.086 2.44168 3.65074 0
M  V30 3625 H 338.692 3.52615 2.37787 0
M  V30 3626 N 337.007 -0.598083 1.45811 0
M  V30 3627 C 337.939 -1.72231 1.51225 0
M  V30 3628 C 338.952 -1.57757 0.402059 0
M  V30 3629 O 340.141 -1.65464 0.669624 0
M  V30 3630 C 337.241 -3.10331 1.3619 0
M  V30 3631 C 336.414 -3.50955 2.61054 0
M  V30 3632 C 335.473 -4.68055 2.40439 0
M  V30 3633 O 334.499 -4.74691 3.14097 0
M  V30 3634 N 335.701 -5.61941 1.45612 0
M  V30 3635 H 338.466 -1.68046 2.48154 0
M  V30 3636 H 336.027 -0.783637 1.41671 0
M  V30 3637 H 338.019 -3.86439 1.20195 0
M  V30 3638 H 336.589 -3.0897 0.475015 0
M  V30 3639 H 335.809 -2.64711 2.92099 0
M  V30 3640 H 337.097 -3.74858 3.44034 0
M  V30 3641 H 336.495 -5.59301 0.848431 0
M  V30 3642 H 335.052 -6.37542 1.35585 0
M  V30 3643 N 338.485 -1.33259 -0.841409 0
M  V30 3644 C 339.731 -1.24757 -1.59886 0
M  V30 3645 C 340.064 0.186913 -1.93298 0
M  V30 3646 O 339.339 1.12757 -1.5848 0
M  V30 3647 C 339.622 -2.12036 -2.91055 0
M  V30 3648 C 339.475 -3.63929 -2.6434 0
M  V30 3649 C 340.794 -1.9916 -3.92458 0
M  V30 3650 H 337.913 -0.454542 -0.580138 0
M  V30 3651 H 340.555 -1.63335 -0.970647 0
M  V30 3652 H 338.705 -1.79265 -3.44669 0
M  V30 3653 H 340.377 -4.06978 -2.17178 0
M  V30 3654 H 338.62 -3.85935 -1.98082 0
M  V30 3655 H 339.291 -4.20341 -3.57796 0
M  V30 3656 H 341.767 -2.27895 -3.48143 0
M  V30 3657 H 340.643 -2.62484 -4.82072 0
M  V30 3658 H 340.904 -0.963082 -4.31482 0
M  V30 3659 N 339.963 1.05934 -1.16686 0
M  V30 3660 C 340.911 2.15603 -0.872817 0
M  V30 3661 C 341.905 1.68647 0.159576 0
M  V30 3662 O 343.111 1.79995 0.0132125 0
M  V30 3663 H 339.486 0.703885 -0.264671 0
M  V30 3664 H 341.457 2.37613 -1.80507 0
M  V30 3665 C 340.206 3.45457 -0.394344 0
M  V30 3666 H 339.529 3.81984 -1.18019 0
M  V30 3667 H 340.969 4.2339 -0.227408 0
M  V30 3668 C 339.428 3.25021 0.88673 0
M  V30 3669 O 339.958 3.50906 1.95519 0
M  V30 3670 N 338.164 2.78437 0.831925 0
M  V30 3671 H 337.711 2.57572 -0.0377619 0
M  V30 3672 H 337.669 2.65144 1.68956 0
M  V30 3673 N 341.441 0.965919 1.2453 0
M  V30 3674 C 342.689 0.625593 1.92174 0
M  V30 3675 C 343.01 -0.841652 1.75901 0
M  V30 3676 O 342.28 -1.60061 1.12948 0
M  V30 3677 H 340.86 0.228388 0.71123 0
M  V30 3678 H 343.522 1.2266 1.51461 0
M  V30 3679 H 342.618 0.864653 2.99884 0
M  V30 3680 N 342.919 -1.39368 0.735821 0
M  V30 3681 C 343.866 -2.30599 0.0963825 0
M  V30 3682 C 344.836 -1.49257 -0.728794 0
M  V30 3683 O 346.021 -1.77941 -0.688588 0
M  V30 3684 C 343.161 -3.35596 -0.804305 0
M  V30 3685 C 342.274 -4.31987 0.0335761 0
M  V30 3686 C 341.409 -5.24053 -0.868461 0
M  V30 3687 C 340.448 -6.12095 -0.0258776 0
M  V30 3688 N 339.585 -6.96514 -0.883893 0
M  V30 3689 H 344.425 -2.8471 0.880002 0
M  V30 3690 H 341.962 -1.40188 0.445619 0
M  V30 3691 H 343.92 -3.95062 -1.34096 0
M  V30 3692 H 342.55 -2.82938 -1.55389 0
M  V30 3693 H 341.602 -3.74133 0.68766 0
M  V30 3694 H 342.914 -4.94074 0.685036 0
M  V30 3695 H 342.068 -5.88549 -1.47293 0
M  V30 3696 H 340.807 -4.62289 -1.5537 0
M  V30 3697 H 339.812 -5.4661 0.591386 0
M  V30 3698 H 341.037 -6.75923 0.656156 0
M  V30 3699 H 338.983 -6.37318 -1.55441 0
M  V30 3700 H 338.9 -7.55448 -0.288931 0
M  V30 3701 H 340.168 -7.65439 -1.4739 0
M  V30 3702 N 344.397 -0.483516 -1.5 0
M  V30 3703 C 345.644 0.0671597 -2.02389 0
M  V30 3704 C 345.972 1.38597 -1.36459 0
M  V30 3705 O 345.227 1.89634 -0.483458 0
M  V30 3706 C 345.526 0.286226 -3.56252 0
M  V30 3707 C 345.192 -0.952416 -4.40726 0
M  V30 3708 C 343.854 -1.29199 -4.63531 0
M  V30 3709 C 346.206 -1.77655 -4.89988 0
M  V30 3710 C 343.534 -2.45553 -5.32842 0
M  V30 3711 C 345.886 -2.93147 -5.60578 0
M  V30 3712 C 344.55 -3.27505 -5.81633 0
M  V30 3713 H 343.82 0.0245755 -0.740592 0
M  V30 3714 H 346.467 -0.640124 -1.80485 0
M  V30 3715 H 344.772 1.07587 -3.76739 0
M  V30 3716 H 346.469 0.726473 -3.94365 0
M  V30 3717 H 343.059 -0.677881 -4.23205 0
M  V30 3718 H 347.243 -1.52737 -4.72213 0
M  V30 3719 H 342.499 -2.72431 -5.47349 0
M  V30 3720 H 346.673 -3.57344 -5.97727 0
M  V30 3721 H 344.3 -4.1777 -6.35116 0
M  V30 3722 N 345.875 1.56104 -0.216619 0
M  V30 3723 C 347.286 1.844 0.292128 0
M  V30 3724 C 347.637 1.13788 1.59833 0
M  V30 3725 O 346.762 0.405888 2.12559 0
M  V30 3726 C 347.357 3.3452 0.53681 0
M  V30 3727 C 345.916 3.63151 0.989876 0
M  V30 3728 C 345.063 2.77255 0.0502302 0
M  V30 3729 H 348.014 1.52481 -0.439926 0
M  V30 3730 H 348.035 3.54459 1.38345 0
M  V30 3731 H 347.547 3.85885 -0.414031 0
M  V30 3732 H 345.648 3.17238 1.95425 0
M  V30 3733 H 345.761 4.71177 0.867698 0
M  V30 3734 H 344.125 2.48555 0.556117 0
M  V30 3735 H 344.908 3.31416 -0.89544 0
M  V30 3736 N 347.353 -0.0568162 1.57498 0
M  V30 3737 C 348.63 -0.786954 1.79071 0
M  V30 3738 C 349.01 -1.95028 0.80792 0
M  V30 3739 O 348.358 -2.27968 -0.155858 0
M  V30 3740 C 348.568 -1.24594 3.26002 0
M  V30 3741 C 349.916 -1.67323 3.90241 0
M  V30 3742 O 350.94 -1.34124 3.29984 0
M  V30 3743 O 349.799 -2.28842 4.9628 0
M  V30 3744 H 346.893 -0.378262 0.735423 0
M  V30 3745 H 349.439 -0.035734 1.69662 0
M  V30 3746 H 348.211 -0.41423 3.89101 0
M  V30 3747 H 347.834 -2.05803 3.40192 0
M  V30 3748 N 348.832 -1.54138 -0.328536 0
M  V30 3749 C 349.764 -1.79509 -1.4251 0
M  V30 3750 C 350.777 -0.67688 -1.48061 0
M  V30 3751 O 351.966 -0.953898 -1.50874 0
M  V30 3752 C 349.066 -1.89337 -2.81078 0
M  V30 3753 C 348.239 -3.19443 -2.98789 0
M  V30 3754 C 347.298 -3.20036 -4.17688 0
M  V30 3755 O 346.324 -3.93697 -4.11086 0
M  V30 3756 N 347.526 -2.43467 -5.26976 0
M  V30 3757 H 350.291 -2.74139 -1.21111 0
M  V30 3758 H 347.852 -1.53373 -0.518499 0
M  V30 3759 H 349.844 -1.87167 -3.58818 0
M  V30 3760 H 348.414 -1.01826 -2.95551 0
M  V30 3761 H 347.634 -3.34614 -2.08391 0
M  V30 3762 H 348.922 -4.05354 -3.07515 0
M  V30 3763 H 348.32 -1.83201 -5.35214 0
M  V30 3764 H 346.877 -2.4708 -6.03154 0
M  V30 3765 N 350.31 0.590341 -1.46126 0
M  V30 3766 C 351.721 1.17243 -1.45296 0
M  V30 3767 C 352.072 1.95281 -0.189723 0
M  V30 3768 O 351.197 2.04502 0.707674 0
M  V30 3769 C 351.792 2.13284 -2.6324 0
M  V30 3770 C 350.351 2.66832 -2.65476 0
M  V30 3771 C 349.498 1.42557 -2.3785 0
M  V30 3772 H 352.449 0.378692 -1.54116 0
M  V30 3773 H 352.47 2.96619 -2.38323 0
M  V30 3774 H 351.982 1.56459 -3.55165 0
M  V30 3775 H 350.083 3.27548 -1.77603 0
M  V30 3776 H 350.196 3.10088 -3.65215 0
M  V30 3777 H 348.56 1.72107 -1.87753 0
M  V30 3778 H 349.343 0.875741 -3.31942 0
M  V30 3779 N 351.788 1.33704 0.83433 0
M  V30 3780 C 353.037 1.24763 1.58484 0
M  V30 3781 C 353.35 -0.183775 1.94735 0
M  V30 3782 O 354.556 -0.395234 2.68608 0
M  V30 3783 C 353.012 2.18638 2.85876 0
M  V30 3784 C 352.62 3.66974 2.56971 0
M  V30 3785 C 354.364 2.18581 3.63899 0
M  V30 3786 C 352.271 4.5275 3.80488 0
M  V30 3787 H 351.201 0.463425 0.594772 0
M  V30 3788 H 353.852 1.58797 0.919551 0
M  V30 3789 H 352.234 1.77542 3.5397 0
M  V30 3790 H 353.408 4.16538 1.9706 0
M  V30 3791 H 351.723 3.69366 1.92244 0
M  V30 3792 H 354.32 2.79894 4.55591 0
M  V30 3793 H 354.663 1.18207 3.99165 0
M  V30 3794 H 355.196 2.58062 3.02735 0
M  V30 3795 H 351.935 5.54017 3.5035 0
M  V30 3796 H 351.455 4.07927 4.39722 0
M  V30 3797 H 353.134 4.66784 4.4802 0
M  V30 3798 N 353.266 -1.05314 1.17247 0
M  V30 3799 C 354.216 -2.11313 0.856196 0
M  V30 3800 C 355.2 -1.60013 -0.168694 0
M  V30 3801 O 356.392 -1.76968 0.0335624 0
M  V30 3802 C 353.521 -3.41301 0.369917 0
M  V30 3803 C 352.607 -3.99401 1.42616 0
M  V30 3804 N 352.998 -4.31481 2.63928 0
M  V30 3805 C 351.296 -4.27126 1.28373 0
M  V30 3806 C 351.997 -4.77799 3.31787 0
M  V30 3807 N 350.973 -4.77843 2.59166 0
M  V30 3808 H 354.775 -2.33976 1.77856 0
M  V30 3809 H 352.289 -1.2295 1.06099 0
M  V30 3810 H 354.286 -4.16713 0.124897 0
M  V30 3811 H 352.946 -3.20072 -0.546253 0
M  V30 3812 H 353.957 -4.21519 3.00902 0
M  V30 3813 H 350.634 -4.15289 0.429111 0
M  V30 3814 H 352.024 -5.11743 4.35395 0
M  V30 3815 N 354.744 -0.972509 -1.24016 0
M  V30 3816 C 355.993 -0.632603 -1.91523 0
M  V30 3817 C 356.306 0.836641 -1.76804 0
M  V30 3818 O 357.512 1.28728 -2.39043 0
M  V30 3819 C 355.968 -1.08082 -3.43287 0
M  V30 3820 C 355.576 -2.57386 -3.66683 0
M  V30 3821 C 357.32 -0.814288 -4.16617 0
M  V30 3822 C 355.227 -2.95915 -5.12043 0
M  V30 3823 H 354.157 -0.232898 -0.717129 0
M  V30 3824 H 356.808 -1.17936 -1.40582 0
M  V30 3825 H 355.19 -0.462339 -3.93292 0
M  V30 3826 H 356.364 -3.24405 -3.27258 0
M  V30 3827 H 354.679 -2.81701 -3.06649 0
M  V30 3828 H 357.276 -1.0781 -5.23718 0
M  V30 3829 H 357.619 0.24955 -4.15551 0
M  V30 3830 H 358.152 -1.39397 -3.72577 0
M  V30 3831 H 354.891 -4.0139 -5.18234 0
M  V30 3832 H 354.411 -2.33584 -5.52448 0
M  V30 3833 H 356.09 -2.86086 -5.80314 0
M  V30 3834 N 356.222 1.38976 -0.743202 0
M  V30 3835 C 357.468 2.0064 -0.295189 0
M  V30 3836 C 357.801 1.5885 1.11716 0
M  V30 3837 O 357.076 0.821181 1.76315 0
M  V30 3838 C 357.359 3.578 -0.406318 0
M  V30 3839 C 357.212 4.09586 -1.85903 0
M  V30 3840 C 358.531 4.39616 0.206439 0
M  V30 3841 H 355.65 0.728935 -0.108733 0
M  V30 3842 H 358.292 1.65067 -0.940897 0
M  V30 3843 H 356.442 3.88235 0.143419 0
M  V30 3844 H 358.114 3.89837 -2.46627 0
M  V30 3845 H 356.357 3.6284 -2.3776 0
M  V30 3846 H 357.028 5.18708 -1.888 0
M  V30 3847 H 359.504 4.15273 -0.262283 0
M  V30 3848 H 358.38 5.48812 0.0983819 0
M  V30 3849 H 358.641 4.22754 1.2935 0
M  V30 3850 N 357.7 0.491464 1.49741 0
M  V30 3851 C 358.93 -0.0534375 2.06531 0
M  V30 3852 C 359.338 -1.32233 1.35318 0
M  V30 3853 O 358.681 -1.78781 0.422243 0
M  V30 3854 C 358.743 -0.387034 3.57411 0
M  V30 3855 C 358.407 0.782764 4.50246 0
M  V30 3856 C 359.404 1.67059 4.92329 0
M  V30 3857 C 357.089 0.978866 4.9267 0
M  V30 3858 C 359.083 2.73874 5.75562 0
M  V30 3859 C 356.77 2.05022 5.75682 0
M  V30 3860 C 357.768 2.92851 6.17031 0
M  V30 3861 O 357.456 3.98138 6.98385 0
M  V30 3862 H 357.188 0.0129324 0.675876 0
M  V30 3863 H 359.742 0.685238 1.93633 0
M  V30 3864 H 357.972 -1.17918 3.68283 0
M  V30 3865 H 359.661 -0.869419 3.96479 0
M  V30 3866 H 360.427 1.53086 4.60206 0
M  V30 3867 H 356.306 0.304646 4.59992 0
M  V30 3868 H 359.85 3.42458 6.07757 0
M  V30 3869 H 355.747 2.18993 6.07217 0
M  V30 3870 H 356.515 3.95374 7.16674 0
M  V30 3871 N 359.178 -1.55987 0.224894 0
M  V30 3872 C 360.424 -1.98684 -0.406502 0
M  V30 3873 C 360.757 -1.11248 -1.59177 0
M  V30 3874 O 360.032 -0.170909 -1.93748 0
M  V30 3875 C 360.315 -3.50218 -0.837808 0
M  V30 3876 C 360.168 -4.48426 0.351332 0
M  V30 3877 C 361.487 -4.06243 -1.69278 0
M  V30 3878 H 358.606 -0.722337 -0.146283 0
M  V30 3879 H 361.248 -1.87255 0.321799 0
M  V30 3880 H 359.398 -3.60089 -1.45837 0
M  V30 3881 H 361.07 -4.50562 0.989526 0
M  V30 3882 H 359.313 -4.22159 0.998207 0
M  V30 3883 H 359.984 -5.52 0.00655905 0
M  V30 3884 H 362.46 -3.99337 -1.16914 0
M  V30 3885 H 361.336 -5.12581 -1.96346 0
M  V30 3886 H 361.597 -3.53332 -2.65723 0
M  V30 3887 N 360.656 0.0484629 -1.57525 0
M  V30 3888 C 362.067 0.597486 -1.76881 0
M  V30 3889 C 362.418 1.76664 -0.853475 0
M  V30 3890 O 361.543 2.16357 -0.0433656 0
M  V30 3891 C 362.138 1.09066 -3.20765 0
M  V30 3892 C 360.697 1.58535 -3.41385 0
M  V30 3893 C 359.844 0.514868 -2.72478 0
M  V30 3894 H 362.795 -0.177758 -1.57701 0
M  V30 3895 H 362.816 1.95875 -3.2621 0
M  V30 3896 H 362.328 0.239521 -3.8736 0
M  V30 3897 H 360.429 2.45898 -2.79937 0
M  V30 3898 H 360.542 1.64622 -4.49929 0
M  V30 3899 H 358.906 0.965407 -2.35695 0
M  V30 3900 H 359.689 -0.32648 -3.41744 0
M  V30 3901 N 362.134 1.5431 0.320358 0
M  V30 3902 C 363.359 1.76954 1.08175 0
M  V30 3903 C 363.784 0.518193 1.80821 0
M  V30 3904 O 363.142 -0.530411 1.73368 0
M  V30 3905 C 363.19 2.96451 2.05303 0
M  V30 3906 O 362.294 2.68221 3.13259 0
M  V30 3907 H 361.635 0.586275 0.311733 0
M  V30 3908 H 364.165 2.01342 0.363676 0
M  V30 3909 H 364.175 3.23887 2.48116 0
M  V30 3910 H 362.85 3.87196 1.51829 0
M  V30 3911 H 361.427 2.51744 2.75099 0
M  V30 3912 N 363.613 -0.582584 1.46437 0
M  V30 3913 C 364.563 -1.68654 1.53426 0
M  V30 3914 C 365.547 -1.55971 0.395194 0
M  V30 3915 O 366.739 -1.64884 0.643612 0
M  V30 3916 C 363.868 -3.07439 1.52762 0
M  V30 3917 C 362.954 -3.25418 2.71963 0
M  V30 3918 N 363.345 -3.13556 3.96883 0
M  V30 3919 C 361.643 -3.56357 2.68189 0
M  V30 3920 C 362.344 -3.33543 4.76575 0
M  V30 3921 N 361.32 -3.58704 4.08451 0
M  V30 3922 H 365.122 -1.58014 2.47808 0
M  V30 3923 H 362.636 -0.786617 1.42078 0
M  V30 3924 H 364.633 -3.86671 1.55857 0
M  V30 3925 H 363.293 -3.1921 0.594573 0
M  V30 3926 H 364.304 -2.9142 4.28129 0
M  V30 3927 H 360.981 -3.74812 1.83908 0
M  V30 3928 H 362.371 -3.29555 5.85528 0
M  V30 3929 N 365.091 -1.34144 -0.827227 0
M  V30 3930 C 366.021 -1.28005 -1.95287 0
M  V30 3931 C 367.002 -0.158321 -1.69362 0
M  V30 3932 O 368.187 -0.349987 -1.9102 0
M  V30 3933 C 365.317 -1.03036 -3.31664 0
M  V30 3934 C 364.271 -2.11628 -3.72019 0
M  V30 3935 C 363.597 -1.71854 -5.0633 0
M  V30 3936 C 364.897 -3.53417 -3.8457 0
M  V30 3937 H 366.591 -2.22187 -2.00682 0
M  V30 3938 H 364.137 -1.0696 -0.964135 0
M  V30 3939 H 366.09 -0.973863 -4.09993 0
M  V30 3940 H 364.814 -0.0529391 -3.26557 0
M  V30 3941 H 363.473 -2.16339 -2.95961 0
M  V30 3942 H 363.121 -0.727841 -4.97706 0
M  V30 3943 H 362.821 -2.44531 -5.34302 0
M  V30 3944 H 364.345 -1.67692 -5.87122 0
M  V30 3945 H 365.759 -3.51142 -4.5318 0
M  V30 3946 H 364.156 -4.24679 -4.2399 0
M  V30 3947 H 365.226 -3.91072 -2.86689 0
M  V30 3948 N 366.569 1.04691 -1.17803 0
M  V30 3949 C 367.519 2.10856 -0.867391 0
M  V30 3950 C 368.503 1.601 0.160206 0
M  V30 3951 O 369.695 1.76948 -0.042947 0
M  V30 3952 C 366.824 3.411 -0.388012 0
M  V30 3953 C 365.91 3.9864 -1.44732 0
M  V30 3954 N 366.301 4.30075 -2.66212 0
M  V30 3955 C 364.599 4.26439 -1.30637 0
M  V30 3956 C 365.3 4.76033 -3.34317 0
M  V30 3957 N 364.276 4.76462 -2.61696 0
M  V30 3958 H 368.078 2.33029 -1.79094 0
M  V30 3959 H 365.592 1.22386 -1.0675 0
M  V30 3960 H 367.589 4.16641 -0.146994 0
M  V30 3961 H 366.249 3.20357 0.529271 0
M  V30 3962 H 367.26 4.19917 -3.03134 0
M  V30 3963 H 363.937 4.15056 -0.451129 0
M  V30 3964 H 365.327 5.09427 -4.38103 0
M  V30 3965 N 368.047 0.979072 1.23499 0
M  V30 3966 C 368.997 0.489378 2.22686 0
M  V30 3967 C 369.981 -0.434871 1.54912 0
M  V30 3968 O 371.173 -0.263941 1.75021 0
M  V30 3969 C 368.302 -0.208178 3.42668 0
M  V30 3970 C 367.388 0.735563 4.17672 0
M  V30 3971 N 367.779 1.87763 4.69658 0
M  V30 3972 C 366.077 0.548625 4.42613 0
M  V30 3973 C 366.778 2.46886 5.26709 0
M  V30 3974 N 365.754 1.75287 5.14563 0
M  V30 3975 H 369.556 1.36062 2.60508 0
M  V30 3976 H 367.07 0.83958 1.39014 0
M  V30 3977 H 369.067 -0.576295 4.12898 0
M  V30 3978 H 367.727 -1.07572 3.06363 0
M  V30 3979 H 368.738 2.25885 4.66043 0
M  V30 3980 H 365.415 -0.274006 4.166 0
M  V30 3981 H 366.805 3.43326 5.77561 0
M  V30 3982 N 369.525 -1.3858 0.750561 0
M  V30 3983 C 370.458 -2.28095 0.0693139 0
M  V30 3984 C 371.436 -1.45217 -0.731491 0
M  V30 3985 O 372.62 -1.74587 -0.71076 0
M  V30 3986 C 369.747 -3.26282 -0.90871 0
M  V30 3987 C 368.793 -4.26056 -0.194507 0
M  V30 3988 S 369.626 -5.24026 1.10257 0
M  V30 3989 C 370.782 -6.2577 0.127542 0
M  V30 3990 H 371.015 -2.85526 0.8284 0
M  V30 3991 H 368.548 -1.44536 0.543014 0
M  V30 3992 H 370.506 -3.83367 -1.46766 0
M  V30 3993 H 369.167 -2.6784 -1.64075 0
M  V30 3994 H 368.36 -4.95249 -0.93512 0
M  V30 3995 H 367.962 -3.72852 0.292837 0
M  V30 3996 H 370.254 -6.73796 -0.707516 0
M  V30 3997 H 371.197 -7.03712 0.787044 0
M  V30 3998 H 371.605 -5.63938 -0.251803 0
M  V30 3999 N 371.003 -0.499398 -1.49478 0
M  V30 4000 C 371.933 0.269244 -2.31943 0
M  V30 4001 C 372.914 0.964054 -1.40143 0
M  V30 4002 O 374.099 0.955767 -1.69052 0
M  V30 4003 C 371.229 1.33504 -3.20615 0
M  V30 4004 C 370.183 0.760202 -4.21195 0
M  V30 4005 C 369.509 1.9264 -4.98792 0
M  V30 4006 C 370.809 -0.247661 -5.21712 0
M  V30 4007 H 372.503 -0.419082 -2.96452 0
M  V30 4008 H 370.049 -0.202988 -1.42562 0
M  V30 4009 H 372.002 1.88048 -3.77115 0
M  V30 4010 H 370.726 2.05253 -2.54045 0
M  V30 4011 H 369.385 0.23653 -3.65836 0
M  V30 4012 H 369.033 2.63154 -4.28671 0
M  V30 4013 H 368.733 1.54785 -5.66847 0
M  V30 4014 H 370.257 2.4762 -5.58137 0
M  V30 4015 H 371.671 0.209579 -5.72917 0
M  V30 4016 H 370.068 -0.541962 -5.97648 0
M  V30 4017 H 371.138 -1.16409 -4.7072 0
M  V30 4018 N 372.481 1.55866 -0.233164 0
M  V30 4019 C 373.728 1.98603 0.395374 0
M  V30 4020 C 374.056 1.12105 1.58942 0
M  V30 4021 O 373.311 0.168656 1.94972 0
M  V30 4022 C 373.61 3.46856 0.861724 0
M  V30 4023 C 373.276 4.50348 -0.223066 0
M  V30 4024 C 371.938 4.78371 -0.521038 0
M  V30 4025 C 374.29 5.12355 -0.956124 0
M  V30 4026 C 371.618 5.6568 -1.55638 0
M  V30 4027 C 373.97 6.00786 -1.98089 0
M  V30 4028 C 372.634 6.27148 -2.28565 0
M  V30 4029 H 371.904 0.726739 0.144677 0
M  V30 4030 H 374.551 1.88491 -0.338114 0
M  V30 4031 H 372.856 3.5423 1.67418 0
M  V30 4032 H 374.553 3.77302 1.35809 0
M  V30 4033 H 371.143 4.28596 0.0193234 0
M  V30 4034 H 375.327 4.90765 -0.739166 0
M  V30 4035 H 370.583 5.84365 -1.798 0
M  V30 4036 H 374.757 6.4788 -2.55391 0
M  V30 4037 H 372.384 6.94597 -3.08932 0
M  V30 4038 N 373.959 -0.0401083 1.57549 0
M  V30 4039 C 374.869 -1.06133 2.0922 0
M  V30 4040 C 375.885 -1.40356 1.0284 0
M  V30 4041 O 377.061 -1.49897 1.34509 0
M  V30 4042 C 374.126 -2.34658 2.55218 0
M  V30 4043 C 373.187 -2.07117 3.76033 0
M  V30 4044 C 372.42 -3.29514 4.19829 0
M  V30 4045 O 372.643 -4.39794 3.63232 0
M  V30 4046 O 371.577 -3.15863 5.12362 0
M  V30 4047 H 375.403 -0.652244 2.96613 0
M  V30 4048 H 372.988 -0.256368 1.47184 0
M  V30 4049 H 374.87 -3.10239 2.85184 0
M  V30 4050 H 373.545 -2.74883 1.70941 0
M  V30 4051 H 372.452 -1.29139 3.51104 0
M  V30 4052 H 373.785 -1.71754 4.61261 0
M  V30 4053 N 375.437 -1.54477 -0.31217 0
M  V30 4054 C 376.367 -1.87652 -1.38957 0
M  V30 4055 C 377.348 -0.734358 -1.53431 0
M  V30 4056 O 378.533 -0.98911 -1.67123 0
M  V30 4057 C 375.663 -2.11396 -2.75552 0
M  V30 4058 C 374.617 -3.27243 -2.75855 0
M  V30 4059 C 373.943 -3.36382 -4.15633 0
M  V30 4060 C 375.243 -4.64622 -2.38587 0
M  V30 4061 H 376.937 -2.77887 -1.11442 0
M  V30 4062 H 374.483 -1.33707 -0.534655 0
M  V30 4063 H 376.436 -2.33189 -3.51 0
M  V30 4064 H 375.16 -1.17921 -3.04569 0
M  V30 4065 H 373.819 -3.05356 -2.02863 0
M  V30 4066 H 373.467 -2.40445 -4.41809 0
M  V30 4067 H 373.167 -4.14249 -4.1674 0
M  V30 4068 H 374.691 -3.60422 -4.92877 0
M  V30 4069 H 376.105 -4.86219 -3.03749 0
M  V30 4070 H 374.502 -5.45121 -2.50925 0
M  V30 4071 H 375.572 -4.66097 -1.33723 0
M  V30 4072 N 376.915 0.57481 -1.46744 0
M  V30 4073 C 378.162 1.33272 -1.52462 0
M  V30 4074 C 378.49 1.93669 -0.179572 0
M  V30 4075 O 377.745 1.7743 0.825664 0
M  V30 4076 C 378.044 2.476 -2.57738 0
M  V30 4077 C 377.71 2.05146 -4.01529 0
M  V30 4078 C 376.372 1.93284 -4.40676 0
M  V30 4079 C 378.724 1.72506 -4.91824 0
M  V30 4080 C 376.052 1.47049 -5.67973 0
M  V30 4081 C 378.404 1.27748 -6.19567 0
M  V30 4082 C 377.068 1.14468 -6.57612 0
M  V30 4083 H 376.338 0.487678 -0.557899 0
M  V30 4084 H 378.985 0.646456 -1.80259 0
M  V30 4085 H 377.29 3.21708 -2.23632 0
M  V30 4086 H 378.987 3.05807 -2.5939 0
M  V30 4087 H 375.577 2.15316 -3.7059 0
M  V30 4088 H 379.761 1.80552 -4.62293 0
M  V30 4089 H 375.017 1.35417 -5.96215 0
M  V30 4090 H 379.191 1.01547 -6.88957 0
M  V30 4091 H 376.818 0.78419 -7.56145 0
M  V30 4092 N 378.394 1.34581 0.820102 0
M  V30 4093 C 379.341 1.2639 1.93117 0
M  V30 4094 C 380.311 0.138554 1.65521 0
M  V30 4095 O 381.496 0.320004 1.88097 0
M  V30 4096 C 378.636 1.02812 3.29429 0
M  V30 4097 C 377.749 2.24146 3.693 0
M  V30 4098 C 376.884 1.93829 4.94574 0
M  V30 4099 C 375.923 3.1129 5.27034 0
M  V30 4100 N 375.06 2.80838 6.43486 0
M  V30 4101 H 379.9 2.21408 1.99455 0
M  V30 4102 H 377.437 1.10077 0.975784 0
M  V30 4103 H 379.395 0.871788 4.0799 0
M  V30 4104 H 378.025 0.114612 3.22596 0
M  V30 4105 H 377.077 2.50691 2.86109 0
M  V30 4106 H 378.389 3.11899 3.89257 0
M  V30 4107 H 377.543 1.74948 5.80929 0
M  V30 4108 H 376.282 1.03341 4.76626 0
M  V30 4109 H 375.287 3.30764 4.39175 0
M  V30 4110 H 376.512 4.02561 5.4692 0
M  V30 4111 H 374.458 1.92929 6.26988 0
M  V30 4112 H 374.375 3.62123 6.63629 0
M  V30 4113 H 375.643 2.65467 7.32903 0
M  V30 4114 N 379.872 -1.04064 1.18357 0
M  V30 4115 C 380.82 -2.14187 0.907007 0
M  V30 4116 C 381.814 -1.68879 -0.132725 0
M  V30 4117 O 383.02 -1.79993 0.0154248 0
M  V30 4118 H 379.395 -0.699585 0.275835 0
M  V30 4119 H 381.366 -2.34711 1.84264 0
M  V30 4120 C 380.115 -3.44785 0.449254 0
M  V30 4121 H 379.438 -3.80058 1.24081 0
M  V30 4122 H 380.878 -4.22974 0.294737 0
M  V30 4123 C 379.337 -3.26391 -0.834909 0
M  V30 4124 O 379.867 -3.53973 -1.89911 0
M  V30 4125 N 378.073 -2.79726 -0.787523 0
M  V30 4126 H 377.62 -2.5748 0.0787347 0
M  V30 4127 H 377.578 -2.67798 -1.64716 0
M  V30 4128 N 381.35 -0.985608 -1.22978 0
M  V30 4129 C 382.313 -0.535071 -2.22867 0
M  V30 4130 C 383.313 0.378123 -1.56291 0
M  V30 4131 O 384.503 0.171092 -1.73358 0
M  V30 4132 C 381.635 0.222702 -3.40172 0
M  V30 4133 H 382.828 -1.41835 -2.6424 0
M  V30 4134 H 380.381 -0.772042 -1.35901 0
M  V30 4135 H 381.116 1.12229 -3.04262 0
M  V30 4136 H 380.901 -0.43288 -3.89703 0
M  V30 4137 H 382.391 0.526335 -4.1427 0
M  V30 4138 N 382.828 1.3818 -0.7579 0
M  V30 4139 C 383.761 2.28055 -0.0814093 0
M  V30 4140 C 384.739 1.45603 0.723779 0
M  V30 4141 O 385.923 1.74961 0.701491 0
M  V30 4142 C 383.05 3.2676 0.891394 0
M  V30 4143 C 382.096 4.26153 0.171909 0
M  V30 4144 S 382.929 5.23434 -1.13035 0
M  V30 4145 C 384.085 6.25694 -0.160727 0
M  V30 4146 H 384.318 2.85082 -0.84353 0
M  V30 4147 H 381.851 1.44246 -0.550671 0
M  V30 4148 H 383.809 3.8414 1.44731 0
M  V30 4149 H 382.47 2.68706 1.62652 0
M  V30 4150 H 381.663 4.95738 0.908843 0
M  V30 4151 H 381.265 3.72691 -0.312606 0
M  V30 4152 H 383.557 6.74161 0.671773 0
M  V30 4153 H 384.5 7.03285 -0.824353 0
M  V30 4154 H 384.908 5.64064 0.221892 0
M  V30 4155 N 384.306 0.507319 1.49211 0
M  V30 4156 C 385.722 0.163682 1.58758 0
M  V30 4157 C 385.922 -1.33208 1.51188 0
M  V30 4158 O 384.978 -2.10855 1.38911 0
M  V30 4159 C 386.291 0.746095 2.91297 0
M  V30 4160 C 387.839 0.712773 3.04776 0
M  V30 4161 C 388.314 1.27336 4.39943 0
M  V30 4162 N 389.805 1.23433 4.46451 0
M  V30 4163 C 390.54 1.63821 5.495 0
M  V30 4164 N 390.036 2.11832 6.5962 0
M  V30 4165 N 391.829 1.55198 5.4025 0
M  V30 4166 H 383.98 1.47972 1.52375 0
M  V30 4167 H 386.243 0.614147 0.722168 0
M  V30 4168 H 385.949 1.79534 3.02424 0
M  V30 4169 H 385.823 0.210137 3.76614 0
M  V30 4170 H 388.21 -0.327656 2.93275 0
M  V30 4171 H 388.291 1.28595 2.21127 0
M  V30 4172 H 387.935 2.3126 4.52196 0
M  V30 4173 H 387.865 0.676066 5.22242 0
M  V30 4174 H 390.356 0.882627 3.67448 0
M  V30 4175 H 390.669 2.40703 7.34358 0
M  V30 4176 H 389.014 2.1581 6.60644 0
M  V30 4177 H 392.205 1.17505 4.53112 0
M  V30 4178 H 392.378 1.86997 6.20432 0
M  V30 4179 N 385.784 -1.5574 0.241426 0
M  V30 4180 C 386.747 -2.19877 -0.647063 0
M  V30 4181 C 387.747 -1.16642 -1.10686 0
M  V30 4182 O 388.937 -1.41757 -1.01245 0
M  V30 4183 C 386.069 -2.83797 -1.88871 0
M  V30 4184 H 387.262 -2.99772 -0.087574 0
M  V30 4185 H 384.815 -1.56298 -0.00813574 0
M  V30 4186 H 385.55 -2.07824 -2.48957 0
M  V30 4187 H 385.335 -3.59414 -1.56728 0
M  V30 4188 H 386.825 -3.32898 -2.52129 0
M  V30 4189 N 387.262 0.0317525 -1.57568 0
M  V30 4190 C 388.49 0.734949 -1.93407 0
M  V30 4191 C 388.905 1.69036 -0.84096 0
M  V30 4192 O 388.262 1.81582 0.182836 0
M  V30 4193 C 388.313 1.49432 -3.29169 0
M  V30 4194 O 388.034 0.577261 -4.3428 0
M  V30 4195 C 389.535 2.29492 -3.79273 0
M  V30 4196 H 386.755 0.206706 -0.638368 0
M  V30 4197 H 389.299 -0.00992046 -2.04498 0
M  V30 4198 H 387.454 2.1911 -3.19483 0
M  V30 4199 H 387.868 1.10952 -5.1263 0
M  V30 4200 H 389.342 2.78172 -4.76785 0
M  V30 4201 H 389.819 3.10794 -3.10328 0
M  V30 4202 H 390.425 1.64894 -3.92033 0
M  V30 4203 N 388.74 1.54641 0.303973 0
M  V30 4204 C 389.986 1.74038 1.04109 0
M  V30 4205 C 390.319 0.523051 1.87024 0
M  V30 4206 O 389.594 -0.479874 1.88487 0
M  V30 4207 C 389.877 3.02761 1.94955 0
M  V30 4208 C 389.73 4.34787 1.1524 0
M  V30 4209 C 391.049 3.27336 2.94175 0
M  V30 4210 H 388.168 0.63323 0.377079 0
M  V30 4211 H 390.81 1.87354 0.316001 0
M  V30 4212 H 388.96 2.9154 2.56782 0
M  V30 4213 H 390.632 4.57922 0.557236 0
M  V30 4214 H 388.875 4.31407 0.455053 0
M  V30 4215 H 389.546 5.21116 1.8205 0
M  V30 4216 H 392.022 3.38148 2.42477 0
M  V30 4217 H 390.898 4.18726 3.54908 0
M  V30 4218 H 391.159 2.45491 3.67677 0
M  V30 4219 N 390.218 -0.567019 1.47046 0
M  V30 4220 C 391.128 -1.70247 1.6141 0
M  V30 4221 C 392.144 -1.66746 0.497157 0
M  V30 4222 O 393.32 -1.86371 0.763389 0
M  V30 4223 C 390.385 -3.06756 1.61561 0
M  V30 4224 C 389.446 -3.21399 2.84607 0
M  V30 4225 C 388.679 -4.51396 2.84741 0
M  V30 4226 O 388.902 -5.36255 1.94388 0
M  V30 4227 O 387.836 -4.69621 3.76483 0
M  V30 4228 H 391.662 -1.61073 2.57467 0
M  V30 4229 H 389.247 -0.735894 1.30019 0
M  V30 4230 H 391.129 -3.8801 1.64396 0
M  V30 4231 H 389.804 -3.16333 0.686684 0
M  V30 4232 H 388.711 -2.39579 2.8732 0
M  V30 4233 H 390.044 -3.16721 3.76761 0
M  V30 4234 N 391.696 -1.35014 -0.812953 0
M  V30 4235 C 392.646 -1.23959 -1.91359 0
M  V30 4236 C 393.63 -0.136306 -1.60322 0
M  V30 4237 O 394.822 -0.366925 -1.73155 0
M  V30 4238 C 391.951 -1.00736 -3.28188 0
M  V30 4239 C 391.037 -2.15426 -3.65311 0
M  V30 4240 N 391.428 -3.40612 -3.73921 0
M  V30 4241 C 389.726 -2.06672 -3.95225 0
M  V30 4242 C 390.427 -4.15994 -4.06601 0
M  V30 4243 N 389.403 -3.44685 -4.20349 0
M  V30 4244 H 393.205 -2.18815 -1.96208 0
M  V30 4245 H 390.719 -1.27395 -1.00718 0
M  V30 4246 H 392.716 -0.909052 -4.06868 0
M  V30 4247 H 391.376 -0.067586 -3.2463 0
M  V30 4248 H 392.387 -3.75043 -3.5716 0
M  V30 4249 H 389.064 -1.20511 -3.99729 0
M  V30 4250 H 390.454 -5.24145 -4.20382 0
M  V30 4251 N 393.175 1.03435 -1.18907 0
M  V30 4252 C 394.107 2.1165 -0.879595 0
M  V30 4253 C 395.12 1.62316 0.125439 0
M  V30 4254 O 396.309 1.78201 -0.103245 0
M  V30 4255 C 393.409 3.37622 -0.294042 0
M  V30 4256 C 392.582 4.16166 -1.34629 0
M  V30 4257 C 391.641 5.20457 -0.775274 0
M  V30 4258 O 390.667 5.50379 -1.4516 0
M  V30 4259 N 391.869 5.78949 0.424126 0
M  V30 4260 H 394.634 2.38791 -1.81105 0
M  V30 4261 H 392.195 1.19681 -1.09032 0
M  V30 4262 H 394.187 4.04572 0.101679 0
M  V30 4263 H 392.757 3.07873 0.541575 0
M  V30 4264 H 391.977 3.44444 -1.91707 0
M  V30 4265 H 393.265 4.65432 -2.05549 0
M  V30 4266 H 392.663 5.56948 0.991209 0
M  V30 4267 H 391.22 6.47334 0.761691 0
M  V30 4268 N 394.653 0.992116 1.22453 0
M  V30 4269 C 395.563 0.55065 2.28046 0
M  V30 4270 C 396.579 -0.400189 1.69335 0
M  V30 4271 O 397.755 -0.267215 1.99619 0
M  V30 4272 C 394.82 -0.128496 3.46462 0
M  V30 4273 C 393.881 0.865208 4.20491 0
M  V30 4274 C 393.114 0.218377 5.33253 0
M  V30 4275 O 393.337 -0.987894 5.6178 0
M  V30 4276 O 392.271 0.922845 5.94783 0
M  V30 4277 H 396.097 1.4291 2.67975 0
M  V30 4278 H 393.682 0.760326 1.28606 0
M  V30 4279 H 395.564 -0.508947 4.18315 0
M  V30 4280 H 394.239 -0.981526 3.0846 0
M  V30 4281 H 393.146 1.29658 3.50913 0
M  V30 4282 H 394.479 1.68741 4.62371 0
M  V30 4283 N 396.131 -1.37776 0.765217 0
M  V30 4284 C 397.079 -2.32209 0.134798 0
M  V30 4285 C 398.073 -1.54607 -0.692315 0
M  V30 4286 O 399.279 -1.70052 -0.590109 0
M  V30 4287 H 395.654 -0.751591 0.0248005 0
M  V30 4288 H 397.625 -2.8297 0.947119 0
M  V30 4289 C 396.374 -3.39841 -0.735063 0
M  V30 4290 H 395.697 -3.99654 -0.107991 0
M  V30 4291 H 397.137 -4.08296 -1.14326 0
M  V30 4292 C 395.596 -2.79378 -1.88281 0
M  V30 4293 O 396.126 -2.69608 -2.97783 0
M  V30 4294 N 394.332 -2.37016 -1.68142 0
M  V30 4295 H 393.879 -2.45162 -0.790772 0
M  V30 4296 H 393.837 -1.96905 -2.45104 0
M  V30 4297 N 397.609 -0.515225 -1.4894 0
M  V30 4298 C 398.541 0.292481 -2.27326 0
M  V30 4299 C 399.554 0.917838 -1.3446 0
M  V30 4300 O 400.743 0.798772 -1.5963 0
M  V30 4301 C 397.843 1.42803 -3.07344 0
M  V30 4302 C 397.016 0.907347 -4.27885 0
M  V30 4303 C 396.075 1.92222 -4.89834 0
M  V30 4304 O 395.101 1.48506 -5.49486 0
M  V30 4305 N 396.303 3.25355 -4.80754 0
M  V30 4306 H 399.068 -0.379721 -2.97285 0
M  V30 4307 H 396.629 -0.348638 -1.58102 0
M  V30 4308 H 398.621 2.10481 -3.45658 0
M  V30 4309 H 397.191 2.00414 -2.39902 0
M  V30 4310 H 396.411 0.0550218 -3.94162 0
M  V30 4311 H 397.699 0.538108 -5.05946 0
M  V30 4312 H 397.097 3.6355 -4.33414 0
M  V30 4313 H 395.654 3.88707 -5.23211 0
M  V30 4314 N 399.087 1.5561 -0.249682 0
M  V30 4315 C 400.498 1.84979 0.252949 0
M  V30 4316 C 400.849 1.17153 1.57384 0
M  V30 4317 O 399.974 0.450884 2.11651 0
M  V30 4318 C 400.569 3.35584 0.465732 0
M  V30 4319 C 399.128 3.65169 0.912624 0
M  V30 4320 C 398.275 2.77299 -0.00859085 0
M  V30 4321 H 401.226 1.51513 -0.47217 0
M  V30 4322 H 401.247 3.57313 1.30795 0
M  V30 4323 H 400.759 3.8492 -0.49579 0
M  V30 4324 H 398.86 3.21312 1.88652 0
M  V30 4325 H 398.973 4.72912 0.767559 0
M  V30 4326 H 397.337 2.49678 0.50327 0
M  V30 4327 H 398.12 3.29442 -0.965537 0
M  V30 4328 N 400.565 -0.0233959 1.57583 0
M  V30 4329 C 401.79 -0.728376 1.94189 0
M  V30 4330 C 402.215 -1.67793 0.850119 0
M  V30 4331 O 401.573 -1.80262 -0.19371 0
M  V30 4332 C 401.621 -1.45669 3.29868 0
M  V30 4333 O 400.725 -2.57013 3.22518 0
M  V30 4334 H 400.066 -0.195493 0.63457 0
M  V30 4335 H 402.596 0.0228214 2.04587 0
M  V30 4336 H 402.606 -1.82535 3.6489 0
M  V30 4337 H 401.281 -0.760314 4.08891 0
M  V30 4338 H 399.858 -2.22648 2.99136 0
M  V30 4339 N 402.043 -1.548 -0.295768 0
M  V30 4340 C 402.973 -1.89115 -1.36959 0
M  V30 4341 C 403.954 -0.75059 -1.52644 0
M  V30 4342 O 405.139 -1.00678 -1.66065 0
M  V30 4343 C 402.269 -2.14307 -2.73295 0
M  V30 4344 C 401.223 -3.30151 -2.72368 0
M  V30 4345 C 400.549 -3.40772 -4.12042 0
M  V30 4346 C 401.849 -4.67126 -2.33646 0
M  V30 4347 H 403.543 -2.79053 -1.08488 0
M  V30 4348 H 401.089 -1.34266 -0.520443 0
M  V30 4349 H 403.042 -2.36898 -3.48507 0
M  V30 4350 H 401.766 -1.21145 -3.03301 0
M  V30 4351 H 400.425 -3.0749 -1.99613 0
M  V30 4352 H 400.073 -2.45117 -4.39234 0
M  V30 4353 H 399.773 -4.18645 -4.12322 0
M  V30 4354 H 401.297 -3.6563 -4.89027 0
M  V30 4355 H 402.711 -4.89414 -2.98575 0
M  V30 4356 H 401.108 -5.47751 -2.45129 0
M  V30 4357 H 402.178 -4.67489 -1.28772 0
M  V30 4358 N 403.521 0.559213 -1.47345 0
M  V30 4359 C 404.749 1.34194 -1.57479 0
M  V30 4360 C 405.164 1.87463 -0.224261 0
M  V30 4361 O 404.521 1.64888 0.782185 0
M  V30 4362 C 404.572 2.51324 -2.59843 0
M  V30 4363 O 404.293 2.00256 -3.89653 0
M  V30 4364 C 405.794 3.43563 -2.80142 0
M  V30 4365 H 403.014 0.409136 -0.531835 0
M  V30 4366 H 405.558 0.677609 -1.92947 0
M  V30 4367 H 403.713 3.13699 -2.27314 0
M  V30 4368 H 404.127 2.76708 -4.4557 0
M  V30 4369 H 405.601 4.2217 -3.55635 0
M  V30 4370 H 406.078 3.9698 -1.87892 0
M  V30 4371 H 406.684 2.87005 -3.1386 0
M  V30 4372 N 404.999 1.35443 0.805782 0
M  V30 4373 C 406.41 1.25768 1.37983 0
M  V30 4374 C 406.761 -0.10958 1.95894 0
M  V30 4375 O 405.886 -1.01056 1.91355 0
M  V30 4376 C 406.481 2.27727 2.5085 0
M  V30 4377 C 405.04 2.2179 3.04115 0
M  V30 4378 C 404.187 2.13393 1.77084 0
M  V30 4379 H 407.138 1.4656 0.608752 0
M  V30 4380 H 407.159 1.90422 3.29424 0
M  V30 4381 H 406.671 3.27227 2.08671 0
M  V30 4382 H 404.772 1.25703 3.50756 0
M  V30 4383 H 404.885 3.13788 3.62042 0
M  V30 4384 H 403.249 1.59384 1.98668 0
M  V30 4385 H 404.032 3.14755 1.37056 0
M  V30 4386 N 406.477 -1.02803 1.19454 0
M  V30 4387 C 407.726 -1.7562 0.991996 0
M  V30 4388 C 408.039 -1.89672 -0.477901 0
M  V30 4389 O 409.245 -2.59468 -0.799287 0
M  V30 4390 C 407.701 -3.15812 1.72601 0
M  V30 4391 C 407.309 -3.0981 3.23607 0
M  V30 4392 C 409.053 -3.92918 1.60674 0
M  V30 4393 C 406.96 -4.44939 3.89594 0
M  V30 4394 H 405.89 -0.658352 0.367543 0
M  V30 4395 H 408.541 -1.15044 1.42959 0
M  V30 4396 H 406.923 -3.7686 1.21624 0
M  V30 4397 H 408.097 -2.58138 3.81709 0
M  V30 4398 H 406.412 -2.46201 3.35819 0
M  V30 4399 H 409.009 -4.9287 2.07323 0
M  V30 4400 H 409.352 -4.12502 0.561025 0
M  V30 4401 H 409.885 -3.38472 2.09001 0
M  V30 4402 H 406.624 -4.30559 4.94267 0
M  V30 4403 H 406.144 -4.96664 3.36281 0
M  V30 4404 H 407.823 -5.1382 3.93189 0
M  V30 4405 N 407.956 -0.998596 -1.21925 0
M  V30 4406 C 408.866 -0.562736 -2.27751 0
M  V30 4407 C 409.882 0.391203 -1.69545 0
M  V30 4408 O 411.058 0.256625 -1.99758 0
M  V30 4409 C 408.123 0.11012 -3.46525 0
M  V30 4410 C 407.184 -0.887495 -4.20026 0
M  V30 4411 C 406.417 -0.246654 -5.3313 0
M  V30 4412 O 406.64 0.958088 -5.62296 0
M  V30 4413 O 405.574 -0.954374 -5.94286 0
M  V30 4414 H 409.4 -1.44329 -2.67213 0
M  V30 4415 H 406.985 -0.767135 -1.28201 0
M  V30 4416 H 408.867 0.486756 -4.18579 0
M  V30 4417 H 407.542 0.965154 -3.08976 0
M  V30 4418 H 406.449 -1.31517 -3.5022 0
M  V30 4419 H 407.782 -1.71191 -4.6147 0
M  V30 4420 N 409.434 1.37368 -0.772513 0
M  V30 4421 C 410.68 1.99969 -0.337681 0
M  V30 4422 C 411.013 1.61184 1.08321 0
M  V30 4423 O 410.288 0.858395 1.74533 0
M  V30 4424 C 410.571 3.56858 -0.482121 0
M  V30 4425 C 410.424 4.0555 -1.94549 0
M  V30 4426 C 411.743 4.39955 0.113143 0
M  V30 4427 H 408.862 0.726464 -0.124171 0
M  V30 4428 H 411.504 1.63034 -0.975699 0
M  V30 4429 H 409.654 3.88452 0.0610361 0
M  V30 4430 H 411.326 3.84518 -2.54841 0
M  V30 4431 H 409.569 3.57715 -2.45403 0
M  V30 4432 H 410.24 5.14587 -1.9976 0
M  V30 4433 H 412.716 4.14623 -0.35031 0
M  V30 4434 H 411.592 5.48897 -0.0180514 0
M  V30 4435 H 411.853 4.25403 1.20354 0
M  V30 4436 N 410.912 0.523116 1.48665 0
M  V30 4437 C 412.161 -0.01544 2.01694 0
M  V30 4438 C 412.474 -1.35975 1.40606 0
M  V30 4439 O 413.68 -1.98627 1.85093 0
M  V30 4440 C 412.136 -0.0779303 3.59816 0
M  V30 4441 C 411.744 1.26107 4.29885 0
M  V30 4442 C 413.488 -0.565678 4.20714 0
M  V30 4443 C 411.395 1.15954 5.79921 0
M  V30 4444 H 410.325 -0.00954163 0.75394 0
M  V30 4445 H 412.976 0.665865 1.70993 0
M  V30 4446 H 411.358 -0.824165 3.87329 0
M  V30 4447 H 412.532 2.02233 4.14051 0
M  V30 4448 H 410.847 1.68401 3.80828 0
M  V30 4449 H 413.444 -0.6595 5.30617 0
M  V30 4450 H 413.787 -1.56984 3.85567 0
M  V30 4451 H 414.32 0.12467 3.97605 0
M  V30 4452 H 411.059 2.13864 6.19631 0
M  V30 4453 H 410.579 0.439529 5.98187 0
M  V30 4454 H 412.258 0.847361 6.41427 0
M  V30 4455 N 412.39 -1.55475 0.257931 0
M  V30 4456 C 413.636 -1.99502 -0.364266 0
M  V30 4457 C 413.969 -1.146 -1.56782 0
M  V30 4458 O 413.244 -0.211968 -1.93342 0
M  V30 4459 C 413.527 -3.51917 -0.763333 0
M  V30 4460 C 413.38 -4.4758 0.446371 0
M  V30 4461 C 414.699 -4.09742 -1.60623 0
M  V30 4462 H 411.818 -0.725277 -0.130929 0
M  V30 4463 H 414.46 -1.8653 0.361446 0
M  V30 4464 H 412.61 -3.63101 -1.38166 0
M  V30 4465 H 414.282 -4.48362 1.08487 0
M  V30 4466 H 412.525 -4.19947 1.08753 0
M  V30 4467 H 413.196 -5.51862 0.123645 0
M  V30 4468 H 415.672 -4.01727 -1.08418 0
M  V30 4469 H 414.548 -5.16631 -1.85429 0
M  V30 4470 H 414.809 -3.58889 -2.58169 0
M  V30 4471 N 413.868 0.0150385 -1.57593 0
M  V30 4472 C 415.114 0.704043 -1.90187 0
M  V30 4473 C 415.447 1.74249 -0.857366 0
M  V30 4474 O 414.722 1.94092 0.125843 0
M  V30 4475 C 415.005 1.36087 -3.33395 0
M  V30 4476 C 414.858 0.334981 -4.48551 0
M  V30 4477 C 416.177 2.29112 -3.7576 0
M  V30 4478 H 413.296 0.254475 -0.691673 0
M  V30 4479 H 415.938 -0.0331678 -1.89971 0
M  V30 4480 H 414.088 1.98922 -3.3371 0
M  V30 4481 H 415.76 -0.292534 -4.60372 0
M  V30 4482 H 414.003 -0.344325 -4.32431 0
M  V30 4483 H 414.674 0.833316 -5.45674 0
M  V30 4484 H 417.15 1.76308 -3.76902 0
M  V30 4485 H 416.026 2.72043 -4.76743 0
M  V30 4486 H 416.287 3.16385 -3.08793 0
M  V30 4487 N 415.346 1.54954 0.287554 0
M  V30 4488 C 416.276 1.89839 1.35954 0
M  V30 4489 C 417.257 0.758675 1.52244 0
M  V30 4490 O 418.442 1.01557 1.65529 0
M  V30 4491 C 415.572 2.15753 2.72154 0
M  V30 4492 C 414.526 3.3159 2.70614 0
M  V30 4493 C 413.852 3.42952 4.10229 0
M  V30 4494 C 415.152 4.68359 2.31165 0
M  V30 4495 H 416.846 2.79625 1.07007 0
M  V30 4496 H 414.392 1.3454 0.513316 0
M  V30 4497 H 416.345 2.38743 3.47246 0
M  V30 4498 H 415.069 1.22752 3.02654 0
M  V30 4499 H 413.728 3.08545 1.97979 0
M  V30 4500 H 413.376 2.47443 4.37928 0
M  V30 4501 H 413.076 4.20826 4.10097 0
M  V30 4502 H 414.6 3.68218 4.87081 0
M  V30 4503 H 416.014 4.9099 2.95976 0
M  V30 4504 H 414.411 5.49044 2.42221 0
M  V30 4505 H 415.481 4.68165 1.26291 0
M  V30 4506 N 416.824 -0.551391 1.4764 0
M  V30 4507 C 418.072 -1.30572 1.54258 0
M  V30 4508 C 418.393 -1.93877 0.208963 0
M  V30 4509 O 417.663 -1.80234 -0.767619 0
M  V30 4510 H 416.243 -0.484894 0.568231 0
M  V30 4511 H 418.905 -0.643402 1.83974 0
M  V30 4512 H 418.001 -2.09621 2.31226 0
M  V30 4513 N 418.302 -1.35869 -0.798587 0
M  V30 4514 C 419.249 -1.29446 -1.91082 0
M  V30 4515 C 420.219 -0.16487 -1.6528 0
M  V30 4516 O 421.404 -0.349888 -1.87564 0
M  V30 4517 C 418.544 -1.0804 -3.27752 0
M  V30 4518 C 417.657 -2.29993 -3.65687 0
M  V30 4519 C 416.792 -2.01673 -4.91428 0
M  V30 4520 C 415.831 -3.19636 -5.22015 0
M  V30 4521 N 414.968 -2.91039 -6.38937 0
M  V30 4522 H 419.808 -2.24553 -1.95907 0
M  V30 4523 H 417.345 -1.11615 -0.958148 0
M  V30 4524 H 419.303 -0.936586 -4.06551 0
M  V30 4525 H 417.933 -0.16592 -3.22373 0
M  V30 4526 H 416.985 -2.55211 -2.82085 0
M  V30 4527 H 418.297 -3.18052 -3.84245 0
M  V30 4528 H 417.451 -1.84168 -5.78072 0
M  V30 4529 H 416.19 -1.10911 -4.74921 0
M  V30 4530 H 415.195 -3.37709 -4.33858 0
M  V30 4531 H 416.42 -4.11211 -5.40447 0
M  V30 4532 H 414.366 -2.0288 -6.2384 0
M  V30 4533 H 414.283 -3.72635 -6.57784 0
M  V30 4534 H 415.551 -2.77093 -7.28587 0
M  V30 4535 N 419.78 1.02168 -1.19998 0
M  V30 4536 C 420.69 2.14069 -0.959774 0
M  V30 4537 C 421.706 1.73804 0.082655 0
M  V30 4538 O 422.882 2.01133 -0.103633 0
M  V30 4539 C 419.947 3.42936 -0.509459 0
M  V30 4540 C 419.008 3.97474 -1.62213 0
M  V30 4541 C 418.241 5.2019 -1.19321 0
M  V30 4542 O 418.464 5.70369 -0.0597726 0
M  V30 4543 O 417.398 5.67749 -1.99863 0
M  V30 4544 H 421.224 2.37199 -1.89658 0
M  V30 4545 H 418.809 1.12469 -0.983411 0
M  V30 4546 H 420.691 4.20551 -0.267322 0
M  V30 4547 H 419.366 3.21234 0.398821 0
M  V30 4548 H 418.273 3.21161 -1.9185 0
M  V30 4549 H 419.606 4.23555 -2.50723 0
M  V30 4550 N 421.258 1.00505 1.21394 0
M  V30 4551 C 422.535 0.603277 1.86064 0
M  V30 4552 C 422.915 -0.919095 1.90042 0
M  V30 4553 O 422.263 -1.80607 1.39977 0
M  V30 4554 C 422.473 1.23772 3.26315 0
M  V30 4555 C 423.821 1.34586 4.02705 0
M  V30 4556 O 424.845 1.19304 3.35626 0
M  V30 4557 O 423.704 1.59169 5.22807 0
M  V30 4558 H 420.798 0.206634 0.800769 0
M  V30 4559 H 423.344 1.1017 1.29076 0
M  V30 4560 H 422.116 2.27848 3.18121 0
M  V30 4561 H 421.739 0.725648 3.90922 0
M  V30 4562 N 422.737 -1.36956 0.779787 0
M  V30 4563 C 423.667 -2.32761 0.185651 0
M  V30 4564 C 424.648 -1.56177 -0.673989 0
M  V30 4565 O 425.833 -1.84378 -0.609797 0
M  V30 4566 C 422.963 -3.40418 -0.687964 0
M  V30 4567 C 421.917 -4.27941 0.0710102 0
M  V30 4568 C 421.243 -5.26681 -0.922573 0
M  V30 4569 C 422.543 -5.07006 1.25467 0
M  V30 4570 H 424.237 -2.82698 0.986008 0
M  V30 4571 H 421.783 -1.3592 0.475592 0
M  V30 4572 H 423.736 -4.06423 -1.11348 0
M  V30 4573 H 422.46 -2.89025 -1.52093 0
M  V30 4574 H 421.119 -3.63478 0.47739 0
M  V30 4575 H 420.767 -4.71565 -1.7503 0
M  V30 4576 H 420.467 -5.86103 -0.419237 0
M  V30 4577 H 421.991 -5.9556 -1.34686 0
M  V30 4578 H 423.405 -5.66105 0.905401 0
M  V30 4579 H 421.802 -5.75793 1.69063 0
M  V30 4580 H 422.872 -4.3921 2.05481 0
M  V30 4581 N 424.215 -0.530993 -1.48385 0
M  V30 4582 C 425.443 -0.00134122 -2.069 0
M  V30 4583 C 425.858 1.2805 -1.3874 0
M  V30 4584 O 425.215 1.76204 -0.475244 0
M  V30 4585 C 425.266 0.225256 -3.60798 0
M  V30 4586 O 424.987 -1.0058 -4.26398 0
M  V30 4587 C 426.488 0.795172 -4.3611 0
M  V30 4588 H 423.708 -0.0339704 -0.67014 0
M  V30 4589 H 426.252 -0.736926 -1.90761 0
M  V30 4590 H 424.407 0.910891 -3.76539 0
M  V30 4591 H 424.821 -0.787165 -5.1856 0
M  V30 4592 H 426.295 0.903143 -5.44562 0
M  V30 4593 H 426.772 1.80031 -4.00606 0
M  V30 4594 H 427.378 0.146069 -4.25049 0
M  V30 4595 N 425.693 1.55336 -0.266172 0
M  V30 4596 C 426.942 1.98574 0.353749 0
M  V30 4597 C 427.255 1.15789 1.57646 0
M  V30 4598 O 428.461 1.49129 2.26876 0
M  V30 4599 C 426.917 3.53403 0.680747 0
M  V30 4600 C 426.525 4.44953 -0.52165 0
M  V30 4601 C 428.269 4.05251 1.26379 0
M  V30 4602 C 426.176 5.91156 -0.169736 0
M  V30 4603 H 425.106 0.741643 0.135949 0
M  V30 4604 H 427.757 1.79743 -0.369421 0
M  V30 4605 H 426.139 3.68001 1.46257 0
M  V30 4606 H 427.313 4.42121 -1.29869 0
M  V30 4607 H 425.628 4.03691 -1.02093 0
M  V30 4608 H 428.225 5.12021 1.54074 0
M  V30 4609 H 428.568 3.53749 2.19471 0
M  V30 4610 H 429.101 3.94057 0.544447 0
M  V30 4611 H 425.84 6.46736 -1.0683 0
M  V30 4612 H 425.36 5.97079 0.570717 0
M  V30 4613 H 427.039 6.4655 0.241245 0
M  V30 4614 N 427.171 -0.0066808 1.57599 0
M  V30 4615 C 428.118 -1.00024 2.08 0
M  V30 4616 C 429.088 -1.34549 0.973943 0
M  V30 4617 O 430.273 -1.44502 1.24595 0
M  V30 4618 C 427.413 -2.2891 2.58252 0
M  V30 4619 C 426.526 -2.00346 3.82734 0
M  V30 4620 C 425.661 -3.23265 4.21513 0
M  V30 4621 C 424.7 -2.90357 5.3885 0
M  V30 4622 N 423.837 -4.05793 5.72954 0
M  V30 4623 H 428.677 -0.563499 2.92624 0
M  V30 4624 H 426.214 -0.266592 1.44664 0
M  V30 4625 H 428.172 -3.04247 2.85464 0
M  V30 4626 H 426.802 -2.70265 1.76512 0
M  V30 4627 H 425.854 -1.15406 3.62471 0
M  V30 4628 H 427.166 -1.72086 4.68175 0
M  V30 4629 H 426.32 -4.06953 4.49971 0
M  V30 4630 H 425.059 -3.54657 3.34768 0
M  V30 4631 H 424.064 -2.05075 5.10122 0
M  V30 4632 H 425.289 -2.60219 6.27266 0
M  V30 4633 H 423.235 -4.37094 4.89167 0
M  V30 4634 H 423.152 -3.81034 6.52954 0
M  V30 4635 H 424.42 -4.90289 6.06001 0
M  V30 4636 N 428.649 -1.55105 -0.279332 0
M  V30 4637 C 429.898 -1.74618 -1.00952 0
M  V30 4638 C 430.211 -0.551096 -1.87676 0
M  V30 4639 O 431.417 -0.628507 -2.64125 0
M  V30 4640 C 429.873 -3.09025 -1.84476 0
M  V30 4641 C 429.481 -4.36081 -1.0265 0
M  V30 4642 C 431.225 -3.37891 -2.56963 0
M  V30 4643 C 429.132 -5.6153 -1.85576 0
M  V30 4644 H 428.062 -0.650868 -0.38064 0
M  V30 4645 H 430.713 -1.81569 -0.265475 0
M  V30 4646 H 429.095 -2.96095 -2.62952 0
M  V30 4647 H 430.269 -4.59909 -0.286354 0
M  V30 4648 H 428.584 -4.14312 -0.416464 0
M  V30 4649 H 431.181 -4.28822 -3.19399 0
M  V30 4650 H 431.524 -2.57737 -3.26921 0
M  V30 4651 H 432.057 -3.5189 -1.85522 0
M  V30 4652 H 428.796 -6.44413 -1.2005 0
M  V30 4653 H 428.316 -5.41854 -2.57204 0
M  V30 4654 H 429.995 -5.99594 -2.43096 0
M  V30 4655 N 430.127 0.543554 -1.4793 0
M  V30 4656 C 431.352 1.32995 -1.59145 0
M  V30 4657 C 431.777 1.86472 -0.246956 0
M  V30 4658 O 431.135 1.63696 0.779324 0
M  V30 4659 C 431.183 2.46623 -2.63077 0
M  V30 4660 O 430.287 3.49261 -2.19295 0
M  V30 4661 H 429.628 0.394472 -0.534124 0
M  V30 4662 H 432.158 0.655489 -1.93816 0
M  V30 4663 H 432.168 2.93001 -2.83926 0
M  V30 4664 H 430.843 2.07059 -3.60693 0
M  V30 4665 H 429.42 3.09094 -2.08603 0
M  V30 4666 N 431.605 1.3629 0.791371 0
M  V30 4667 C 432.882 1.20962 1.53712 0
M  V30 4668 C 433.262 -0.205021 2.10102 0
M  V30 4669 O 432.61 -1.21042 1.93807 0
M  V30 4670 C 432.82 2.29002 2.63361 0
M  V30 4671 C 434.168 2.65572 3.31295 0
M  V30 4672 O 435.192 2.2803 2.73643 0
M  V30 4673 O 434.051 3.3018 4.35481 0
M  V30 4674 H 431.145 0.47086 0.679867 0
M  V30 4675 H 433.691 1.48016 0.830021 0
M  V30 4676 H 432.463 3.2382 2.19674 0
M  V30 4677 H 432.086 2.03303 3.41692 0
M  V30 4678 N 433.083 -1.0153 1.20538 0
M  V30 4679 C 434.499 -1.27461 0.96051 0
M  V30 4680 C 434.699 -1.98273 -0.359193 0
M  V30 4681 O 433.755 -2.27886 -1.0874 0
M  V30 4682 C 435.068 -2.10837 2.14402 0
M  V30 4683 C 436.616 -2.24099 2.18515 0
M  V30 4684 C 437.091 -3.10852 3.36355 0
M  V30 4685 N 438.582 -3.18441 3.36377 0
M  V30 4686 C 439.317 -3.85795 4.24205 0
M  V30 4687 N 438.813 -4.55264 5.22213 0
M  V30 4688 N 440.606 -3.82331 4.12043 0
M  V30 4689 H 432.757 -0.539907 2.05423 0
M  V30 4690 H 435.02 -0.30092 0.898972 0
M  V30 4691 H 434.726 -1.66144 3.09983 0
M  V30 4692 H 434.6 -3.11576 2.12604 0
M  V30 4693 H 436.987 -2.68016 1.23497 0
M  V30 4694 H 437.068 -1.22865 2.24361 0
M  V30 4695 H 436.712 -2.6764 4.31661 0
M  V30 4696 H 436.642 -4.12177 3.27746 0
M  V30 4697 H 439.133 -2.68978 2.65442 0
M  V30 4698 H 439.446 -5.04331 5.85551 0
M  V30 4699 H 437.791 -4.54085 5.26148 0
M  V30 4700 H 440.982 -3.27207 3.34743 0
M  V30 4701 H 441.155 -4.34547 4.807 0
M  V30 4702 N 434.561 -1.01147 -1.20859 0
M  V30 4703 C 435.809 -0.696486 -1.89719 0
M  V30 4704 C 436.13 0.775788 -1.78904 0
M  V30 4705 O 435.4 1.55759 -1.18811 0
M  V30 4706 H 433.98 -0.254628 -0.702263 0
M  V30 4707 H 436.642 -1.28197 -1.46804 0
M  V30 4708 H 435.738 -0.975357 -2.96468 0
M  V30 4709 N 436.039 1.36541 -0.78704 0
M  V30 4710 C 437.287 1.98911 -0.357633 0
M  V30 4711 C 437.608 1.62778 1.07371 0
M  V30 4712 O 436.878 0.900612 1.73971 0
M  V30 4713 H 435.458 0.735734 -0.129246 0
M  V30 4714 H 438.12 1.66776 -1.00855 0
M  V30 4715 H 437.216 3.08874 -0.447549 0
M  V30 4716 N 437.518 0.538854 1.48102 0
M  V30 4717 C 438.766 0.00798599 2.02098 0
M  V30 4718 C 439.087 -1.33922 1.41739 0
M  V30 4719 O 438.357 -1.86932 0.585934 0
M  V30 4720 H 436.937 -3.62179e-05 0.747 0
M  V30 4721 H 439.599 0.7047 1.81714 0
M  V30 4722 H 438.695 -0.0937672 3.11959 0
M  V30 4723 N 438.996 -1.55193 0.274407 0
M  V30 4724 C 440.242 -1.99877 -0.343086 0
M  V30 4725 C 440.575 -1.16256 -1.55558 0
M  V30 4726 O 439.85 -0.232462 -1.93106 0
M  V30 4727 C 440.133 -3.52706 -0.725965 0
M  V30 4728 C 439.986 -4.47081 0.493818 0
M  V30 4729 C 441.305 -4.11422 -1.56268 0
M  V30 4730 H 438.424 -0.726625 -0.123229 0
M  V30 4731 H 441.066 -1.86136 0.38121 0
M  V30 4732 H 439.216 -3.64546 -1.34307 0
M  V30 4733 H 440.888 -4.47186 1.13237 0
M  V30 4734 H 439.131 -4.1877 1.13201 0
M  V30 4735 H 439.802 -5.51699 0.18217 0
M  V30 4736 H 442.278 -4.02855 -1.04151 0
M  V30 4737 H 441.154 -5.18568 -1.79939 0
M  V30 4738 H 441.415 -3.61607 -2.54348 0
M  V30 4739 N 440.474 -0.00167713 -1.576 0
M  V30 4740 C 441.885 0.54091 -1.78693 0
M  V30 4741 C 442.236 1.7386 -0.909247 0
M  V30 4742 O 441.361 2.16109 -0.112176 0
M  V30 4743 C 441.956 0.98806 -3.24072 0
M  V30 4744 C 440.515 1.47594 -3.46256 0
M  V30 4745 C 439.662 0.42792 -2.73978 0
M  V30 4746 H 442.613 -0.22784 -1.57056 0
M  V30 4747 H 442.634 1.85398 -3.32277 0
M  V30 4748 H 442.146 0.116164 -3.87926 0
M  V30 4749 H 440.247 2.36868 -2.87618 0
M  V30 4750 H 440.36 1.50225 -4.54939 0
M  V30 4751 H 438.724 0.889934 -2.38647 0
M  V30 4752 H 439.507 -0.435038 -3.40532 0
M  V30 4753 N 441.952 1.55251 0.271103 0
M  V30 4754 C 442.882 1.9127 1.33933 0
M  V30 4755 C 443.863 0.77478 1.5143 0
M  V30 4756 O 445.048 1.03307 1.64442 0
M  V30 4757 C 442.178 2.18627 2.69851 0
M  V30 4758 C 441.132 3.34442 2.67081 0
M  V30 4759 C 440.458 3.47284 4.06569 0
M  V30 4760 C 441.758 4.70784 2.26185 0
M  V30 4761 H 443.452 2.80744 1.04035 0
M  V30 4762 H 440.998 1.35077 0.499017 0
M  V30 4763 H 442.951 2.42413 3.44694 0
M  V30 4764 H 441.675 1.25955 3.01335 0
M  V30 4765 H 440.334 3.10627 1.94695 0
M  V30 4766 H 439.982 2.52074 4.35279 0
M  V30 4767 H 439.682 4.25152 4.0561 0
M  V30 4768 H 441.206 3.73363 4.83148 0
M  V30 4769 H 442.62 4.94102 2.90751 0
M  V30 4770 H 441.017 5.51582 2.36384 0
M  V30 4771 H 442.087 4.69478 1.21319 0
M  V30 4772 N 443.43 -0.535701 1.48216 0
M  V30 4773 C 444.846 -0.863701 1.3421 0
M  V30 4774 C 445.046 -1.98458 0.34879 0
M  V30 4775 O 444.102 -2.51432 -0.23204 0
M  V30 4776 C 445.415 -1.23662 2.74095 0
M  V30 4777 C 446.963 -1.34683 2.82541 0
M  V30 4778 C 447.438 -1.75322 4.23115 0
M  V30 4779 N 448.929 -1.82434 4.2576 0
M  V30 4780 C 449.664 -2.15252 5.31464 0
M  V30 4781 N 449.16 -2.46533 6.47452 0
M  V30 4782 N 450.953 -2.16209 5.18855 0
M  V30 4783 H 443.104 0.203965 2.11418 0
M  V30 4784 H 445.367 0.0286033 0.947568 0
M  V30 4785 H 445.073 -0.486674 3.48316 0
M  V30 4786 H 444.947 -2.18805 3.07253 0
M  V30 4787 H 447.334 -2.08756 2.08579 0
M  V30 4788 H 447.415 -0.376756 2.5301 0
M  V30 4789 H 447.059 -1.01812 4.97591 0
M  V30 4790 H 446.989 -2.7337 4.50085 0
M  V30 4791 H 449.48 -1.6056 3.42095 0
M  V30 4792 H 449.793 -2.70662 7.23852 0
M  V30 4793 H 448.138 -2.44065 6.50736 0
M  V30 4794 H 451.329 -1.91224 4.2726 0
M  V30 4795 H 451.502 -2.41453 6.01335 0
M  V30 4796 N 444.908 -1.36708 -0.784132 0
M  V30 4797 C 446.157 -1.30559 -1.53744 0
M  V30 4798 C 446.47 0.111374 -1.95283 0
M  V30 4799 O 447.676 0.29527 -2.6989 0
M  V30 4800 C 446.132 -2.29098 -2.77565 0
M  V30 4801 C 445.74 -3.76258 -2.43174 0
M  V30 4802 C 447.484 -2.31936 -3.55536 0
M  V30 4803 C 445.391 -4.6656 -3.63422 0
M  V30 4804 H 444.321 -0.48518 -0.577162 0
M  V30 4805 H 446.972 -1.62101 -0.859981 0
M  V30 4806 H 445.354 -1.90557 -3.47137 0
M  V30 4807 H 446.528 -4.23565 -1.81465 0
M  V30 4808 H 444.843 -3.76246 -1.78403 0
M  V30 4809 H 447.44 -2.9661 -4.44889 0
M  V30 4810 H 447.783 -1.3294 -3.94503 0
M  V30 4811 H 448.316 -2.6912 -2.92949 0
M  V30 4812 H 445.055 -5.66638 -3.29547 0
M  V30 4813 H 444.575 -4.23966 -4.24279 0
M  V30 4814 H 446.254 -4.8309 -4.30387 0
M  V30 4815 N 446.386 1.0089 -1.21074 0
M  V30 4816 C 447.635 1.74019 -1.01981 0
M  V30 4817 C 447.948 1.90408 0.447665 0
M  V30 4818 O 449.154 2.60707 0.757906 0
M  V30 4819 C 447.61 3.13026 -1.77603 0
M  V30 4820 C 447.218 3.04623 -3.28495 0
M  V30 4821 C 448.962 3.90312 -1.66904 0
M  V30 4822 C 446.869 4.38685 -3.96623 0
M  V30 4823 H 445.799 0.652422 -0.377971 0
M  V30 4824 H 448.45 1.12755 -1.44771 0
M  V30 4825 H 446.832 3.74878 -1.27604 0
M  V30 4826 H 448.006 2.52032 -3.85767 0
M  V30 4827 H 446.321 2.40827 -3.39693 0
M  V30 4828 H 448.918 4.8951 -2.15138 0
M  V30 4829 H 449.261 4.11558 -0.62658 0
M  V30 4830 H 449.794 3.35104 -2.14359 0
M  V30 4831 H 446.533 4.22641 -5.01054 0
M  V30 4832 H 446.053 4.91252 -3.4414 0
M  V30 4833 H 447.732 5.075 -4.01314 0
M  V30 4834 N 447.864 1.01787 1.20321 0
M  V30 4835 C 449.141 0.622978 1.85414 0
M  V30 4836 C 449.521 -0.898887 1.91006 0
M  V30 4837 O 448.869 -1.79112 1.41884 0
M  V30 4838 C 449.079 1.27226 3.24984 0
M  V30 4839 C 450.427 1.3885 4.01255 0
M  V30 4840 O 451.451 1.22857 3.34342 0
M  V30 4841 O 450.31 1.64705 5.2109 0
M  V30 4842 H 447.404 0.215116 0.798533 0
M  V30 4843 H 449.95 1.11533 1.27901 0
M  V30 4844 H 448.722 2.31209 3.15687 0
M  V30 4845 H 448.345 0.767069 3.90131 0
M  V30 4846 N 449.342 -1.36122 0.79427 0
M  V30 4847 C 450.758 -1.5232 0.476525 0
M  V30 4848 C 450.958 -1.74685 -1.00436 0
M  V30 4849 O 450.014 -1.78115 -1.78973 0
M  V30 4850 C 451.327 -2.70607 1.31119 0
M  V30 4851 C 452.875 -2.8448 1.30537 0
M  V30 4852 C 453.35 -4.05778 2.12387 0
M  V30 4853 N 454.841 -4.12933 2.09859 0
M  V30 4854 C 455.576 -5.05876 2.69957 0
M  V30 4855 N 455.072 -6.04232 3.38934 0
M  V30 4856 N 456.865 -4.98528 2.59665 0
M  V30 4857 H 449.016 -1.1986 1.75349 0
M  V30 4858 H 451.279 -0.585418 0.745647 0
M  V30 4859 H 450.985 -2.60619 2.36158 0
M  V30 4860 H 450.859 -3.64888 0.955843 0
M  V30 4861 H 453.246 -2.93927 0.262876 0
M  V30 4862 H 453.327 -1.91093 1.70051 0
M  V30 4863 H 452.971 -3.97092 3.1667 0
M  V30 4864 H 452.901 -4.98323 1.70242 0
M  V30 4865 H 455.392 -3.42515 1.59662 0
M  V30 4866 H 455.705 -6.71724 3.82109 0
M  V30 4867 H 454.05 -6.04443 3.43036 0
M  V30 4868 H 457.241 -4.20641 2.05375 0
M  V30 4869 H 457.414 -5.70773 3.06793 0
M  V30 4870 N 450.82 -0.546701 -1.47814 0
M  V30 4871 C 451.75 0.195317 -2.32682 0
M  V30 4872 C 452.731 0.918981 -1.43139 0
M  V30 4873 O 453.916 0.901501 -1.72008 0
M  V30 4874 C 451.046 1.23237 -3.247 0
M  V30 4875 C 450 0.625818 -4.234 0
M  V30 4876 C 449.326 1.76674 -5.04669 0
M  V30 4877 C 450.626 -0.413515 -5.2066 0
M  V30 4878 H 452.32 -0.513184 -2.94969 0
M  V30 4879 H 449.866 -0.248241 -1.41844 0
M  V30 4880 H 451.819 1.75955 -3.82907 0
M  V30 4881 H 450.543 1.97067 -2.60446 0
M  V30 4882 H 449.202 0.120023 -3.66403 0
M  V30 4883 H 448.85 2.49383 -4.36826 0
M  V30 4884 H 448.55 1.36673 -5.71484 0
M  V30 4885 H 450.074 2.29738 -5.65732 0
M  V30 4886 H 451.488 0.0272042 -5.73294 0
M  V30 4887 H 449.885 -0.731825 -5.95621 0
M  V30 4888 H 450.955 -1.31325 -4.66778 0
M  V30 4889 N 452.299 1.55045 -0.282633 0
M  V30 4890 C 453.546 1.9976 0.33199 0
M  V30 4891 C 453.874 1.17105 1.55295 0
M  V30 4892 O 453.129 0.230599 1.94337 0
M  V30 4893 C 453.428 3.49422 0.750938 0
M  V30 4894 C 453.094 4.4941 -0.366228 0
M  V30 4895 C 451.756 4.76471 -0.672964 0
M  V30 4896 C 454.108 5.09054 -1.11864 0
M  V30 4897 C 451.436 5.60442 -1.73556 0
M  V30 4898 C 453.788 5.9418 -2.17102 0
M  V30 4899 C 452.452 6.19558 -2.48402 0
M  V30 4900 H 451.722 0.730974 0.121484 0
M  V30 4901 H 454.369 1.8732 -0.39791 0
M  V30 4902 H 452.674 3.59377 1.56063 0
M  V30 4903 H 454.371 3.81432 1.23736 0
M  V30 4904 H 450.961 4.2844 -0.117041 0
M  V30 4905 H 455.145 4.88165 -0.894925 0
M  V30 4906 H 450.401 5.78349 -1.983 0
M  V30 4907 H 454.575 6.39427 -2.75873 0
M  V30 4908 H 452.202 6.84417 -3.30874 0
M  V30 4909 N 453.777 0.010035 1.57597 0
M  V30 4910 C 455.002 -0.687021 1.95691 0
M  V30 4911 C 455.427 -1.65952 0.885519 0
M  V30 4912 O 454.785 -1.80633 -0.15543 0
M  V30 4913 C 454.833 -1.3864 3.32884 0
M  V30 4914 O 453.937 -2.50115 3.27897 0
M  V30 4915 H 453.278 -0.181989 0.638573 0
M  V30 4916 H 455.808 0.0662122 2.04493 0
M  V30 4917 H 455.818 -1.74754 3.6868 0
M  V30 4918 H 454.493 -0.673411 4.10412 0
M  V30 4919 H 453.07 -2.16253 3.03791 0
M  V30 4920 N 455.255 -1.55392 -0.262866 0
M  V30 4921 C 456.485 -1.80251 -1.00961 0
M  V30 4922 C 456.893 -0.58117 -1.80053 0
M  V30 4923 O 456.236 0.459427 -1.77862 0
M  V30 4924 C 456.298 -2.98207 -2.00781 0
M  V30 4925 C 455.962 -4.34856 -1.40533 0
M  V30 4926 C 456.959 -5.13459 -0.815853 0
M  V30 4927 C 454.644 -4.8153 -1.42948 0
M  V30 4928 C 456.638 -6.36875 -0.258562 0
M  V30 4929 C 454.325 -6.04899 -0.868334 0
M  V30 4930 C 455.323 -6.8241 -0.283884 0
M  V30 4931 O 455.011 -8.03451 0.268644 0
M  V30 4932 H 454.743 -0.604049 -0.303482 0
M  V30 4933 H 457.297 -2.03257 -0.295926 0
M  V30 4934 H 455.527 -2.70917 -2.75936 0
M  V30 4935 H 457.216 -3.10299 -2.61667 0
M  V30 4936 H 457.982 -4.78526 -0.789812 0
M  V30 4937 H 453.861 -4.21201 -1.87378 0
M  V30 4938 H 457.405 -6.97318 0.198257 0
M  V30 4939 H 453.302 -6.39312 -0.891649 0
M  V30 4940 H 454.07 -8.18346 0.158974 0
M  V30 4941 N 456.733 0.527833 -1.48498 0
M  V30 4942 C 457.961 1.30823 -1.6029 0
M  V30 4943 C 458.376 1.86945 -0.263974 0
M  V30 4944 O 457.733 1.6651 0.747034 0
M  V30 4945 C 457.784 2.45756 -2.65116 0
M  V30 4946 O 457.505 1.91946 -3.93813 0
M  V30 4947 C 459.006 3.37543 -2.87367 0
M  V30 4948 H 456.226 0.397763 -0.540394 0
M  V30 4949 H 458.77 0.636529 -1.94341 0
M  V30 4950 H 456.925 3.08806 -2.33917 0
M  V30 4951 H 457.339 2.67195 -4.51339 0
M  V30 4952 H 458.813 4.14532 -3.6451 0
M  V30 4953 H 459.29 3.92905 -1.9627 0
M  V30 4954 H 459.896 2.80283 -3.19878 0
M  V30 4955 N 458.211 1.37122 0.776871 0
M  V30 4956 C 459.441 1.35034 1.56363 0
M  V30 4957 C 459.849 -0.0674681 1.8908 0
M  V30 4958 O 459.192 -1.03826 1.51545 0
M  V30 4959 C 459.254 2.11894 2.90415 0
M  V30 4960 C 458.918 3.60897 2.80362 0
M  V30 4961 C 459.915 4.54887 2.51742 0
M  V30 4962 C 457.6 4.03951 2.98545 0
M  V30 4963 C 459.594 5.89909 2.41426 0
M  V30 4964 C 457.281 5.3906 2.87849 0
M  V30 4965 C 458.279 6.31852 2.5933 0
M  V30 4966 O 457.967 7.64479 2.48651 0
M  V30 4967 H 457.699 0.464402 0.49123 0
M  V30 4968 H 460.253 1.80992 0.971127 0
M  V30 4969 H 458.483 1.60618 3.51765 0
M  V30 4970 H 460.172 2.02505 3.51776 0
M  V30 4971 H 460.938 4.22934 2.37385 0
M  V30 4972 H 456.817 3.3209 3.19746 0
M  V30 4973 H 460.361 6.62304 2.19086 0
M  V30 4974 H 456.258 5.70617 3.01773 0
M  V30 4975 H 457.026 7.74742 2.64039 0
M  V30 4976 N 459.689 -1.00246 1.21608 0
M  V30 4977 C 460.914 -1.78167 1.06167 0
M  V30 4978 C 461.339 -1.84138 -0.384035 0
M  V30 4979 O 460.697 -1.28683 -1.27712 0
M  V30 4980 C 460.745 -3.19786 1.66642 0
M  V30 4981 O 459.849 -4.02153 0.913613 0
M  V30 4982 H 459.19 -0.549 0.37349 0
M  V30 4983 H 461.72 -1.25994 1.61204 0
M  V30 4984 H 461.73 -3.70451 1.70969 0
M  V30 4985 H 460.405 -3.14754 2.7185 0
M  V30 4986 H 458.982 -3.60711 0.945635 0
M  V30 4987 N 461.167 -1.02423 -1.1978 0
M  V30 4988 C 462.395 -0.737456 -1.93311 0
M  V30 4989 C 462.81 0.703023 -1.75223 0
M  V30 4990 O 462.167 1.47761 -1.07112 0
M  V30 4991 C 462.218 -1.0733 -3.45199 0
M  V30 4992 O 461.939 -2.4572 -3.62702 0
M  V30 4993 C 463.44 -0.80866 -4.35862 0
M  V30 4994 H 460.66 -0.2702 -0.614193 0
M  V30 4995 H 463.204 -1.36747 -1.52054 0
M  V30 4996 H 461.359 -0.488545 -3.84307 0
M  V30 4997 H 461.773 -2.58081 -4.56612 0
M  V30 4998 H 463.247 -1.09365 -5.41057 0
M  V30 4999 H 463.724 0.257025 -4.38447 0
M  V30 5000 H 464.33 -1.37592 -4.02428 0
M  V30 5001 N 462.645 1.35699 -0.801477 0
M  V30 5002 C 463.608 2.28199 -0.213994 0
M  V30 5003 C 464.608 1.49359 0.595691 0
M  V30 5004 O 465.798 1.69186 0.414921 0
M  V30 5005 C 462.93 3.33587 0.702297 0
M  V30 5006 H 464.123 2.81666 -1.02976 0
M  V30 5007 H 461.676 1.45467 -0.571759 0
M  V30 5008 H 462.411 2.85297 1.54195 0
M  V30 5009 H 462.196 3.91906 0.123484 0
M  V30 5010 H 463.686 4.02638 1.10783 0
M  V30 5011 N 464.123 0.554532 1.47522 0
M  V30 5012 C 465.534 0.120446 1.86311 0
M  V30 5013 C 465.885 -1.30904 1.46145 0
M  V30 5014 O 465.01 -1.98434 0.863294 0
M  V30 5015 C 465.605 0.211808 3.38137 0
M  V30 5016 C 464.164 -0.167224 3.76028 0
M  V30 5017 C 463.311 0.560576 2.71575 0
M  V30 5018 H 466.262 0.764408 1.39077 0
M  V30 5019 H 466.283 -0.570275 3.76202 0
M  V30 5020 H 465.795 1.25232 3.6734 0
M  V30 5021 H 463.896 -1.20894 3.52442 0
M  V30 5022 H 464.009 0.189473 4.78725 0
M  V30 5023 H 462.373 0.00396836 2.547 0
M  V30 5024 H 463.156 1.60219 3.0362 0
M  V30 5025 N 465.601 -1.54893 0.290851 0
M  V30 5026 C 466.829 -2.04343 -0.324288 0
M  V30 5027 C 467.244 -1.16859 -1.48289 0
M  V30 5028 O 466.601 -0.192018 -1.81487 0
M  V30 5029 C 466.652 -3.52756 -0.79026 0
M  V30 5030 O 466.373 -4.36913 0.322213 0
M  V30 5031 C 467.874 -4.18161 -1.4716 0
M  V30 5032 H 465.094 -0.667135 -0.0719173 0
M  V30 5033 H 467.638 -1.99981 0.427529 0
M  V30 5034 H 465.793 -3.57511 -1.49213 0
M  V30 5035 H 466.207 -5.24486 -0.0387372 0
M  V30 5036 H 467.681 -5.23562 -1.7489 0
M  V30 5037 H 468.158 -3.67282 -2.40834 0
M  V30 5038 H 468.764 -4.17454 -0.813178 0
M  V30 5039 N 467.08 -0.0183926 -1.57589 0
M  V30 5040 C 468.491 0.521927 -1.79256 0
M  V30 5041 C 468.842 1.72885 -0.927636 0
M  V30 5042 O 467.967 2.15978 -0.135091 0
M  V30 5043 C 468.562 0.953632 -3.25102 0
M  V30 5044 C 467.121 1.43913 -3.47801 0
M  V30 5045 C 466.268 0.398837 -2.74417 0
M  V30 5046 H 469.219 -0.244485 -1.56805 0
M  V30 5047 H 469.24 1.81863 -3.34224 0
M  V30 5048 H 468.752 0.0750123 -3.88028 0
M  V30 5049 H 466.853 2.33804 -2.90115 0
M  V30 5050 H 466.966 1.45391 -4.56507 0
M  V30 5051 H 465.33 0.864572 -2.39577 0
M  V30 5052 H 466.113 -0.471132 -3.40052 0
M  V30 5053 N 468.558 1.5553 0.254621 0
M  V30 5054 C 469.804 1.77262 0.985193 0
M  V30 5055 C 470.137 0.582286 1.85265 0
M  V30 5056 O 469.412 -0.419666 1.89919 0
M  V30 5057 C 469.695 3.0881 1.85225 0
M  V30 5058 C 469.548 4.38233 1.0135 0
M  V30 5059 C 470.867 3.3653 2.83612 0
M  V30 5060 H 467.986 0.644906 0.356742 0
M  V30 5061 H 470.628 1.88264 0.256236 0
M  V30 5062 H 468.778 2.99562 2.47376 0
M  V30 5063 H 470.45 4.59463 0.411269 0
M  V30 5064 H 468.693 4.32636 0.317574 0
M  V30 5065 H 469.364 5.26644 1.65379 0
M  V30 5066 H 471.84 3.45691 2.31596 0
M  V30 5067 H 470.716 4.29805 3.41407 0
M  V30 5068 H 470.977 2.57064 3.59681 0
M  V30 5069 N 470.036 -0.519951 1.48776 0
M  V30 5070 C 470.969 -1.64053 1.58625 0
M  V30 5071 C 471.947 -1.5664 0.43618 0
M  V30 5072 O 473.131 -1.76969 0.649159 0
M  V30 5073 C 470.258 -3.02497 1.52359 0
M  V30 5074 C 469.304 -3.28235 2.72331 0
M  V30 5075 S 470.137 -3.13414 4.34203 0
M  V30 5076 C 471.293 -4.54287 4.30551 0
M  V30 5077 H 471.526 -1.5545 2.53422 0
M  V30 5078 H 469.059 -0.703681 1.37433 0
M  V30 5079 H 471.017 -3.82336 1.4943 0
M  V30 5080 H 469.678 -3.08531 0.588824 0
M  V30 5081 H 468.871 -4.29256 2.64113 0
M  V30 5082 H 468.473 -2.56085 2.72574 0
M  V30 5083 H 470.765 -5.46006 4.01103 0
M  V30 5084 H 471.708 -4.67558 5.31785 0
M  V30 5085 H 472.116 -4.34079 3.60881 0
M  V30 5086 N 471.514 -1.37532 -0.769588 0
M  V30 5087 C 472.791 -1.23392 -1.51768 0
M  V30 5088 C 473.171 0.17157 -2.10402 0
M  V30 5089 O 472.519 1.17943 -1.95708 0
M  V30 5090 C 472.729 -2.33163 -2.59685 0
M  V30 5091 C 474.077 -2.70809 -3.27028 0
M  V30 5092 O 475.101 -2.32355 -2.69981 0
M  V30 5093 O 473.96 -3.37066 -4.30173 0
M  V30 5094 H 471.054 -0.481617 -0.67229 0
M  V30 5095 H 473.6 -1.49318 -0.806368 0
M  V30 5096 H 472.372 -3.27273 -2.14494 0
M  V30 5097 H 471.995 -2.08713 -3.38415 0
M  V30 5098 N 472.992 0.995999 -1.22138 0
M  V30 5099 C 473.94 2.10673 -0.985876 0
M  V30 5100 C 474.934 1.69255 0.0699553 0
M  V30 5101 O 476.14 1.79812 -0.0822176 0
M  V30 5102 H 472.515 0.688865 -0.30161 0
M  V30 5103 H 474.486 2.27711 -1.92848 0
M  V30 5104 C 473.235 3.42881 -0.576909 0
M  V30 5105 H 472.558 3.75191 -1.38101 0
M  V30 5106 H 473.998 4.21589 -0.451518 0
M  V30 5107 C 472.457 3.29265 0.713196 0
M  V30 5108 O 472.987 3.60777 1.76643 0
M  V30 5109 N 471.193 2.82456 0.683162 0
M  V30 5110 H 470.74 2.5701 -0.174242 0
M  V30 5111 H 470.698 2.73727 1.54663 0
M  V30 5112 N 474.47 1.03057 1.19235 0
M  V30 5113 C 475.695 0.74757 1.93458 0
M  V30 5114 C 476.12 -0.687648 1.7508 0
M  V30 5115 O 475.478 -1.47499 1.05422 0
M  V30 5116 C 475.526 1.10604 3.43219 0
M  V30 5117 O 474.63 0.225671 4.11782 0
M  V30 5118 H 473.971 0.276047 0.603899 0
M  V30 5119 H 476.501 1.3777 1.51263 0
M  V30 5120 H 476.511 1.06366 3.93891 0
M  V30 5121 H 475.186 2.15165 3.55917 0
M  V30 5122 H 473.763 0.326795 3.71465 0
M  V30 5123 N 475.948 -1.35272 0.808662 0
M  V30 5124 C 477.364 -1.51806 0.492653 0
M  V30 5125 C 477.564 -1.7574 -0.985778 0
M  V30 5126 O 476.62 -1.80003 -1.77074 0
M  V30 5127 C 477.933 -2.69202 1.33981 0
M  V30 5128 C 479.481 -2.8308 1.33547 0
M  V30 5129 C 479.956 -4.03502 2.16679 0
M  V30 5130 N 481.447 -4.10684 2.14227 0
M  V30 5131 C 482.182 -5.02984 2.75308 0
M  V30 5132 N 481.678 -6.00603 3.45323 0
M  V30 5133 N 483.471 -4.95746 2.64938 0
M  V30 5134 H 475.622 -1.17993 1.76611 0
M  V30 5135 H 477.885 -0.577476 0.751814 0
M  V30 5136 H 477.591 -2.581 2.38909 0
M  V30 5137 H 477.465 -3.63854 0.994491 0
M  V30 5138 H 479.852 -2.93631 0.294036 0
M  V30 5139 H 479.933 -1.89278 1.72068 0
M  V30 5140 H 479.577 -3.93711 3.20864 0
M  V30 5141 H 479.507 -4.96489 1.75517 0
M  V30 5142 H 481.998 -3.40802 1.63285 0
M  V30 5143 H 482.311 -6.67633 3.89212 0
M  V30 5144 H 480.656 -6.0077 3.49428 0
M  V30 5145 H 483.847 -4.18439 2.09825 0
M  V30 5146 H 484.02 -5.67487 3.12829 0
M  V30 5147 N 477.426 -0.562348 -1.47226 0
M  V30 5148 C 478.374 0.195476 -2.31777 0
M  V30 5149 C 479.368 0.90433 -1.43242 0
M  V30 5150 O 480.574 0.825031 -1.59979 0
M  V30 5151 H 476.949 0.0819095 -0.747526 0
M  V30 5152 H 478.92 -0.536753 -2.93533 0
M  V30 5153 C 477.669 1.20902 -3.26003 0
M  V30 5154 H 476.992 0.672997 -3.94095 0
M  V30 5155 H 478.432 1.71006 -3.87986 0
M  V30 5156 C 476.891 2.25955 -2.49891 0
M  V30 5157 O 477.421 3.32969 -2.2471 0
M  V30 5158 N 475.627 2.00019 -2.1081 0
M  V30 5159 H 475.174 1.13006 -2.31489 0
M  V30 5160 H 475.132 2.70523 -1.60201 0
M  V30 5161 N 478.904 1.54736 -0.299062 0
M  V30 5162 C 479.867 2.22127 0.565012 0
M  V30 5163 C 480.867 1.20669 1.06281 0
M  V30 5164 O 482.057 1.45417 0.959145 0
M  V30 5165 C 479.189 2.90611 1.78208 0
M  V30 5166 H 480.382 2.99891 -0.0237448 0
M  V30 5167 H 477.935 1.5622 -0.0498788 0
M  V30 5168 H 478.67 2.16921 2.41072 0
M  V30 5169 H 478.455 3.64984 1.43281 0
M  V30 5170 H 479.945 3.42026 2.396 0
M  V30 5171 N 480.382 0.0267497 1.57577 0
M  V30 5172 C 481.793 -0.512413 1.79531 0
M  V30 5173 C 482.144 -1.72391 0.936791 0
M  V30 5174 O 481.269 -2.15903 0.146543 0
M  V30 5175 C 481.864 -0.936378 3.25603 0
M  V30 5176 C 480.423 -1.42067 3.4856 0
M  V30 5177 C 479.57 -0.384278 2.74624 0
M  V30 5178 H 482.521 0.252797 1.56674 0
M  V30 5179 H 482.542 -1.80088 3.35184 0
M  V30 5180 H 482.054 -0.0544332 3.88062 0
M  V30 5181 H 480.155 -2.32262 2.9135 0
M  V30 5182 H 480.268 -1.42968 4.57271 0
M  V30 5183 H 478.632 -0.851855 2.40032 0
M  V30 5184 H 479.415 0.489159 3.39797 0
M  V30 5185 N 481.861 -1.55662 -0.24637 0
M  V30 5186 C 482.791 -1.93377 -1.30873 0
M  V30 5187 C 483.772 -0.798773 -1.50179 0
M  V30 5188 O 484.957 -1.0591 -1.62778 0
M  V30 5189 C 482.087 -2.22893 -2.66338 0
M  V30 5190 C 481.041 -3.38649 -2.61727 0
M  V30 5191 C 480.367 -3.53708 -4.00992 0
M  V30 5192 C 481.667 -4.74323 -2.18666 0
M  V30 5193 H 483.361 -2.82363 -0.995552 0
M  V30 5194 H 480.907 -1.35854 -0.477464 0
M  V30 5195 H 482.86 -2.47866 -3.40794 0
M  V30 5196 H 481.584 -1.30733 -2.99293 0
M  V30 5197 H 480.243 -3.13685 -1.89729 0
M  V30 5198 H 479.891 -2.58967 -4.31214 0
M  V30 5199 H 479.591 -4.31551 -3.98795 0
M  V30 5200 H 481.115 -3.81003 -4.77147 0
M  V30 5201 H 482.529 -4.98665 -2.82854 0
M  V30 5202 H 480.926 -5.55273 -2.27579 0
M  V30 5203 H 481.996 -4.71349 -1.13834 0
M  V30 5204 N 483.339 0.512053 -1.4905 0
M  V30 5205 C 484.302 1.59704 -1.64399 0
M  V30 5206 C 485.302 1.52285 -0.516317 0
M  V30 5207 O 486.492 1.55635 -0.782527 0
M  V30 5208 C 483.624 2.9935 -1.63102 0
M  V30 5209 H 484.817 1.47428 -2.61161 0
M  V30 5210 H 482.37 0.735469 -1.37915 0
M  V30 5211 H 483.105 3.17116 -0.678836 0
M  V30 5212 H 482.89 3.06144 -2.44986 0
M  V30 5213 H 484.38 3.782 -1.77072 0
M  V30 5214 N 484.817 1.37938 0.762283 0
M  V30 5215 C 486.065 1.33404 1.51815 0
M  V30 5216 C 486.386 -0.0780975 1.94844 0
M  V30 5217 O 485.656 -1.02405 1.67003 0
M  V30 5218 H 484.236 0.490839 0.563104 0
M  V30 5219 H 486.898 1.72527 0.906669 0
M  V30 5220 H 485.994 1.97926 2.41313 0
M  V30 5221 N 486.295 -0.989507 1.22664 0
M  V30 5222 C 487.542 -1.72953 1.05325 0
M  V30 5223 C 487.87 -1.90104 -0.411168 0
M  V30 5224 O 487.125 -1.44386 -1.32103 0
M  V30 5225 C 487.424 -3.13649 1.71345 0
M  V30 5226 C 487.09 -3.16403 3.21248 0
M  V30 5227 C 485.752 -3.16862 3.62149 0
M  V30 5228 C 488.104 -3.12428 4.17179 0
M  V30 5229 C 485.432 -3.11051 4.97458 0
M  V30 5230 C 487.784 -3.08159 5.52468 0
M  V30 5231 C 486.448 -3.06935 5.92746 0
M  V30 5232 H 485.718 -0.632881 0.385412 0
M  V30 5233 H 488.365 -1.15863 1.52473 0
M  V30 5234 H 486.67 -3.74069 1.16532 0
M  V30 5235 H 488.367 -3.69658 1.55416 0
M  V30 5236 H 484.957 -3.16798 2.88682 0
M  V30 5237 H 489.141 -3.11221 3.86595 0
M  V30 5238 H 484.397 -3.0845 5.27891 0
M  V30 5239 H 488.571 -3.04039 6.26525 0
M  V30 5240 H 486.198 -3.02186 6.97558 0
M  V30 5241 N 487.773 -1.03688 -1.18687 0
M  V30 5242 C 489.021 -0.736572 -1.88199 0
M  V30 5243 C 489.342 0.737665 -1.80509 0
M  V30 5244 O 488.612 1.53204 -1.22088 0
M  V30 5245 H 487.192 -0.269466 -0.696704 0
M  V30 5246 H 489.854 -1.31282 -1.44052 0
M  V30 5247 H 488.95 -1.03802 -2.94332 0
M  V30 5248 N 489.251 1.34841 -0.815825 0
M  V30 5249 C 490.481 2.02436 -0.412695 0
M  V30 5250 C 490.889 1.61604 0.983906 0
M  V30 5251 O 490.232 0.813729 1.64694 0
M  V30 5252 C 490.294 3.56953 -0.427182 0
M  V30 5253 C 489.958 4.21083 -1.77589 0
M  V30 5254 C 490.955 4.42107 -2.73564 0
M  V30 5255 C 488.64 4.58006 -2.06243 0
M  V30 5256 C 490.634 4.99169 -3.9637 0
M  V30 5257 C 488.321 5.1478 -3.2931 0
M  V30 5258 C 489.319 5.35304 -4.24191 0
M  V30 5259 O 489.007 5.90878 -5.45086 0
M  V30 5260 H 488.739 0.655631 -0.164695 0
M  V30 5261 H 491.293 1.73246 -1.1034 0
M  V30 5262 H 489.523 3.85372 0.320175 0
M  V30 5263 H 491.212 4.05875 -0.0450875 0
M  V30 5264 H 491.978 4.13953 -2.52721 0
M  V30 5265 H 487.857 4.41339 -1.33196 0
M  V30 5266 H 491.401 5.15105 -4.70439 0
M  V30 5267 H 487.298 5.42362 -3.5002 0
M  V30 5268 H 488.066 6.0932 -5.46508 0
M  V30 5269 N 490.729 0.570148 1.46925 0
M  V30 5270 C 491.977 0.0508523 2.02036 0
M  V30 5271 C 492.298 -1.30885 1.44548 0
M  V30 5272 O 491.568 -1.85647 0.625453 0
M  V30 5273 H 490.148 0.0158088 0.746833 0
M  V30 5274 H 492.81 0.743086 1.80178 0
M  V30 5275 H 491.906 -0.027575 3.12088 0
M  V30 5276 N 492.207 -1.54576 0.307264 0
M  V30 5277 C 493.137 -2.26708 -0.55907 0
M  V30 5278 C 494.118 -1.26893 -1.1328 0
M  V30 5279 O 495.303 -1.55677 -1.16097 0
M  V30 5280 C 492.433 -3.01259 -1.72801 0
M  V30 5281 C 491.387 -4.08275 -1.28435 0
M  V30 5282 C 490.713 -4.70575 -2.53895 0
M  V30 5283 C 492.013 -5.2068 -0.411038 0
M  V30 5284 H 493.707 -2.9937 0.042576 0
M  V30 5285 H 491.253 -1.43983 0.0219173 0
M  V30 5286 H 493.206 -3.50444 -2.34023 0
M  V30 5287 H 491.93 -2.26187 -2.356 0
M  V30 5288 H 490.589 -3.59949 -0.695161 0
M  V30 5289 H 490.237 -3.92136 -3.15021 0
M  V30 5290 H 489.937 -5.42854 -2.24908 0
M  V30 5291 H 491.461 -5.22527 -3.15908 0
M  V30 5292 H 492.875 -5.65721 -0.929097 0
M  V30 5293 H 491.272 -5.99716 -0.214664 0
M  V30 5294 H 492.342 -4.81629 0.562287 0
M  V30 5295 N 493.685 -0.035106 -1.57561 0
M  V30 5296 C 495.096 0.502885 -1.798 0
M  V30 5297 C 495.447 1.71892 -0.945921 0
M  V30 5298 O 494.572 2.15822 -0.157991 0
M  V30 5299 C 495.167 0.919097 -3.26095 0
M  V30 5300 C 493.726 1.40216 -3.49308 0
M  V30 5301 C 492.873 0.369709 -2.74824 0
M  V30 5302 H 495.824 -0.261102 -1.56537 0
M  V30 5303 H 495.845 1.78308 -3.36135 0
M  V30 5304 H 495.357 0.0338526 -3.88085 0
M  V30 5305 H 493.458 2.30714 -2.92578 0
M  V30 5306 H 493.571 1.40541 -4.58023 0
M  V30 5307 H 491.935 0.839113 -2.40481 0
M  V30 5308 H 492.718 -0.507173 -3.39533 0
M  V30 5309 N 495.163 1.55791 0.238111 0
M  V30 5310 C 496.412 1.77234 0.962868 0
M  V30 5311 C 496.725 0.600661 1.86149 0
M  V30 5312 O 497.931 0.698315 2.62366 0
M  V30 5313 C 496.387 3.13808 1.76218 0
M  V30 5314 C 495.995 4.3865 0.910518 0
M  V30 5315 C 497.739 3.44585 2.47914 0
M  V30 5316 C 495.646 5.66252 1.70623 0
M  V30 5317 H 494.576 0.660731 0.36325 0
M  V30 5318 H 497.227 1.8221 0.217242 0
M  V30 5319 H 495.609 3.02963 2.55009 0
M  V30 5320 H 496.783 4.60507 0.164316 0
M  V30 5321 H 495.098 4.15271 0.30647 0
M  V30 5322 H 497.695 4.3714 3.07917 0
M  V30 5323 H 498.038 2.66314 3.19973 0
M  V30 5324 H 498.571 3.56685 1.76127 0
M  V30 5325 H 495.31 6.47369 1.02923 0
M  V30 5326 H 494.83 5.48483 2.42748 0
M  V30 5327 H 496.509 6.05829 2.27114 0
M  V30 5328 N 496.642 -0.504142 1.49319 0
M  V30 5329 C 497.867 -1.28729 1.62615 0
M  V30 5330 C 498.292 -1.85752 0.296309 0
M  V30 5331 O 497.65 -1.65704 -0.735649 0
M  V30 5332 C 497.698 -2.39561 2.69524 0
M  V30 5333 O 496.802 -3.43324 2.28478 0
M  V30 5334 H 496.143 -0.380172 0.544395 0
M  V30 5335 H 498.673 -0.603872 1.95485 0
M  V30 5336 H 498.683 -2.8537 2.91595 0
M  V30 5337 H 497.358 -1.97423 3.66056 0
M  V30 5338 H 495.935 -3.03455 2.16725 0
M  V30 5339 N 498.12 -1.38341 -0.754957 0
M  V30 5340 C 499.536 -1.19508 -1.05783 0
M  V30 5341 C 499.736 -0.0428005 -2.01455 0
M  V30 5342 O 498.792 0.611861 -2.44975 0
M  V30 5343 C 500.105 -2.52091 -1.63923 0
M  V30 5344 C 501.653 -2.58762 -1.76101 0
M  V30 5345 C 502.128 -3.91517 -2.37652 0
M  V30 5346 N 503.619 -3.93049 -2.45085 0
M  V30 5347 C 504.354 -4.9253 -2.93602 0
M  V30 5348 N 503.85 -6.02408 -3.42165 0
M  V30 5349 N 505.643 -4.79921 -2.92629 0
M  V30 5350 H 497.794 -2.1206 -0.120056 0
M  V30 5351 H 500.057 -0.94089 -0.11589 0
M  V30 5352 H 499.763 -3.36858 -1.01093 0
M  V30 5353 H 499.637 -2.70388 -2.63003 0
M  V30 5354 H 502.024 -1.74391 -2.38058 0
M  V30 5355 H 502.105 -2.44333 -0.757294 0
M  V30 5356 H 501.749 -4.76309 -1.76329 0
M  V30 5357 H 501.679 -4.03256 -3.38662 0
M  V30 5358 H 504.17 -3.13685 -2.10736 0
M  V30 5359 H 504.483 -6.74248 -3.77637 0
M  V30 5360 H 502.828 -6.0603 -3.40225 0
M  V30 5361 H 506.019 -3.93194 -2.54001 0
M  V30 5362 H 506.192 -5.57601 -3.30128 0
M  V30 5363 N 499.598 0.982988 -1.23187 0
M  V30 5364 C 500.528 2.09301 -1.03515 0
M  V30 5365 C 501.509 1.70035 0.0471136 0
M  V30 5366 O 502.694 1.93847 -0.117029 0
M  V30 5367 C 499.824 3.4167 -0.622791 0
M  V30 5368 C 498.778 3.94828 -1.65211 0
M  V30 5369 C 498.104 5.23362 -1.09527 0
M  V30 5370 C 499.404 4.2439 -3.04451 0
M  V30 5371 H 501.098 2.26016 -1.96359 0
M  V30 5372 H 498.644 1.08611 -0.945501 0
M  V30 5373 H 500.597 4.18746 -0.472233 0
M  V30 5374 H 499.321 3.24811 0.341329 0
M  V30 5375 H 497.98 3.19895 -1.79061 0
M  V30 5376 H 497.628 5.02852 -0.122211 0
M  V30 5377 H 497.328 5.59895 -1.783 0
M  V30 5378 H 498.852 6.03062 -0.956511 0
M  V30 5379 H 500.266 4.92225 -2.93917 0
M  V30 5380 H 498.663 4.72118 -3.70438 0
M  V30 5381 H 499.733 3.31765 -3.53638 0
M  V30 5382 N 501.076 1.04316 1.18135 0
M  V30 5383 C 502.306 0.767003 1.91835 0
M  V30 5384 C 502.714 -0.68002 1.76557 0
M  V30 5385 O 502.057 -1.47548 1.09432 0
M  V30 5386 C 502.119 1.05674 3.43618 0
M  V30 5387 C 501.783 2.49818 3.82675 0
M  V30 5388 C 502.78 3.48003 3.86251 0
M  V30 5389 C 500.465 2.84596 4.13897 0
M  V30 5390 C 502.459 4.79016 4.20503 0
M  V30 5391 C 500.146 4.15813 4.4782 0
M  V30 5392 C 501.144 5.12834 4.51099 0
M  V30 5393 O 500.832 6.41699 4.84229 0
M  V30 5394 H 500.564 0.278948 0.615763 0
M  V30 5395 H 503.118 1.3946 1.50798 0
M  V30 5396 H 501.348 0.372029 3.84906 0
M  V30 5397 H 503.037 0.767994 3.98568 0
M  V30 5398 H 503.803 3.22475 3.62264 0
M  V30 5399 H 499.682 2.09748 4.1052 0
M  V30 5400 H 503.226 5.54739 4.22978 0
M  V30 5401 H 499.123 4.41109 4.71268 0
M  V30 5402 H 499.891 6.46387 5.02121 0
M  V30 5403 N 502.554 -1.34406 0.822964 0
M  V30 5404 C 503.517 -2.2783 0.250271 0
M  V30 5405 C 504.517 -1.50288 -0.571854 0
M  V30 5406 O 505.707 -1.69825 -0.387952 0
M  V30 5407 C 502.839 -3.34663 -0.649137 0
M  V30 5408 H 504.032 -2.79992 1.07444 0
M  V30 5409 H 501.585 -1.44539 0.594829 0
M  V30 5410 H 502.32 -2.87714 -1.49637 0
M  V30 5411 H 502.105 -3.92052 -0.0611199 0
M  V30 5412 H 503.595 -4.04349 -1.04363 0
M  V30 5413 N 504.032 -0.577932 -1.46621 0
M  V30 5414 C 504.979 0.158048 -2.30258 0
M  V30 5415 C 505.949 0.888669 -1.40328 0
M  V30 5416 O 507.134 0.880283 -1.6928 0
M  V30 5417 C 504.274 1.16884 -3.24703 0
M  V30 5418 C 503.387 0.442163 -4.29731 0
M  V30 5419 C 502.522 1.44007 -5.11308 0
M  V30 5420 C 501.561 0.69952 -6.0809 0
M  V30 5421 N 500.698 1.64525 -6.82551 0
M  V30 5422 H 505.538 -0.561242 -2.92667 0
M  V30 5423 H 503.075 -0.288591 -1.44241 0
M  V30 5424 H 505.033 1.7677 -3.779 0
M  V30 5425 H 503.663 1.85591 -2.64113 0
M  V30 5426 H 502.715 -0.271632 -3.79429 0
M  V30 5427 H 504.027 -0.136992 -4.98612 0
M  V30 5428 H 503.181 2.11186 -5.68758 0
M  V30 5429 H 501.92 2.05315 -4.42377 0
M  V30 5430 H 500.925 0.0139217 -5.49798 0
M  V30 5431 H 502.15 0.091894 -6.79038 0
M  V30 5432 H 500.096 2.24653 -6.16334 0
M  V30 5433 H 500.013 1.11878 -7.47676 0
M  V30 5434 H 501.281 2.30754 -7.44562 0
M  V30 5435 N 505.51 1.54411 -0.315457 0
M  V30 5436 C 506.74 2.04536 0.291315 0
M  V30 5437 C 507.148 1.19162 1.4696 0
M  V30 5438 O 506.491 0.213199 1.82459 0
M  V30 5439 C 506.553 3.5056 0.796725 0
M  V30 5440 C 506.217 4.5627 -0.258178 0
M  V30 5441 C 507.214 5.08312 -1.09153 0
M  V30 5442 C 504.899 5.00672 -0.404036 0
M  V30 5443 C 506.893 6.03312 -2.05655 0
M  V30 5444 C 504.58 5.95488 -1.37248 0
M  V30 5445 C 505.578 6.46693 -2.19721 0
M  V30 5446 O 505.266 7.39648 -3.14921 0
M  V30 5447 H 504.998 0.672856 0.0651165 0
M  V30 5448 H 507.552 2.00244 -0.457308 0
M  V30 5449 H 505.782 3.52223 1.59612 0
M  V30 5450 H 507.471 3.83804 1.32096 0
M  V30 5451 H 508.237 4.74793 -0.98979 0
M  V30 5452 H 504.116 4.60436 0.22799 0
M  V30 5453 H 507.66 6.43203 -2.70067 0
M  V30 5454 H 503.557 6.28424 -1.47489 0
M  V30 5455 H 504.325 7.57496 -3.10067 0
M  V30 5456 N 506.988 0.0434614 1.5754 0
M  V30 5457 C 508.235 -0.632035 1.92384 0
M  V30 5458 C 508.563 -1.71304 0.921157 0
M  V30 5459 O 507.818 -1.95583 -0.067744 0
M  V30 5460 C 508.117 -1.2738 3.3393 0
M  V30 5461 C 507.783 -0.321757 4.49751 0
M  V30 5462 C 506.445 -0.0597611 4.81163 0
M  V30 5463 C 508.797 0.331158 5.20147 0
M  V30 5464 C 506.125 0.862715 5.80322 0
M  V30 5465 C 508.477 1.24178 6.20292 0
M  V30 5466 C 507.141 1.51252 6.50138 0
M  V30 5467 H 506.411 -0.231278 0.703983 0
M  V30 5468 H 509.058 0.108294 1.91194 0
M  V30 5469 H 507.363 -2.08921 3.3145 0
M  V30 5470 H 509.06 -1.80326 3.58167 0
M  V30 5471 H 505.65 -0.53614 4.25233 0
M  V30 5472 H 509.834 0.141826 4.96097 0
M  V30 5473 H 505.09 1.08003 6.01785 0
M  V30 5474 H 509.264 1.75381 6.73954 0
M  V30 5475 H 506.891 2.22897 7.26788 0
M  V30 5476 N 508.466 -1.55915 -0.229846 0
M  V30 5477 C 509.398 -1.88209 -1.30805 0
M  V30 5478 C 510.411 -0.769672 -1.43457 0
M  V30 5479 O 511.6 -1.04792 -1.44502 0
M  V30 5480 C 508.7 -2.06829 -2.68468 0
M  V30 5481 C 507.873 -3.37798 -2.77869 0
M  V30 5482 C 506.932 -3.45952 -3.96489 0
M  V30 5483 O 505.958 -4.19043 -3.85216 0
M  V30 5484 N 507.16 -2.76488 -5.10426 0
M  V30 5485 H 509.925 -2.81286 -1.03431 0
M  V30 5486 H 507.486 -1.5636 -0.41991 0
M  V30 5487 H 509.478 -2.09608 -3.46189 0
M  V30 5488 H 508.048 -1.20416 -2.88477 0
M  V30 5489 H 507.268 -3.4719 -1.86689 0
M  V30 5490 H 508.556 -4.24091 -2.81113 0
M  V30 5491 H 507.954 -2.16868 -5.2248 0
M  V30 5492 H 506.511 -2.84938 -5.8622 0
M  V30 5493 N 509.944 0.496216 -1.49584 0
M  V30 5494 C 511.192 1.24756 -1.58998 0
M  V30 5495 C 511.513 1.92968 -0.280775 0
M  V30 5496 O 510.783 1.82959 0.700198 0
M  V30 5497 H 509.363 0.463471 -0.585836 0
M  V30 5498 H 512.025 0.574678 -1.86235 0
M  V30 5499 H 511.121 2.00895 -2.38847 0
M  V30 5500 N 511.423 1.38739 0.74761 0
M  V30 5501 C 512.7 1.25791 1.49786 0
M  V30 5502 C 513.08 -0.138075 2.10648 0
M  V30 5503 O 512.428 -1.14815 1.9756 0
M  V30 5504 C 512.638 2.37265 2.55942 0
M  V30 5505 C 513.986 2.75978 3.22679 0
M  V30 5506 O 515.01 2.36621 2.6625 0
M  V30 5507 O 513.869 3.43867 4.24756 0
M  V30 5508 H 510.963 0.492251 0.664543 0
M  V30 5509 H 513.509 1.50582 0.782511 0
M  V30 5510 H 512.281 3.30644 2.0926 0
M  V30 5511 H 511.904 2.14071 3.35051 0
M  V30 5512 N 512.901 -0.976442 1.23707 0
M  V30 5513 C 513.831 -2.08749 1.04624 0
M  V30 5514 C 514.812 -1.70057 -0.0380956 0
M  V30 5515 O 515.997 -1.93782 0.127308 0
M  V30 5516 C 513.127 -3.41335 0.640902 0
M  V30 5517 C 512.081 -3.93947 1.67302 0
M  V30 5518 C 511.407 -5.22774 1.12301 0
M  V30 5519 C 512.707 -4.22769 3.06697 0
M  V30 5520 H 514.401 -2.24972 1.97555 0
M  V30 5521 H 511.947 -1.08108 0.951247 0
M  V30 5522 H 513.9 -4.18489 0.494434 0
M  V30 5523 H 512.624 -3.24988 -0.324099 0
M  V30 5524 H 511.283 -3.18941 1.80755 0
M  V30 5525 H 510.931 -5.0278 0.148877 0
M  V30 5526 H 510.631 -5.58942 1.81267 0
M  V30 5527 H 512.155 -6.02546 0.988479 0
M  V30 5528 H 513.569 -4.90659 2.96524 0
M  V30 5529 H 511.966 -4.70147 3.72937 0
M  V30 5530 H 513.036 -3.29885 3.55392 0
M  V30 5531 N 514.379 -1.04941 -1.1758 0
M  V30 5532 C 515.327 -0.64204 -2.23563 0
M  V30 5533 C 516.321 0.335453 -1.66045 0
M  V30 5534 O 517.527 0.20179 -1.78865 0
M  V30 5535 H 513.902 -0.18944 -0.727748 0
M  V30 5536 H 515.873 -1.54609 -2.55223 0
M  V30 5537 C 514.622 -0.0301051 -3.47687 0
M  V30 5538 H 513.945 -0.773339 -3.92249 0
M  V30 5539 H 515.385 0.217592 -4.23441 0
M  V30 5540 C 513.844 1.2225 -3.13937 0
M  V30 5541 O 514.374 2.3122 -3.28482 0
M  V30 5542 N 512.58 1.11917 -2.68185 0
M  V30 5543 H 512.127 0.232403 -2.5655 0
M  V30 5544 H 512.085 1.95814 -2.45976 0
M  V30 5545 N 515.857 1.33968 -0.830081 0
M  V30 5546 C 516.787 2.31911 -0.271911 0
M  V30 5547 C 517.768 1.58571 0.61556 0
M  V30 5548 O 518.953 1.86514 0.540946 0
M  V30 5549 C 516.083 3.42737 0.561146 0
M  V30 5550 C 515.037 4.27383 -0.229789 0
M  V30 5551 C 514.363 5.29742 0.726463 0
M  V30 5552 C 515.663 5.02 -1.44197 0
M  V30 5553 H 517.357 2.78844 -1.09025 0
M  V30 5554 H 514.903 1.34061 -0.52571 0
M  V30 5555 H 516.856 4.10276 0.961867 0
M  V30 5556 H 515.58 2.94471 1.41261 0
M  V30 5557 H 514.239 3.61456 -0.611964 0
M  V30 5558 H 513.887 4.77736 1.57408 0
M  V30 5559 H 513.587 5.87255 0.20142 0
M  V30 5560 H 515.111 6.00149 1.12489 0
M  V30 5561 H 516.525 5.62355 -1.11488 0
M  V30 5562 H 514.922 5.69122 -1.90317 0
M  V30 5563 H 515.992 4.31281 -2.2164 0
M  V30 5564 N 517.335 0.585699 1.46312 0
M  V30 5565 C 518.565 0.0780166 2.06453 0
M  V30 5566 C 518.973 -1.2336 1.43454 0
M  V30 5567 O 518.316 -1.75734 0.535086 0
M  V30 5568 C 518.378 -0.158951 3.59148 0
M  V30 5569 C 518.042 1.06752 4.44357 0
M  V30 5570 C 519.039 1.98031 4.80708 0
M  V30 5571 C 516.724 1.2902 4.85447 0
M  V30 5572 C 518.718 3.09924 5.5698 0
M  V30 5573 C 516.405 2.41218 5.61478 0
M  V30 5574 C 517.403 3.31499 5.97158 0
M  V30 5575 O 517.091 4.41747 6.71651 0
M  V30 5576 H 516.823 0.0558894 0.673686 0
M  V30 5577 H 519.377 0.806994 1.88883 0
M  V30 5578 H 517.607 -0.942575 3.75037 0
M  V30 5579 H 519.296 -0.615513 4.01206 0
M  V30 5580 H 520.062 1.82043 4.49539 0
M  V30 5581 H 515.941 0.596567 4.57124 0
M  V30 5582 H 519.485 3.80415 5.84748 0
M  V30 5583 H 515.382 2.57167 5.9206 0
M  V30 5584 H 516.15 4.40152 6.90079 0
M  V30 5585 N 518.813 -1.54241 0.323641 0
M  V30 5586 C 520.038 -2.05452 -0.283605 0
M  V30 5587 C 520.463 -1.19823 -1.44997 0
M  V30 5588 O 519.821 -0.207358 -1.8011 0
M  V30 5589 C 519.869 -3.53823 -0.695795 0
M  V30 5590 O 518.973 -3.71134 -1.79815 0
M  V30 5591 H 518.314 -0.662024 -0.0511917 0
M  V30 5592 H 520.844 -1.99079 0.472073 0
M  V30 5593 H 520.854 -3.96094 -0.978434 0
M  V30 5594 H 519.529 -4.15602 0.157287 0
M  V30 5595 H 518.106 -3.40768 -1.51431 0
M  V30 5596 N 520.291 -0.0518155 -1.57515 0
M  V30 5597 C 521.221 0.920283 -2.146 0
M  V30 5598 C 522.202 1.32406 -1.06783 0
M  V30 5599 O 523.387 1.39866 -1.34726 0
M  V30 5600 C 520.517 2.1949 -2.6915 0
M  V30 5601 C 519.471 1.93116 -3.81956 0
M  V30 5602 C 518.797 3.27037 -4.23026 0
M  V30 5603 C 520.097 1.25225 -5.07066 0
M  V30 5604 H 521.791 0.444801 -2.96077 0
M  V30 5605 H 519.337 0.212508 -1.42423 0
M  V30 5606 H 521.29 2.87894 -3.07725 0
M  V30 5607 H 520.014 2.69244 -1.84865 0
M  V30 5608 H 518.673 1.27123 -3.43854 0
M  V30 5609 H 518.321 3.74595 -3.3569 0
M  V30 5610 H 518.021 3.10189 -4.99056 0
M  V30 5611 H 519.545 3.96673 -4.64202 0
M  V30 5612 H 520.959 1.83666 -5.43083 0
M  V30 5613 H 519.356 1.18702 -5.88243 0
M  V30 5614 H 520.426 0.228382 -4.84362 0
M  V30 5615 N 521.769 1.56035 0.221574 0
M  V30 5616 C 522.994 1.83476 0.967026 0
M  V30 5617 C 523.419 0.632139 1.7716 0
M  V30 5618 O 522.777 -0.419082 1.7639 0
M  V30 5619 C 522.825 3.08907 1.86034 0
M  V30 5620 O 521.929 2.876 2.95567 0
M  V30 5621 H 521.27 0.604913 0.273817 0
M  V30 5622 H 523.8 2.03247 0.234893 0
M  V30 5623 H 523.81 3.3901 2.27016 0
M  V30 5624 H 522.485 3.96068 1.26898 0
M  V30 5625 H 521.062 2.6873 2.58532 0
M  V30 5626 N 523.247 -0.488276 1.49845 0
M  V30 5627 C 524.495 -1.23911 1.59657 0
M  V30 5628 C 524.816 -1.92816 0.291005 0
M  V30 5629 O 524.086 -1.83328 -0.690485 0
M  V30 5630 H 522.666 -0.460357 0.588286 0
M  V30 5631 H 525.328 -0.564794 1.86537 0
M  V30 5632 H 524.424 -1.99625 2.39909 0
M  V30 5633 N 524.725 -1.39134 -0.740242 0
M  V30 5634 C 525.955 -1.39132 -1.52728 0
M  V30 5635 C 526.363 0.0173133 -1.89192 0
M  V30 5636 O 525.706 0.997715 -1.54244 0
M  V30 5637 C 525.768 -2.1952 -2.84695 0
M  V30 5638 C 525.432 -3.68203 -2.70695 0
M  V30 5639 C 526.429 -4.61401 -2.39593 0
M  V30 5640 C 524.114 -4.11724 -2.8773 0
M  V30 5641 C 526.108 -5.96102 -2.25701 0
M  V30 5642 C 523.795 -5.46503 -2.73456 0
M  V30 5643 C 524.793 -6.38506 -2.42486 0
M  V30 5644 O 524.481 -7.70803 -2.28295 0
M  V30 5645 H 524.213 -0.477263 -0.478744 0
M  V30 5646 H 526.767 -1.83504 -0.922799 0
M  V30 5647 H 524.997 -1.69888 -3.47383 0
M  V30 5648 H 526.686 -2.1176 -3.46284 0
M  V30 5649 H 527.452 -4.29079 -2.26088 0
M  V30 5650 H 523.331 -3.4045 -3.10829 0
M  V30 5651 H 526.875 -6.6788 -2.0145 0
M  V30 5652 H 522.772 -5.78417 -2.86538 0
M  V30 5653 H 523.54 -7.8147 -2.43405 0
M  V30 5654 N 526.204 0.969867 -1.24223 0
M  V30 5655 C 527.452 1.70918 -1.0785 0
M  V30 5656 C 527.773 1.91186 0.383763 0
M  V30 5657 O 527.043 1.48806 1.27411 0
M  V30 5658 H 525.623 0.633334 -0.396103 0
M  V30 5659 H 528.285 1.16689 -1.56108 0
M  V30 5660 H 527.381 2.69455 -1.57482 0
M  V30 5661 N 527.682 1.05563 1.17022 0
M  V30 5662 C 528.91 0.78845 1.91288 0
M  V30 5663 C 529.325 -0.656318 1.77025 0
M  V30 5664 O 528.682 -1.44869 1.10992 0
M  V30 5665 C 528.733 1.16444 3.42232 0
M  V30 5666 O 528.454 2.5525 3.5606 0
M  V30 5667 C 529.955 0.923937 4.33565 0
M  V30 5668 H 527.175 0.286389 0.606813 0
M  V30 5669 H 529.719 1.4073 1.48375 0
M  V30 5670 H 527.874 0.590266 3.82877 0
M  V30 5671 H 528.288 2.70097 4.49609 0
M  V30 5672 H 529.762 1.23672 5.37968 0
M  V30 5673 H 530.239 -0.140688 4.38975 0
M  V30 5674 H 530.845 1.48214 3.98639 0
M  V30 5675 N 529.16 -1.33526 0.837174 0
M  V30 5676 C 530.437 -1.92369 0.354065 0
M  V30 5677 C 530.817 -1.76348 -1.16038 0
M  V30 5678 O 530.165 -1.15083 -1.97403 0
M  V30 5679 C 530.375 -3.39728 0.799101 0
M  V30 5680 C 531.723 -4.16877 0.806139 0
M  V30 5681 O 532.747 -3.48373 0.742597 0
M  V30 5682 O 531.606 -5.39166 0.892345 0
M  V30 5683 H 528.7 -0.820952 0.0998378 0
M  V30 5684 H 531.246 -1.42409 0.922913 0
M  V30 5685 H 530.018 -3.45254 1.84162 0
M  V30 5686 H 529.641 -3.97062 0.206731 0
M  V30 5687 N 530.638 -0.59345 -1.46 0
M  V30 5688 C 531.601 0.123538 -2.28867 0
M  V30 5689 C 532.601 0.808628 -1.38989 0
M  V30 5690 O 533.791 0.658945 -1.61256 0
M  V30 5691 C 530.923 1.1847 -3.19653 0
M  V30 5692 H 532.116 -0.604843 -2.93737 0
M  V30 5693 H 529.669 -0.351875 -1.52288 0
M  V30 5694 H 530.404 1.94431 -2.59552 0
M  V30 5695 H 530.189 0.69783 -3.8584 0
M  V30 5696 H 531.679 1.68726 -3.81997 0
M  V30 5697 N 532.116 1.54067 -0.331816 0
M  V30 5698 C 533.365 1.99895 0.269209 0
M  V30 5699 C 533.678 1.22371 1.52593 0
M  V30 5700 O 534.884 1.58618 2.20347 0
M  V30 5701 C 533.34 3.55972 0.530244 0
M  V30 5702 C 532.948 4.4234 -0.709901 0
M  V30 5703 C 534.692 4.10247 1.09077 0
M  V30 5704 C 532.599 5.89905 -0.420312 0
M  V30 5705 H 531.529 0.746741 0.104371 0
M  V30 5706 H 534.18 1.78014 -0.445324 0
M  V30 5707 H 532.562 3.73873 1.30518 0
M  V30 5708 H 533.736 4.36215 -1.48504 0
M  V30 5709 H 532.051 3.98997 -1.19123 0
M  V30 5710 H 534.648 5.18095 1.32219 0
M  V30 5711 H 534.991 3.62739 2.0427 0
M  V30 5712 H 535.524 3.96011 0.376824 0
M  V30 5713 H 532.263 6.41623 -1.34164 0
M  V30 5714 H 531.783 5.98962 0.316962 0
M  V30 5715 H 533.462 6.46991 -0.0331956 0
M  V30 5716 N 533.594 0.0601682 1.57485 0
M  V30 5717 C 534.843 -0.611101 1.9222 0
M  V30 5718 C 535.156 -1.71469 0.941159 0
M  V30 5719 O 536.362 -2.44473 1.18089 0
M  V30 5720 C 534.818 -1.13832 3.41424 0
M  V30 5721 C 534.426 -0.0663596 4.47951 0
M  V30 5722 C 536.17 -1.78432 3.85178 0
M  V30 5723 C 534.077 -0.606965 5.88277 0
M  V30 5724 H 533.007 -0.232033 0.71741 0
M  V30 5725 H 535.658 0.130518 1.83035 0
M  V30 5726 H 534.04 -1.93254 3.45643 0
M  V30 5727 H 535.214 0.707682 4.55333 0
M  V30 5728 H 533.529 0.482715 4.13593 0
M  V30 5729 H 536.126 -2.1989 4.87394 0
M  V30 5730 H 536.469 -2.63966 3.21913 0
M  V30 5731 H 537.002 -1.05651 3.83514 0
M  V30 5732 H 533.741 0.21095 6.5516 0
M  V30 5733 H 533.261 -1.34879 5.84438 0
M  V30 5734 H 534.94 -1.08704 6.37803 0
M  V30 5735 N 535.072 -1.5615 -0.213296 0
M  V30 5736 C 536.302 -1.83372 -0.951757 0
M  V30 5737 C 536.71 -0.638158 -1.78113 0
M  V30 5738 O 536.053 0.402609 -1.79234 0
M  V30 5739 C 536.115 -3.04444 -1.91192 0
M  V30 5740 C 535.779 -4.39107 -1.26627 0
M  V30 5741 C 536.776 -5.15794 -0.652087 0
M  V30 5742 C 534.461 -4.85834 -1.27556 0
M  V30 5743 C 536.455 -6.37376 -0.055814 0
M  V30 5744 C 534.142 -6.07356 -0.675451 0
M  V30 5745 C 535.14 -6.82967 -0.0666367 0
M  V30 5746 O 534.828 -8.0219 0.524119 0
M  V30 5747 H 534.56 -0.613398 -0.284111 0
M  V30 5748 H 537.114 -2.04096 -0.231112 0
M  V30 5749 H 535.344 -2.79559 -2.67178 0
M  V30 5750 H 537.033 -3.18466 -2.51662 0
M  V30 5751 H 537.799 -4.80796 -0.637172 0
M  V30 5752 H 533.678 -4.26949 -1.73883 0
M  V30 5753 H 537.222 -6.96334 0.420004 0
M  V30 5754 H 533.119 -6.41825 -0.687806 0
M  V30 5755 H 533.887 -8.17426 0.419243 0
M  V30 5756 N 536.55 0.480323 -1.50102 0
M  V30 5757 C 537.48 1.58769 -1.71215 0
M  V30 5758 C 538.461 1.60583 -0.560997 0
M  V30 5759 O 539.646 1.76996 -0.799127 0
M  V30 5760 C 536.776 2.97148 -1.79778 0
M  V30 5761 C 535.73 3.10201 -2.94888 0
M  V30 5762 C 535.056 4.50137 -2.88584 0
M  V30 5763 C 536.356 2.88283 -4.35534 0
M  V30 5764 H 538.05 1.41354 -2.6393 0
M  V30 5765 H 535.596 0.678591 -1.27008 0
M  V30 5766 H 537.549 3.74536 -1.93133 0
M  V30 5767 H 536.273 3.15699 -0.836772 0
M  V30 5768 H 534.932 2.35244 -2.81169 0
M  V30 5769 H 534.58 4.65593 -1.90349 0
M  V30 5770 H 534.28 4.59808 -3.65856 0
M  V30 5771 H 535.804 5.29558 -3.03976 0
M  V30 5772 H 537.218 3.55427 -4.49827 0
M  V30 5773 H 535.615 3.09408 -5.14186 0
M  V30 5774 H 536.685 1.84219 -4.48544 0
M  V30 5775 N 538.028 1.39524 0.732853 0
M  V30 5776 C 538.975 1.38416 1.84688 0
M  V30 5777 C 539.945 0.243539 1.64305 0
M  V30 5778 O 541.13 0.438979 1.85681 0
M  V30 5779 C 538.27 1.23555 3.22224 0
M  V30 5780 C 537.383 2.47179 3.54298 0
M  V30 5781 C 536.518 2.2489 4.81246 0
M  V30 5782 C 535.557 3.44178 5.0617 0
M  V30 5783 N 534.694 3.21192 6.24323 0
M  V30 5784 H 539.534 2.33645 1.84971 0
M  V30 5785 H 537.071 1.16059 0.903804 0
M  V30 5786 H 539.029 1.12949 4.0162 0
M  V30 5787 H 537.659 0.31954 3.21215 0
M  V30 5788 H 536.711 2.68379 2.69587 0
M  V30 5789 H 538.023 3.36022 3.68633 0
M  V30 5790 H 537.177 2.11538 5.68627 0
M  V30 5791 H 535.916 1.33443 4.69089 0
M  V30 5792 H 534.921 3.58025 4.17251 0
M  V30 5793 H 536.146 4.36528 5.20212 0
M  V30 5794 H 534.092 2.32413 6.1345 0
M  V30 5795 H 534.009 4.03594 6.39256 0
M  V30 5796 H 535.277 3.1154 7.14537 0
M  V30 5797 N 539.506 -0.963266 1.24736 0
M  V30 5798 C 540.469 -2.04013 1.04457 0
M  V30 5799 C 541.469 -1.608 0.000335555 0
M  V30 5800 O 542.659 -1.72515 0.241719 0
M  V30 5801 C 539.791 -3.35858 0.584162 0
M  V30 5802 H 540.984 -2.23436 2.00041 0
M  V30 5803 H 538.537 -1.13914 1.07021 0
M  V30 5804 H 539.272 -3.22128 -0.374673 0
M  V30 5805 H 539.057 -3.68568 1.3379 0
M  V30 5806 H 540.547 -4.1502 0.463451 0
M  V30 5807 N 540.985 -1.06182 -1.16461 0
M  V30 5808 C 541.915 -0.692861 -2.22984 0
M  V30 5809 C 542.896 0.314122 -1.67174 0
M  V30 5810 O 544.081 0.189499 -1.93273 0
M  V30 5811 C 541.211 -0.07732 -3.47214 0
M  V30 5812 C 540.165 -1.01015 -4.15909 0
M  V30 5813 C 539.491 -0.257973 -5.34077 0
M  V30 5814 C 540.791 -2.33868 -4.67015 0
M  V30 5815 H 542.485 -1.58343 -2.54102 0
M  V30 5816 H 540.031 -0.76279 -1.22137 0
M  V30 5817 H 541.984 0.19266 -4.20959 0
M  V30 5818 H 540.708 0.848254 -3.15392 0
M  V30 5819 H 539.367 -1.26486 -3.44088 0
M  V30 5820 H 539.015 0.670684 -4.98509 0
M  V30 5821 H 538.715 -0.879638 -5.80979 0
M  V30 5822 H 540.239 0.00448788 -6.106 0
M  V30 5823 H 541.653 -2.1279 -5.32347 0
M  V30 5824 H 540.05 -2.91522 -5.24533 0
M  V30 5825 H 541.12 -2.97019 -3.83286 0
M  V30 5826 N 542.463 1.3308 -0.844243 0
M  V30 5827 C 543.688 2.02341 -0.455282 0
M  V30 5828 C 544.113 1.6308 0.93737 0
M  V30 5829 O 543.471 0.826118 1.61385 0
M  V30 5830 C 543.519 3.55743 -0.58988 0
M  V30 5831 O 542.623 4.1063 0.38166 0
M  V30 5832 H 541.964 0.637898 -0.184343 0
M  V30 5833 H 544.494 1.6986 -1.14056 0
M  V30 5834 H 544.504 4.05243 -0.473522 0
M  V30 5835 H 543.179 3.83662 -1.60549 0
M  V30 5836 H 541.756 3.72236 0.22241 0
M  V30 5837 N 543.941 0.601185 1.45683 0
M  V30 5838 C 545.166 0.0982245 2.07167 0
M  V30 5839 C 545.591 -1.20546 1.44396 0
M  V30 5840 O 544.949 -1.73247 0.534347 0
M  V30 5841 C 544.997 -0.0346976 3.60583 0
M  V30 5842 O 544.101 -1.08657 3.97828 0
M  V30 5843 H 543.442 0.0711618 0.660176 0
M  V30 5844 H 545.972 0.829376 1.87036 0
M  V30 5845 H 545.982 -0.234969 4.07323 0
M  V30 5846 H 544.657 0.917265 4.05659 0
M  V30 5847 H 543.234 -0.863275 3.6277 0
M  V30 5848 N 545.419 -1.53889 0.339982 0
M  V30 5849 C 546.329 -2.28604 -0.526988 0
M  V30 5850 C 547.345 -1.33578 -1.11503 0
M  V30 5851 O 548.521 -1.66612 -1.13148 0
M  V30 5852 C 545.586 -3.04164 -1.66389 0
M  V30 5853 C 544.647 -4.14809 -1.10599 0
M  V30 5854 C 543.88 -4.86756 -2.18871 0
M  V30 5855 O 544.103 -4.58343 -3.39526 0
M  V30 5856 O 543.037 -5.73289 -1.83366 0
M  V30 5857 H 546.863 -3.03594 0.0802707 0
M  V30 5858 H 544.448 -1.4903 0.105141 0
M  V30 5859 H 546.33 -3.51427 -2.32544 0
M  V30 5860 H 545.005 -2.32035 -2.25703 0
M  V30 5861 H 543.912 -3.71857 -0.409067 0
M  V30 5862 H 545.245 -4.89029 -0.557771 0
M  V30 5863 N 546.897 -0.0685191 -1.57451 0
M  V30 5864 C 548.122 0.613919 -1.98106 0
M  V30 5865 C 548.547 1.62551 -0.946501 0
M  V30 5866 O 547.905 1.81085 0.0882824 0
M  V30 5867 C 547.953 1.26189 -3.378 0
M  V30 5868 O 547.057 2.37773 -3.36954 0
M  V30 5869 H 546.398 0.158163 -0.644888 0
M  V30 5870 H 548.928 -0.142063 -2.04106 0
M  V30 5871 H 548.938 1.60951 -3.74912 0
M  V30 5872 H 547.613 0.520625 -4.12629 0
M  V30 5873 H 546.19 2.04829 -3.11608 0
M  V30 5874 N 548.375 1.56261 0.205012 0
M  V30 5875 C 549.624 1.79236 0.925058 0
M  V30 5876 C 549.937 0.640011 1.84833 0
M  V30 5877 O 551.143 0.753809 2.60826 0
M  V30 5878 C 549.599 3.17475 1.69522 0
M  V30 5879 C 549.207 4.40482 0.817269 0
M  V30 5880 C 550.951 3.49766 2.4055 0
M  V30 5881 C 548.858 5.69744 1.58573 0
M  V30 5882 H 547.788 0.668287 0.349153 0
M  V30 5883 H 550.439 1.82629 0.178544 0
M  V30 5884 H 548.821 3.08304 2.48526 0
M  V30 5885 H 549.995 4.60752 0.0665988 0
M  V30 5886 H 548.31 4.15827 0.218316 0
M  V30 5887 H 550.907 4.43573 2.98575 0
M  V30 5888 H 551.25 2.73041 3.14252 0
M  V30 5889 H 551.783 3.60341 1.68522 0
M  V30 5890 H 548.522 6.49407 0.891679 0
M  V30 5891 H 548.042 5.53509 2.31059 0
M  V30 5892 H 549.721 6.1051 2.14212 0
M  V30 5893 N 549.853 -0.472356 1.50355 0
M  V30 5894 C 550.763 -1.59637 1.7191 0
M  V30 5895 C 551.779 -1.63247 0.602195 0
M  V30 5896 O 552.955 -1.81139 0.880369 0
M  V30 5897 C 550.02 -2.9586 1.80742 0
M  V30 5898 C 549.081 -3.02649 3.04471 0
M  V30 5899 C 548.314 -4.32374 3.12872 0
M  V30 5900 O 548.537 -5.22807 2.28099 0
M  V30 5901 O 547.471 -4.44728 4.05587 0
M  V30 5902 H 551.297 -1.44373 2.67189 0
M  V30 5903 H 548.882 -0.651717 1.34436 0
M  V30 5904 H 550.764 -3.7677 1.88739 0
M  V30 5905 H 549.439 -3.11325 0.88647 0
M  V30 5906 H 548.346 -2.20821 3.01975 0
M  V30 5907 H 549.679 -2.92119 3.9614 0
M  V30 5908 N 551.331 -1.39911 -0.725443 0
M  V30 5909 C 552.278 -1.39393 -1.83952 0
M  V30 5910 C 553.248 -0.252249 -1.64173 0
M  V30 5911 O 554.433 -0.44882 -1.85446 0
M  V30 5912 C 551.573 -1.25262 -3.21564 0
M  V30 5913 C 550.686 -2.49054 -3.52982 0
M  V30 5914 C 549.821 -2.27439 -4.80047 0
M  V30 5915 C 548.86 -3.46857 -5.04338 0
M  V30 5916 N 547.997 -3.24499 -6.22611 0
M  V30 5917 H 552.837 -2.34622 -1.83729 0
M  V30 5918 H 550.374 -1.16537 -0.897636 0
M  V30 5919 H 552.332 -1.15077 -4.01015 0
M  V30 5920 H 550.962 -0.33657 -3.21041 0
M  V30 5921 H 550.014 -2.69805 -2.6816 0
M  V30 5922 H 551.326 -3.37973 -3.66846 0
M  V30 5923 H 550.48 -2.14551 -5.67497 0
M  V30 5924 H 549.219 -1.35929 -4.68374 0
M  V30 5925 H 548.224 -3.60232 -4.15346 0
M  V30 5926 H 549.449 -4.3928 -5.17889 0
M  V30 5927 H 547.395 -2.35663 -6.12208 0
M  V30 5928 H 547.312 -4.06978 -6.37106 0
M  V30 5929 H 548.58 -3.15325 -7.12875 0
M  V30 5930 N 552.809 0.956637 -1.25245 0
M  V30 5931 C 553.739 2.07058 -1.07931 0
M  V30 5932 C 554.72 1.70096 0.0110361 0
M  V30 5933 O 555.905 1.93555 -0.158121 0
M  V30 5934 C 553.035 3.40272 -0.695124 0
M  V30 5935 C 551.989 3.91235 -1.73549 0
M  V30 5936 C 551.315 5.20921 -1.20604 0
M  V30 5937 C 552.615 4.17837 -3.13385 0
M  V30 5938 H 554.309 2.218 -2.01109 0
M  V30 5939 H 551.855 1.06581 -0.968326 0
M  V30 5940 H 553.808 4.1765 -0.560949 0
M  V30 5941 H 552.532 3.25462 0.272355 0
M  V30 5942 H 551.191 3.16025 -1.85807 0
M  V30 5943 H 550.839 5.02479 -0.228846 0
M  V30 5944 H 550.539 5.55987 -1.90136 0
M  V30 5945 H 552.063 6.00897 -1.08421 0
M  V30 5946 H 553.477 4.8588 -3.04292 0
M  V30 5947 H 551.874 4.64154 -3.80369 0
M  V30 5948 H 552.944 3.2419 -3.60595 0
M  V30 5949 N 554.287 1.06798 1.15896 0
M  V30 5950 C 555.698 0.811355 1.68149 0
M  V30 5951 C 556.049 -0.664339 1.8461 0
M  V30 5952 O 555.174 -1.51485 1.54535 0
M  V30 5953 C 555.769 1.46624 3.05429 0
M  V30 5954 C 554.328 1.25726 3.54781 0
M  V30 5955 C 553.475 1.53949 2.3064 0
M  V30 5956 H 556.426 1.23078 1.00187 0
M  V30 5957 H 556.447 0.88437 3.7008 0
M  V30 5958 H 555.959 2.54025 2.93416 0
M  V30 5959 H 554.06 0.20322 3.72045 0
M  V30 5960 H 554.173 1.97354 4.36564 0
M  V30 5961 H 552.537 0.96025 2.35905 0
M  V30 5962 H 553.32 2.6252 2.2122 0
M  V30 5963 N 555.766 -1.3263 0.851289 0
M  V30 5964 C 557.012 -1.9766 0.453694 0
M  V30 5965 C 557.345 -1.67225 -0.987396 0
M  V30 5966 O 556.62 -0.958693 -1.69232 0
M  V30 5967 C 556.903 -3.5344 0.68936 0
M  V30 5968 C 556.756 -3.93517 2.17862 0
M  V30 5969 C 558.075 -4.39866 0.143555 0
M  V30 5970 H 555.194 -0.717989 0.166314 0
M  V30 5971 H 557.836 -1.57068 1.06909 0
M  V30 5972 H 555.986 -3.88147 0.165546 0
M  V30 5973 H 557.658 -3.69006 2.76826 0
M  V30 5974 H 555.901 -3.42798 2.65841 0
M  V30 5975 H 556.572 -5.02065 2.29422 0
M  V30 5976 H 559.048 -4.11875 0.591451 0
M  V30 5977 H 557.924 -5.47858 0.338043 0
M  V30 5978 H 558.185 -4.31696 -0.953466 0
M  V30 5979 N 557.244 -0.608902 -1.45362 0
M  V30 5980 C 558.491 -0.104607 -2.0223 0
M  V30 5981 C 558.819 1.26534 -1.47714 0
M  V30 5982 O 558.074 1.84855 -0.642435 0
M  V30 5983 C 558.373 -0.0167296 -3.57396 0
M  V30 5984 C 558.039 -1.32251 -4.31069 0
M  V30 5985 C 556.701 -1.68019 -4.50914 0
M  V30 5986 C 559.053 -2.18542 -4.73169 0
M  V30 5987 C 556.381 -2.89828 -5.10114 0
M  V30 5988 C 558.733 -3.39602 -5.33717 0
M  V30 5989 C 557.397 -3.7562 -5.51784 0
M  V30 5990 H 556.667 -0.0382785 -0.740011 0
M  V30 5991 H 559.314 -0.790782 -1.7441 0
M  V30 5992 H 557.619 0.752715 -3.84502 0
M  V30 5993 H 559.316 0.389634 -3.99103 0
M  V30 5994 H 555.906 -1.03411 -4.15938 0
M  V30 5995 H 560.09 -1.92208 -4.5757 0
M  V30 5996 H 555.346 -3.17839 -5.22291 0
M  V30 5997 H 559.52 -4.06716 -5.65292 0
M  V30 5998 H 557.147 -4.70093 -5.97425 0
M  V30 5999 N 558.722 1.53707 -0.348139 0
M  V30 6000 C 559.67 2.26671 0.521808 0
M  V30 6001 C 560.664 1.28988 1.09811 0
M  V30 6002 O 561.87 1.4668 1.04332 0
M  V30 6003 H 558.245 0.728387 0.186968 0
M  V30 6004 H 560.216 2.98176 -0.115563 0
M  V30 6005 C 558.965 3.05591 1.6586 0
M  V30 6006 H 558.288 3.80589 1.22443 0
M  V30 6007 H 559.728 3.59851 2.24239 0
M  V30 6008 C 558.187 2.15366 2.59073 0
M  V30 6009 O 558.717 1.7528 3.61441 0
M  V30 6010 N 556.923 1.80352 2.27863 0
M  V30 6011 H 556.47 2.13149 1.44656 0
M  V30 6012 H 556.428 1.20268 2.90488 0
M  V30 6013 N 560.2 0.0768682 1.57412 0
M  V30 6014 C 561.147 -0.888577 2.13009 0
M  V30 6015 C 562.117 -1.29198 1.0439 0
M  V30 6016 O 563.302 -1.37694 1.3208 0
M  V30 6017 C 560.442 -2.14899 2.70023 0
M  V30 6018 C 559.555 -1.79777 3.92816 0
M  V30 6019 C 558.69 -3.00467 4.38056 0
M  V30 6020 C 557.729 -2.61385 5.53484 0
M  V30 6021 N 556.866 -3.74851 5.93659 0
M  V30 6022 H 561.706 -0.407593 2.95199 0
M  V30 6023 H 559.243 -0.189534 1.45874 0
M  V30 6024 H 561.201 -2.88688 3.0119 0
M  V30 6025 H 559.831 -2.60529 1.9059 0
M  V30 6026 H 558.883 -0.960301 3.68079 0
M  V30 6027 H 560.195 -1.47027 4.76639 0
M  V30 6028 H 559.349 -3.82529 4.7091 0
M  V30 6029 H 558.088 -3.36413 3.53097 0
M  V30 6030 H 557.093 -1.77746 5.20275 0
M  V30 6031 H 558.318 -2.26603 6.40178 0
M  V30 6032 H 556.264 -4.1055 5.11649 0
M  V30 6033 H 556.181 -3.45887 6.72234 0
M  V30 6034 H 557.449 -4.57477 6.31138 0
M  V30 6035 N 561.678 -1.56367 -0.196722 0
M  V30 6036 C 562.903 -1.84991 -0.937714 0
M  V30 6037 C 563.328 -0.660244 -1.76132 0
M  V30 6038 O 562.686 0.390967 -1.77034 0
M  V30 6039 C 562.734 -3.11828 -1.81096 0
M  V30 6040 O 561.838 -2.92266 -2.90955 0
M  V30 6041 H 561.179 -0.609193 -0.264159 0
M  V30 6042 H 563.709 -2.03595 -0.202529 0
M  V30 6043 H 563.719 -3.42579 -2.21594 0
M  V30 6044 H 562.394 -3.98037 -1.2058 0
M  V30 6045 H 560.971 -2.72809 -2.54224 0
M  V30 6046 N 563.156 0.464375 -1.50603 0
M  V30 6047 C 564.119 1.54393 -1.69397 0
M  V30 6048 C 565.119 1.50566 -0.564504 0
M  V30 6049 O 566.309 1.53066 -0.831645 0
M  V30 6050 C 563.441 2.9401 -1.72543 0
M  V30 6051 H 564.634 1.39044 -2.65719 0
M  V30 6052 H 562.187 0.69122 -1.40185 0
M  V30 6053 H 562.922 3.14795 -0.77938 0
M  V30 6054 H 562.707 2.98195 -2.54602 0
M  V30 6055 H 564.197 3.72375 -1.89015 0
M  V30 6056 N 564.634 1.40294 0.718013 0
M  V30 6057 C 565.881 1.3844 1.47786 0
M  V30 6058 C 566.209 -0.0140838 1.94495 0
M  V30 6059 O 565.464 -0.998165 1.68331 0
M  V30 6060 C 565.763 2.31814 2.72024 0
M  V30 6061 C 565.429 3.79117 2.44093 0
M  V30 6062 C 564.091 4.19249 2.36185 0
M  V30 6063 C 566.443 4.72212 2.20602 0
M  V30 6064 C 563.771 5.50516 2.02851 0
M  V30 6065 C 566.123 6.03775 1.88781 0
M  V30 6066 C 564.787 6.42953 1.79354 0
M  V30 6067 H 564.057 0.506588 0.540786 0
M  V30 6068 H 566.704 1.72929 0.822663 0
M  V30 6069 H 565.009 1.90501 3.42369 0
M  V30 6070 H 566.706 2.27664 3.30106 0
M  V30 6071 H 563.296 3.47318 2.51133 0
M  V30 6072 H 567.48 4.42026 2.25669 0
M  V30 6073 H 562.736 5.79776 1.94088 0
M  V30 6074 H 566.91 6.75428 1.69617 0
M  V30 6075 H 564.537 7.44584 1.53291 0
M  V30 6076 N 566.112 -0.949982 1.2575 0
M  V30 6077 C 567.059 -2.04738 1.06541 0
M  V30 6078 C 568.029 -1.66078 -0.0268818 0
M  V30 6079 O 569.214 -1.90348 0.131196 0
M  V30 6080 C 566.354 -3.38027 0.695127 0
M  V30 6081 C 565.467 -3.89776 1.86276 0
M  V30 6082 C 564.602 -5.11411 1.4364 0
M  V30 6083 C 563.641 -5.554 2.57287 0
M  V30 6084 N 562.778 -6.68244 2.15395 0
M  V30 6085 H 567.618 -2.20502 2.00457 0
M  V30 6086 H 565.155 -1.0805 0.998178 0
M  V30 6087 H 567.113 -4.14641 0.461375 0
M  V30 6088 H 565.743 -3.22135 -0.207046 0
M  V30 6089 H 564.795 -3.0964 2.20969 0
M  V30 6090 H 566.107 -4.18368 2.71606 0
M  V30 6091 H 565.261 -5.95457 1.16257 0
M  V30 6092 H 564 -4.84545 0.553879 0
M  V30 6093 H 563.005 -4.69916 2.85409 0
M  V30 6094 H 564.23 -5.84272 3.46125 0
M  V30 6095 H 562.176 -6.43078 1.29565 0
M  V30 6096 H 562.093 -6.96377 2.94272 0
M  V30 6097 H 563.361 -7.55687 1.91201 0
M  V30 6098 N 567.59 -1.07411 -1.15328 0
M  V30 6099 C 568.54 -0.664788 -2.18093 0
M  V30 6100 C 569.524 0.310395 -1.57878 0
M  V30 6101 O 570.716 0.124026 -1.76565 0
M  V30 6102 C 567.845 -0.0647822 -3.43239 0
M  V30 6103 C 566.931 -1.06514 -4.10506 0
M  V30 6104 N 567.322 -2.24491 -4.53252 0
M  V30 6105 C 565.62 -0.898613 -4.36853 0
M  V30 6106 C 566.321 -2.8796 -5.05424 0
M  V30 6107 N 565.297 -2.15622 -4.99007 0
M  V30 6108 H 569.099 -1.56333 -2.48872 0
M  V30 6109 H 566.613 -0.947393 -1.31902 0
M  V30 6110 H 568.61 0.246363 -4.16171 0
M  V30 6111 H 567.27 0.828866 -3.13943 0
M  V30 6112 H 568.281 -2.62205 -4.46619 0
M  V30 6113 H 564.958 -0.0579118 -4.1746 0
M  V30 6114 H 566.348 -3.88137 -5.48452 0
M  V30 6115 N 569.068 1.32177 -0.85831 0
M  V30 6116 C 570.298 2.01021 -0.476889 0
M  V30 6117 C 570.706 1.64653 0.931995 0
M  V30 6118 O 570.049 0.865713 1.62022 0
M  V30 6119 C 570.111 3.55413 -0.540528 0
M  V30 6120 C 569.775 4.1522 -1.90895 0
M  V30 6121 C 570.772 4.3318 -2.87491 0
M  V30 6122 C 568.457 4.51212 -2.20709 0
M  V30 6123 C 570.451 4.86306 -4.1205 0
M  V30 6124 C 568.138 5.04042 -3.45521 0
M  V30 6125 C 569.136 5.21538 -4.41007 0
M  V30 6126 O 568.824 5.73238 -5.63608 0
M  V30 6127 H 568.556 0.650059 -0.18547 0
M  V30 6128 H 571.11 1.69648 -1.15796 0
M  V30 6129 H 569.34 3.86196 0.19741 0
M  V30 6130 H 571.029 4.05526 -0.174191 0
M  V30 6131 H 571.795 4.05704 -2.65762 0
M  V30 6132 H 567.674 4.36878 -1.4717 0
M  V30 6133 H 571.218 4.99877 -4.86589 0
M  V30 6134 H 567.115 5.30952 -3.67098 0
M  V30 6135 H 567.883 5.91625 -5.65617 0
M  V30 6136 N 570.547 0.616602 1.45037 0
M  V30 6137 C 571.479 -0.135186 2.28801 0
M  V30 6138 C 572.492 -0.82303 1.40464 0
M  V30 6139 O 573.681 -0.686909 1.64754 0
M  V30 6140 C 570.781 -1.21292 3.16451 0
M  V30 6141 C 569.954 -0.61043 4.3312 0
M  V30 6142 C 569.013 -1.58022 5.01912 0
M  V30 6143 O 568.039 -1.10301 5.58411 0
M  V30 6144 N 569.241 -2.91464 5.02025 0
M  V30 6145 H 572.006 0.583612 2.93963 0
M  V30 6146 H 569.567 0.456723 1.55324 0
M  V30 6147 H 571.559 -1.86169 3.59337 0
M  V30 6148 H 570.129 -1.83412 2.53138 0
M  V30 6149 H 569.349 0.216638 3.93604 0
M  V30 6150 H 570.637 -0.188293 5.08451 0
M  V30 6151 H 570.035 -3.32829 4.57429 0
M  V30 6152 H 568.592 -3.51741 5.48745 0
M  V30 6153 N 572.025 -1.5352 0.356285 0
M  V30 6154 C 572.958 -2.2177 -0.537913 0
M  V30 6155 C 573.936 -1.20626 -1.09033 0
M  V30 6156 O 575.12 -1.49494 -1.1482 0
M  V30 6157 C 572.247 -2.90513 -1.74126 0
M  V30 6158 C 571.293 -4.05652 -1.31715 0
M  V30 6159 S 572.126 -5.34505 -0.326236 0
M  V30 6160 C 573.282 -6.06757 -1.53612 0
M  V30 6161 H 573.515 -2.97271 0.0417411 0
M  V30 6162 H 571.048 -1.53761 0.140372 0
M  V30 6163 H 573.006 -3.30735 -2.43155 0
M  V30 6164 H 571.667 -2.14754 -2.29215 0
M  V30 6165 H 570.86 -4.52733 -2.21471 0
M  V30 6166 H 570.462 -3.67272 -0.706183 0
M  V30 6167 H 572.754 -6.30924 -2.46863 0
M  V30 6168 H 573.697 -6.99395 -1.10687 0
M  V30 6169 H 574.105 -5.3708 -1.73796 0
M  V30 6170 N 573.503 -0.0852151 -1.57369 0
M  V30 6171 C 574.728 0.592872 -1.98746 0
M  V30 6172 C 575.153 1.61538 -0.963689 0
M  V30 6173 O 574.511 1.81168 0.069071 0
M  V30 6174 C 574.559 1.22599 -3.39119 0
M  V30 6175 O 573.663 2.34185 -3.39457 0
M  V30 6176 H 573.004 0.151314 -0.646529 0
M  V30 6177 H 575.534 -0.163703 -2.03944 0
M  V30 6178 H 575.544 1.56965 -3.76598 0
M  V30 6179 H 574.219 0.476831 -4.13158 0
M  V30 6180 H 572.796 2.01512 -3.13763 0
M  V30 6181 N 574.981 1.5647 0.188427 0
M  V30 6182 C 576.206 1.85486 0.927891 0
M  V30 6183 C 576.631 0.669575 1.75779 0
M  V30 6184 O 575.989 -0.381573 1.77239 0
M  V30 6185 C 576.037 3.12784 1.7944 0
M  V30 6186 O 575.141 2.93805 2.894 0
M  V30 6187 H 574.482 0.610585 0.260925 0
M  V30 6188 H 577.012 2.037 0.191729 0
M  V30 6189 H 577.022 3.43749 2.19774 0
M  V30 6190 H 575.697 3.98671 1.18468 0
M  V30 6191 H 574.274 2.74153 2.52774 0
M  V30 6192 N 576.459 -0.456382 1.50847 0
M  V30 6193 C 577.369 -1.57805 1.73594 0
M  V30 6194 C 578.385 -1.62599 0.619476 0
M  V30 6195 O 579.561 -1.80195 0.899532 0
M  V30 6196 C 576.626 -2.93926 1.8387 0
M  V30 6197 C 575.687 -2.99402 3.07663 0
M  V30 6198 C 574.92 -4.29031 3.1744 0
M  V30 6199 O 575.143 -5.20358 2.33631 0
M  V30 6200 O 574.077 -4.40401 4.10281 0
M  V30 6201 H 577.903 -1.41531 2.68705 0
M  V30 6202 H 575.488 -0.637422 1.3512 0
M  V30 6203 H 577.37 -3.74747 1.92725 0
M  V30 6204 H 576.045 -3.10368 0.91944 0
M  V30 6205 H 574.952 -2.17606 3.043 0
M  V30 6206 H 576.285 -2.87901 3.99216 0
M  V30 6207 N 577.937 -1.40673 -0.710563 0
M  V30 6208 C 578.9 -1.4108 -1.80635 0
M  V30 6209 C 579.9 -0.303783 -1.57904 0
M  V30 6210 O 581.09 -0.562937 -1.64853 0
M  V30 6211 C 578.222 -1.20748 -3.18799 0
M  V30 6212 H 579.415 -2.38612 -1.81671 0
M  V30 6213 H 576.968 -1.26595 -0.916704 0
M  V30 6214 H 577.703 -0.239964 -3.23411 0
M  V30 6215 H 577.488 -2.00941 -3.36698 0
M  V30 6216 H 578.978 -1.23833 -3.98817 0
M  V30 6217 N 579.415 0.9433 -1.26252 0
M  V30 6218 C 580.692 1.66639 -1.02424 0
M  V30 6219 C 581.072 2.06335 0.446006 0
M  V30 6220 O 580.42 1.78551 1.42589 0
M  V30 6221 C 580.63 2.88019 -1.97094 0
M  V30 6222 C 581.978 3.59718 -2.25584 0
M  V30 6223 O 583.002 2.9812 -1.94943 0
M  V30 6224 O 581.861 4.7066 -2.77743 0
M  V30 6225 H 578.955 0.729643 -0.389294 0
M  V30 6226 H 581.501 0.995218 -1.37454 0
M  V30 6227 H 580.273 2.5556 -2.96319 0
M  V30 6228 H 579.896 3.62863 -1.62532 0
M  V30 6229 N 580.893 1.08022 1.14757 0
M  V30 6230 C 582.17 0.720386 1.81851 0
M  V30 6231 C 582.55 -0.796375 1.95502 0
M  V30 6232 O 581.898 -1.71339 1.51179 0
M  V30 6233 C 582.108 1.44273 3.17783 0
M  V30 6234 C 583.456 1.59925 3.93331 0
M  V30 6235 O 584.48 1.40407 3.2736 0
M  V30 6236 O 583.339 1.92096 5.11626 0
M  V30 6237 H 580.433 0.257142 0.786007 0
M  V30 6238 H 582.979 1.18155 1.21809 0
M  V30 6239 H 581.751 2.47618 3.02987 0
M  V30 6240 H 581.374 0.97279 3.85516 0
M  V30 6241 N 582.371 -1.3172 0.865308 0
M  V30 6242 C 583.617 -1.97559 0.483944 0
M  V30 6243 C 583.972 -1.67181 -0.95227 0
M  V30 6244 O 583.265 -0.955392 -1.66081 0
M  V30 6245 C 583.459 -3.5102 0.672283 0
M  V30 6246 C 583.288 -3.96312 2.12525 0
M  V30 6247 C 582.058 -4.22877 2.76591 0
M  V30 6248 C 584.256 -4.10596 3.09702 0
M  V30 6249 N 582.238 -4.5449 4.12689 0
M  V30 6250 C 583.609 -4.45867 4.30816 0
M  V30 6251 C 585.664 -3.92961 3.05755 0
M  V30 6252 C 584.367 -4.65344 5.48495 0
M  V30 6253 C 586.393 -4.13628 4.22688 0
M  V30 6254 C 585.755 -4.49227 5.42563 0
M  V30 6255 H 581.854 -0.74862 0.226035 0
M  V30 6256 H 584.438 -1.59336 1.11893 0
M  V30 6257 H 582.609 -3.88342 0.0669224 0
M  V30 6258 H 584.341 -4.03865 0.259765 0
M  V30 6259 H 581.096 -4.15343 2.27567 0
M  V30 6260 H 581.52 -4.74464 4.82921 0
M  V30 6261 H 586.162 -3.64531 2.14188 0
M  V30 6262 H 583.88 -4.92624 6.40584 0
M  V30 6263 H 587.466 -4.01474 4.21082 0
M  V30 6264 H 586.346 -4.64895 6.31539 0
M  V30 6265 N 583.85 -0.624285 -1.44708 0
M  V30 6266 C 585.09 -0.129273 -2.03991 0
M  V30 6267 C 585.454 1.22321 -1.47992 0
M  V30 6268 O 586.654 1.80993 -1.98734 0
M  V30 6269 C 584.926 -0.108231 -3.57236 0
M  V30 6270 S 586.485 0.323158 -4.37608 0
M  V30 6271 H 583.303 -0.0577318 -0.708652 0
M  V30 6272 H 585.904 -0.826139 -1.77187 0
M  V30 6273 H 584.609 -1.0958 -3.955 0
M  V30 6274 H 584.139 0.610101 -3.8864 0
M  V30 6275 H 586.154 1.56894 -4.70743 0
M  V30 6276 N 585.328 1.53329 -0.364422 0
M  V30 6277 C 586.577 2.00421 0.226747 0
M  V30 6278 C 586.89 1.25581 1.49963 0
M  V30 6279 O 588.096 1.63256 2.16933 0
M  V30 6280 C 586.552 3.57017 0.454618 0
M  V30 6281 C 586.16 4.40734 -0.803568 0
M  V30 6282 C 587.904 4.12468 1.00351 0
M  V30 6283 C 585.811 5.8888 -0.545345 0
M  V30 6284 H 584.741 0.748787 0.0885082 0
M  V30 6285 H 587.392 1.7703 -0.482983 0
M  V30 6286 H 585.774 3.76558 1.22558 0
M  V30 6287 H 586.948 4.32967 -1.57723 0
M  V30 6288 H 585.263 3.96381 -1.27559 0
M  V30 6289 H 587.86 5.20783 1.212 0
M  V30 6290 H 588.203 3.6699 1.9653 0
M  V30 6291 H 588.736 3.96721 0.29274 0
M  V30 6292 H 585.475 6.38633 -1.47743 0
M  V30 6293 H 584.995 5.99499 0.189842 0
M  V30 6294 H 586.674 6.46776 -0.170425 0
M  V30 6295 N 586.806 0.0935595 1.57322 0
M  V30 6296 C 588.217 -0.435807 1.81542 0
M  V30 6297 C 588.568 -1.68263 1.00907 0
M  V30 6298 O 587.693 -2.15087 0.237983 0
M  V30 6299 C 588.288 -0.797436 3.29282 0
M  V30 6300 C 586.847 -1.27155 3.54272 0
M  V30 6301 C 585.994 -0.267455 2.76007 0
M  V30 6302 H 588.945 0.31902 1.5546 0
M  V30 6303 H 588.966 -1.6571 3.42521 0
M  V30 6304 H 588.478 0.110206 3.87943 0
M  V30 6305 H 586.579 -2.19696 3.00939 0
M  V30 6306 H 586.692 -1.23445 4.62923 0
M  V30 6307 H 585.056 -0.749282 2.43429 0
M  V30 6308 H 585.839 0.632839 3.37417 0
M  V30 6309 N 588.284 -1.56567 -0.180126 0
M  V30 6310 C 589.509 -1.85975 -0.918041 0
M  V30 6311 C 589.934 -0.678888 -1.75422 0
M  V30 6312 O 589.292 0.372168 -1.77439 0
M  V30 6313 C 589.34 -3.13731 -1.77779 0
M  V30 6314 O 588.444 -2.95335 -2.87838 0
M  V30 6315 H 587.785 -0.61196 -0.257683 0
M  V30 6316 H 590.315 -2.03798 -0.180923 0
M  V30 6317 H 590.325 -3.4491 -2.17948 0
M  V30 6318 H 589 -3.99293 -1.16352 0
M  V30 6319 H 587.577 -2.7549 -2.51316 0
M  V30 6320 N 589.762 0.448376 -1.51087 0
M  V30 6321 C 591.178 0.783984 -1.39017 0
M  V30 6322 C 591.378 1.96087 -0.463904 0
M  V30 6323 O 590.434 2.52357 0.0850534 0
M  V30 6324 C 591.747 1.07471 -2.80839 0
M  V30 6325 C 593.295 1.17981 -2.89913 0
M  V30 6326 C 593.77 1.50354 -4.32617 0
M  V30 6327 N 595.261 1.57301 -4.35673 0
M  V30 6328 C 595.996 1.839 -5.4311 0
M  V30 6329 N 595.492 2.08365 -6.60724 0
M  V30 6330 N 597.285 1.8559 -5.30578 0
M  V30 6331 H 589.436 -0.326881 -2.0987 0
M  V30 6332 H 591.699 -0.0838006 -0.944289 0
M  V30 6333 H 591.405 0.282768 -3.50561 0
M  V30 6334 H 591.279 2.00519 -3.19487 0
M  V30 6335 H 593.666 1.9624 -2.20395 0
M  V30 6336 H 593.747 0.228603 -2.54776 0
M  V30 6337 H 593.391 0.726273 -5.0268 0
M  V30 6338 H 593.321 2.46663 -4.65258 0
M  V30 6339 H 595.812 1.40342 -3.50874 0
M  V30 6340 H 596.125 2.27999 -7.38401 0
M  V30 6341 H 594.47 2.0571 -6.63859 0
M  V30 6342 H 597.661 1.65989 -4.37682 0
M  V30 6343 H 597.834 2.05983 -6.1439 0
M  V30 6344 N 591.24 1.41047 0.703093 0
M  V30 6345 C 592.15 1.44645 1.84703 0
M  V30 6346 C 593.166 0.337778 1.7069 0
M  V30 6347 O 594.342 0.584327 1.92737 0
M  V30 6348 C 591.407 1.31928 3.20618 0
M  V30 6349 C 590.468 2.53047 3.46794 0
M  V30 6350 C 589.701 2.40927 4.76224 0
M  V30 6351 O 589.924 1.42978 5.5219 0
M  V30 6352 O 588.858 3.30543 5.03016 0
M  V30 6353 H 592.684 2.41139 1.84624 0
M  V30 6354 H 590.269 1.22504 0.855167 0
M  V30 6355 H 592.151 1.27092 4.01778 0
M  V30 6356 H 590.826 0.385469 3.21397 0
M  V30 6357 H 589.733 2.6346 2.65593 0
M  V30 6358 H 591.066 3.45231 3.50822 0
M  V30 6359 N 592.718 -0.936591 1.26751 0
M  V30 6360 C 594.129 -1.49816 1.1141 0
M  V30 6361 C 594.48 -1.9383 -0.304015 0
M  V30 6362 O 593.605 -1.80346 -1.196 0
M  V30 6363 C 594.2 -2.72271 2.01629 0
M  V30 6364 C 592.759 -3.2468 1.9042 0
M  V30 6365 C 591.906 -1.97444 1.94708 0
M  V30 6366 H 594.857 -0.751604 1.39773 0
M  V30 6367 H 594.878 -3.46741 1.56688 0
M  V30 6368 H 594.39 -2.40205 3.04833 0
M  V30 6369 H 592.491 -3.61525 0.901674 0
M  V30 6370 H 592.604 -3.91476 2.76195 0
M  V30 6371 H 590.968 -2.13545 1.38818 0
M  V30 6372 H 591.751 -1.67703 2.9955 0
M  V30 6373 N 594.196 -1.08629 -1.14182 0
M  V30 6374 C 595.143 -0.718299 -2.19338 0
M  V30 6375 C 596.113 0.296587 -1.63431 0
M  V30 6376 O 597.298 0.180079 -1.89948 0
M  V30 6377 C 594.438 -0.136203 -3.44831 0
M  V30 6378 C 593.551 -1.20414 -4.14879 0
M  V30 6379 C 592.686 -0.585666 -5.27962 0
M  V30 6380 C 591.725 -1.63548 -5.89846 0
M  V30 6381 N 590.862 -1.03864 -6.94375 0
M  V30 6382 H 595.702 -1.61932 -2.50164 0
M  V30 6383 H 593.239 -0.80919 -1.22844 0
M  V30 6384 H 595.197 0.219021 -4.16625 0
M  V30 6385 H 593.827 0.728121 -3.14481 0
M  V30 6386 H 592.879 -1.67676 -3.41451 0
M  V30 6387 H 594.191 -1.99959 -4.56966 0
M  V30 6388 H 593.345 -0.178818 -6.06436 0
M  V30 6389 H 592.084 0.24142 -4.87102 0
M  V30 6390 H 591.089 -2.05197 -5.10073 0
M  V30 6391 H 592.314 -2.46509 -6.3278 0
M  V30 6392 H 590.26 -0.232687 -6.55587 0
M  V30 6393 H 590.177 -1.77116 -7.3496 0
M  V30 6394 H 591.445 -0.657724 -7.7672 0
M  V30 6395 N 595.674 1.31259 -0.872281 0
M  V30 6396 C 596.622 2.30404 -0.318897 0
M  V30 6397 C 597.616 1.5962 0.567267 0
M  V30 6398 O 598.822 1.74204 0.453111 0
M  V30 6399 H 595.197 0.747243 -0.0844474 0
M  V30 6400 H 597.168 2.74549 -1.16899 0
M  V30 6401 C 595.917 3.44608 0.462683 0
M  V30 6402 H 595.24 3.99248 -0.209936 0
M  V30 6403 H 596.68 4.1609 0.815187 0
M  V30 6404 C 595.139 2.93456 1.65485 0
M  V30 6405 O 595.669 2.92418 2.75417 0
M  V30 6406 N 593.875 2.49628 1.48776 0
M  V30 6407 H 593.422 2.50671 0.593452 0
M  V30 6408 H 593.38 2.15759 2.28682 0
M  V30 6409 N 597.152 0.631951 1.44375 0
M  V30 6410 C 598.082 -0.0593243 2.33425 0
M  V30 6411 C 599.063 -0.833964 1.48253 0
M  V30 6412 O 600.248 -0.799682 1.76971 0
M  V30 6413 C 597.378 -1.04096 3.31333 0
M  V30 6414 C 596.332 -0.377899 4.26328 0
M  V30 6415 C 595.658 -1.4695 5.14111 0
M  V30 6416 C 596.958 0.716371 5.17364 0
M  V30 6417 H 598.652 0.684287 2.91475 0
M  V30 6418 H 596.198 0.330518 1.40156 0
M  V30 6419 H 598.151 -1.53331 3.92514 0
M  V30 6420 H 596.875 -1.81547 2.71493 0
M  V30 6421 H 595.534 0.0938054 3.6648 0
M  V30 6422 H 595.182 -2.2349 4.50623 0
M  V30 6423 H 594.882 -1.03121 5.78481 0
M  V30 6424 H 596.406 -1.96363 5.78164 0
M  V30 6425 H 597.82 0.307089 5.72477 0
M  V30 6426 H 596.217 1.07784 5.90341 0
M  V30 6427 H 597.287 1.58316 4.58327 0
M  V30 6428 N 598.631 -1.53133 0.372548 0
M  V30 6429 C 599.594 -2.24569 -0.458389 0
M  V30 6430 C 600.594 -1.25603 -1.00402 0
M  V30 6431 O 601.784 -1.49827 -0.888672 0
M  V30 6432 C 598.916 -2.98783 -1.6414 0
M  V30 6433 H 600.109 -2.99436 0.166799 0
M  V30 6434 H 597.662 -1.55805 0.124357 0
M  V30 6435 H 598.397 -2.28176 -2.30448 0
M  V30 6436 H 598.182 -3.71404 -1.25704 0
M  V30 6437 H 599.672 -3.53068 -2.23008 0
M  V30 6438 N 600.109 -0.101901 -1.5727 0
M  V30 6439 C 601.056 0.854577 -2.14396 0
M  V30 6440 C 602.026 1.27521 -1.06432 0
M  V30 6441 O 603.211 1.35575 -1.34253 0
M  V30 6442 C 600.351 2.10576 -2.73408 0
M  V30 6443 C 599.464 1.73504 -3.95626 0
M  V30 6444 C 598.599 2.9346 -4.42781 0
M  V30 6445 C 597.638 2.52547 -5.57572 0
M  V30 6446 N 596.775 3.65359 -5.99547 0
M  V30 6447 H 601.615 0.360578 -2.9581 0
M  V30 6448 H 599.152 0.166303 -1.46157 0
M  V30 6449 H 601.11 2.83859 -3.05745 0
M  V30 6450 H 599.74 2.57463 -1.94711 0
M  V30 6451 H 598.792 0.901622 -3.6956 0
M  V30 6452 H 600.104 1.39426 -4.78917 0
M  V30 6453 H 599.258 3.74988 -4.76937 0
M  V30 6454 H 597.997 3.30753 -3.58404 0
M  V30 6455 H 597.002 1.69446 -5.23037 0
M  V30 6456 H 598.227 2.1639 -6.43702 0
M  V30 6457 H 596.173 4.02358 -5.18116 0
M  V30 6458 H 596.09 3.35148 -6.77652 0
M  V30 6459 H 597.358 4.47378 -6.38336 0
M  V30 6460 N 601.587 1.56661 0.17182 0
M  V30 6461 C 602.497 1.99604 1.2327 0
M  V30 6462 C 603.513 0.907333 1.4847 0
M  V30 6463 O 604.689 1.21492 1.60629 0
M  V30 6464 C 601.754 2.34685 2.55194 0
M  V30 6465 C 600.815 3.57381 2.3786 0
M  V30 6466 C 600.048 3.90779 3.63494 0
M  V30 6467 O 600.271 3.25152 4.6865 0
M  V30 6468 O 599.205 4.84129 3.57634 0
M  V30 6469 H 603.031 2.90114 0.898192 0
M  V30 6470 H 600.616 1.44522 0.378647 0
M  V30 6471 H 602.498 2.5822 3.33017 0
M  V30 6472 H 601.173 1.47336 2.88225 0
M  V30 6473 H 600.08 3.39064 1.5807 0
M  V30 6474 H 601.413 4.45268 2.09754 0
M  V30 6475 N 603.065 -0.440357 1.51323 0
M  V30 6476 C 604.311 -1.19181 1.64085 0
M  V30 6477 C 604.644 -1.90936 0.354575 0
M  V30 6478 O 603.919 -1.8347 -0.645675 0
M  V30 6479 C 604.202 -2.2112 2.84215 0
M  V30 6480 C 604.055 -1.53468 4.22809 0
M  V30 6481 C 605.374 -3.22133 2.99864 0
M  V30 6482 H 602.493 -0.431924 0.597169 0
M  V30 6483 H 605.135 -0.481443 1.83799 0
M  V30 6484 H 603.285 -2.81703 2.67537 0
M  V30 6485 H 604.957 -0.962455 4.51148 0
M  V30 6486 H 603.2 -0.837086 4.25647 0
M  V30 6487 H 603.871 -2.27694 5.02852 0
M  V30 6488 H 606.347 -2.71601 3.15233 0
M  V30 6489 H 605.223 -3.90756 3.85488 0
M  V30 6490 H 605.484 -3.88061 2.11804 0
M  V30 6491 N 604.543 -1.41418 -0.695603 0
M  V30 6492 C 605.506 -1.42988 -1.79129 0
M  V30 6493 C 606.506 -0.320514 -1.57573 0
M  V30 6494 O 607.696 -0.58039 -1.64247 0
M  V30 6495 C 604.828 -1.24122 -3.175 0
M  V30 6496 H 606.021 -2.40526 -1.7913 0
M  V30 6497 H 603.574 -1.2756 -0.903225 0
M  V30 6498 H 604.309 -0.274253 -3.23138 0
M  V30 6499 H 604.094 -2.045 -3.34547 0
M  V30 6500 H 605.584 -1.28056 -3.97481 0
M  V30 6501 N 606.021 0.929856 -1.27246 0
M  V30 6502 C 606.954 2.03069 -1.04106 0
M  V30 6503 C 607.932 1.62556 0.0378417 0
M  V30 6504 O 609.116 1.88197 -0.106869 0
M  V30 6505 C 606.243 3.33718 -0.578778 0
M  V30 6506 C 605.289 3.93209 -1.65193 0
M  V30 6507 S 606.122 4.26068 -3.24386 0
M  V30 6508 C 607.278 5.598 -2.79954 0
M  V30 6509 H 607.511 2.22386 -1.97311 0
M  V30 6510 H 605.044 1.07269 -1.11053 0
M  V30 6511 H 607.002 4.09261 -0.31874 0
M  V30 6512 H 605.663 3.12328 0.333182 0
M  V30 6513 H 604.856 4.87482 -1.27973 0
M  V30 6514 H 604.458 3.24243 -1.86393 0
M  V30 6515 H 606.75 6.39004 -2.25123 0
M  V30 6516 H 607.693 6.01917 -3.72963 0
M  V30 6517 H 608.101 5.20219 -2.19164 0
M  V30 6518 O 607.538 1.21494 1.06403 0
M  V30 6519 H 608.229 0.975073 1.67368 0
M  V30 END ATOM
M  V30 BEGIN BOND
M  V30 END BOND
M  V30 END CTAB
M  END
$$$$
