drugbank_target|Q16659 Mitogen-activated protein kinase 6 (DB00945)
 OpenBabel12092121193D

  0  0  0     0  0            999 V3000
M  V30 BEGIN CTAB
M  V30 COUNTS 11431 11562 0 0 0
M  V30 BEGIN ATOM
M  V30 1 H -0.908 1.98254 -0.117106 0
M  V30 2 N 0 1.576 0 0
M  V30 3 C 0.933 2.03868 1.02534 0
M  V30 4 C 1.911 0.928543 1.3348 0
M  V30 5 O 3.095 1.19667 1.45644 0
M  V30 6 C 0.222 2.43627 2.35294 0
M  V30 7 C -0.732 3.65373 2.2001 0
M  V30 8 S 0.101 5.13292 1.52614 0
M  V30 9 C 1.257 5.56322 2.86805 0
M  V30 10 H 1.49 2.90518 0.631377 0
M  V30 11 H -0.977 1.52953 0.210867 0
M  V30 12 H 0.981 2.67203 3.11629 0
M  V30 13 H -0.358 1.57376 2.7183 0
M  V30 14 H -1.165 3.90944 3.18086 0
M  V30 15 H -1.563 3.418 1.51819 0
M  V30 16 H 0.729 5.58782 3.83104 0
M  V30 17 H 1.672 6.56266 2.65933 0
M  V30 18 H 2.08 4.83886 2.90714 0
M  V30 19 N 1.4781 -0.272755 1.55222 0
M  V30 20 C 2.4411 -1.32041 1.87344 0
M  V30 21 C 3.4411 -1.42342 0.74803 0
M  V30 22 O 4.6311 -1.41488 1.0162 0
M  V30 23 C 1.7631 -2.70173 2.07893 0
M  V30 24 H 2.9561 -1.04789 2.80997 0
M  V30 25 H 0.5091 -0.51083 1.47717 0
M  V30 26 H 1.2441 -3.02605 1.16622 0
M  V30 27 H 1.0291 -2.64082 2.89833 0
M  V30 28 H 2.5191 -3.45869 2.34017 0
M  V30 29 N 2.9562 -1.48159 -0.537278 0
M  V30 30 C 3.8662 -1.64807 -1.6696 0
M  V30 31 C 4.8822 -0.530651 -1.65711 0
M  V30 32 O 6.0582 -0.800784 -1.84796 0
M  V30 33 C 3.1232 -1.67708 -3.03438 0
M  V30 34 C 2.1842 -2.91025 -3.156 0
M  V30 35 C 1.4172 -2.93778 -4.45567 0
M  V30 36 O 1.6402 -2.05153 -5.3223 0
M  V30 37 O 0.5742 -3.85868 -4.61941 0
M  V30 38 H 4.4002 -2.6066 -1.55853 0
M  V30 39 H 1.9852 -1.31475 -0.709549 0
M  V30 40 H 3.8672 -1.7218 -3.84619 0
M  V30 41 H 2.5422 -0.750278 -3.14885 0
M  V30 42 H 1.4492 -2.92089 -2.33741 0
M  V30 43 H 2.7822 -3.83065 -3.09066 0
M  V30 44 N 4.4343 0.785586 -1.36625 0
M  V30 45 C 5.3813 1.89838 -1.31264 0
M  V30 46 C 6.3513 1.65115 -0.180633 0
M  V30 47 O 7.5363 1.87222 -0.36777 0
M  V30 48 C 4.6763 3.26706 -1.11163 0
M  V30 49 C 3.7893 3.63476 -2.33472 0
M  V30 50 C 2.9243 4.89481 -2.06353 0
M  V30 51 C 1.9633 5.18941 -3.24602 0
M  V30 52 N 1.1003 6.36131 -2.97123 0
M  V30 53 H 5.9403 1.93756 -2.26413 0
M  V30 54 H 3.4773 0.947454 -1.12524 0
M  V30 55 H 5.4353 4.05639 -0.975337 0
M  V30 56 H 4.0653 3.222 -0.196674 0
M  V30 57 H 3.1173 2.79636 -2.57891 0
M  V30 58 H 4.4293 3.81193 -3.21704 0
M  V30 59 H 3.5833 5.76288 -1.89675 0
M  V30 60 H 2.3223 4.73841 -1.15437 0
M  V30 61 H 1.3273 4.30615 -3.41834 0
M  V30 62 H 2.5523 5.36498 -4.16349 0
M  V30 63 H 0.4983 6.21875 -2.08823 0
M  V30 64 H 0.4153 6.54198 -3.78894 0
M  V30 65 H 1.6833 7.2591 -2.84033 0
M  V30 66 N 5.9124 1.20967 1.01018 0
M  V30 67 C 7.1594 1.02374 1.74716 0
M  V30 68 C 7.4874 -0.443375 1.89379 0
M  V30 69 O 6.7424 -1.34535 1.42123 0
M  V30 70 C 7.0414 1.65997 3.16512 0
M  V30 71 C 6.7074 3.15831 3.2181 0
M  V30 72 C 5.3694 3.56719 3.22963 0
M  V30 73 C 7.7214 4.11816 3.19464 0
M  V30 74 C 5.0494 4.92107 3.19449 0
M  V30 75 C 7.4014 5.47158 3.17491 0
M  V30 76 C 6.0654 5.87451 3.16951 0
M  V30 77 H 5.3354 0.374614 0.639332 0
M  V30 78 H 7.9824 1.50485 1.18434 0
M  V30 79 H 6.2874 1.10166 3.75993 0
M  V30 80 H 7.9844 1.49119 3.72242 0
M  V30 81 H 4.5744 2.83263 3.21652 0
M  V30 82 H 8.7584 3.81257 3.17737 0
M  V30 83 H 4.0144 5.22579 3.17366 0
M  V30 84 H 8.1884 6.21274 3.14629 0
M  V30 85 H 5.8154 6.92329 3.13983 0
M  V30 86 N 7.3905 -1.2043 1.01659 0
M  V30 87 C 8.3005 -2.2689 0.596484 0
M  V30 88 C 9.3165 -1.70107 -0.36599 0
M  V30 89 O 10.4925 -2.00117 -0.226942 0
M  V30 90 C 7.5575 -3.4665 -0.0586659 0
M  V30 91 C 6.6185 -4.18662 0.949751 0
M  V30 92 C 5.8515 -5.32705 0.32577 0
M  V30 93 O 6.0745 -5.63656 -0.874509 0
M  V30 94 O 5.0085 -5.92803 1.04249 0
M  V30 95 H 8.8345 -2.65041 1.4828 0
M  V30 96 H 6.4195 -1.27048 0.786082 0
M  V30 97 H 8.3015 -4.19256 -0.424564 0
M  V30 98 H 6.9765 -3.10375 -0.91918 0
M  V30 99 H 5.8835 -3.48229 1.36702 0
M  V30 100 H 7.2165 -4.58878 1.78023 0
M  V30 101 N 8.8686 -0.792821 -1.36206 0
M  V30 102 C 10.0936 -0.377701 -2.03932 0
M  V30 103 C 10.5186 0.998947 -1.59382 0
M  V30 104 O 9.8766 1.64421 -0.763903 0
M  V30 105 C 9.9246 -0.453635 -3.57735 0
M  V30 106 O 9.0286 0.538151 -4.08874 0
M  V30 107 H 8.3696 -0.159855 -0.644471 0
M  V30 108 H 10.8996 -1.07488 -1.7409 0
M  V30 109 H 10.9096 -0.318464 -4.06755 0
M  V30 110 H 9.5846 -1.45784 -3.89512 0
M  V30 111 H 8.1616 0.364359 -3.71116 0
M  V30 112 N 10.3467 1.47872 -0.545128 0
M  V30 113 C 11.2767 2.32661 0.197793 0
M  V30 114 C 12.2577 1.43041 0.920504 0
M  V30 115 O 13.4427 1.71912 0.90333 0
M  V30 116 C 10.5727 3.24569 1.23582 0
M  V30 117 C 9.5267 4.23333 0.630323 0
M  V30 118 C 8.8527 5.0448 1.77211 0
M  V30 119 C 10.1527 5.20704 -0.407974 0
M  V30 120 H 11.8467 2.95024 -0.510045 0
M  V30 121 H 9.3927 1.4187 -0.246731 0
M  V30 122 H 11.3457 3.8272 1.76362 0
M  V30 123 H 10.0697 2.60236 1.97344 0
M  V30 124 H 8.7287 3.6639 0.123922 0
M  V30 125 H 8.3767 4.36561 2.49847 0
M  V30 126 H 8.0767 5.71339 1.37281 0
M  V30 127 H 9.6007 5.65487 2.3034 0
M  V30 128 H 11.0147 5.7329 0.033305 0
M  V30 129 H 9.4117 5.95699 -0.725486 0
M  V30 130 H 10.4817 4.66917 -1.30828 0
M  V30 131 N 11.8248 0.280983 1.55075 0
M  V30 132 C 12.7578 -0.645439 2.18882 0
M  V30 133 C 13.7358 -1.14786 1.15165 0
M  V30 134 O 14.9198 -1.21975 1.43716 0
M  V30 135 C 12.0468 -1.88088 2.81674 0
M  V30 136 C 11.0928 -1.51343 3.98745 0
M  V30 137 S 11.9258 -0.586548 5.32278 0
M  V30 138 C 13.0818 -1.83024 5.98543 0
M  V30 139 H 13.3148 -0.1033 2.9712 0
M  V30 140 H 10.8478 0.0652099 1.54262 0
M  V30 141 H 12.8058 -2.58997 3.18482 0
M  V30 142 H 11.4668 -2.39417 2.03318 0
M  V30 143 H 10.6598 -2.43289 4.41392 0
M  V30 144 H 10.2618 -0.884477 3.63391 0
M  V30 145 H 12.5538 -2.77342 6.18133 0
M  V30 146 H 13.4968 -1.44668 6.93164 0
M  V30 147 H 13.9048 -1.99785 5.27964 0
M  V30 148 N 13.3029 -1.57598 0.00835791 0
M  V30 149 C 14.2509 -2.10078 -0.998508 0
M  V30 150 C 15.2449 -1.02262 -1.35051 0
M  V30 151 O 16.4509 -1.20719 -1.33518 0
M  V30 152 H 12.8259 -0.670903 -0.339696 0
M  V30 153 H 14.7969 -2.93648 -0.530398 0
M  V30 154 C 13.5459 -2.62615 -2.27879 0
M  V30 155 H 12.8689 -3.45213 -2.01662 0
M  V30 156 H 14.3089 -3.03004 -2.96588 0
M  V30 157 C 12.7679 -1.54407 -2.99433 0
M  V30 158 O 13.2979 -0.931812 -3.90743 0
M  V30 159 N 11.5039 -1.2695 -2.61404 0
M  V30 160 H 11.0509 -1.76924 -1.87232 0
M  V30 161 H 11.0089 -0.547704 -3.09593 0
M  V30 162 N 14.781 0.264519 -1.55364 0
M  V30 163 C 16.03 0.992812 -1.75574 0
M  V30 164 C 16.343 1.87142 -0.568979 0
M  V30 165 O 17.549 2.63513 -0.653682 0
M  V30 166 C 16.005 1.81519 -3.10771 0
M  V30 167 C 15.613 0.984839 -4.37041 0
M  V30 168 C 17.357 2.53727 -3.40327 0
M  V30 169 C 15.264 1.80209 -5.63275 0
M  V30 170 H 14.194 0.374412 -0.65447 0
M  V30 171 H 16.845 0.248138 -1.81815 0
M  V30 172 H 15.227 2.60115 -2.98591 0
M  V30 173 H 16.401 0.242455 -4.60162 0
M  V30 174 H 14.716 0.37691 -4.14691 0
M  V30 175 H 17.313 3.15292 -4.3185 0
M  V30 176 H 17.656 3.24447 -2.60845 0
M  V30 177 H 18.189 1.82156 -3.53644 0
M  V30 178 H 14.928 1.13896 -6.45529 0
M  V30 179 H 14.448 2.52022 -5.44284 0
M  V30 180 H 16.127 2.37364 -6.01887 0
M  V30 181 N 16.2591 1.48442 0.529413 0
M  V30 182 C 17.2091 1.59407 1.63014 0
M  V30 183 C 18.1931 0.451166 1.54445 0
M  V30 184 O 19.3851 0.702635 1.62456 0
M  V30 185 C 16.5141 1.63746 3.01732 0
M  V30 186 C 15.6001 2.83518 3.15402 0
M  V30 187 N 15.9911 4.07929 2.99045 0
M  V30 188 C 14.2891 2.80862 3.46457 0
M  V30 189 C 14.9901 4.8829 3.16146 0
M  V30 190 N 13.9661 4.21117 3.43746 0
M  V30 191 H 17.7681 2.53343 1.48978 0
M  V30 192 H 15.2821 1.44821 0.734885 0
M  V30 193 H 17.2791 1.69695 3.80801 0
M  V30 194 H 15.9391 0.709264 3.16859 0
M  V30 195 H 16.9501 4.38357 2.75796 0
M  V30 196 H 13.6271 1.97301 3.67938 0
M  V30 197 H 15.0171 5.97028 3.08232 0
M  V30 198 N 17.7372 -0.778329 1.37039 0
M  V30 199 C 18.9852 -1.53361 1.31623 0
M  V30 200 C 19.3062 -1.94739 -0.100831 0
M  V30 201 O 18.5762 -1.65797 -1.04347 0
M  V30 202 H 17.1562 -0.568794 0.484234 0
M  V30 203 H 19.8182 -0.926742 1.71457 0
M  V30 204 H 18.9142 -2.43606 1.95096 0
M  V30 205 N 19.2153 -1.21501 -1.00376 0
M  V30 206 C 20.4623 -1.03299 -1.74171 0
M  V30 207 C 20.7903 0.433326 -1.89612 0
M  V30 208 O 20.0453 1.33779 -1.42834 0
M  V30 209 C 20.3443 -1.67673 -3.15627 0
M  V30 210 C 20.0103 -3.17533 -3.2013 0
M  V30 211 C 18.6723 -3.58427 -3.21067 0
M  V30 212 C 21.0243 -4.13504 -3.17275 0
M  V30 213 C 18.3523 -4.93794 -3.16835 0
M  V30 214 C 20.7043 -5.48834 -3.14585 0
M  V30 215 C 19.3683 -5.89123 -3.13831 0
M  V30 216 H 18.6383 -0.377999 -0.637336 0
M  V30 217 H 21.2853 -1.51111 -1.17634 0
M  V30 218 H 19.5903 -1.12158 -3.75404 0
M  V30 219 H 21.2873 -1.51091 -3.71446 0
M  V30 220 H 17.8773 -2.84965 -3.20145 0
M  V30 221 H 22.0613 -3.82936 -3.15711 0
M  V30 222 H 17.3173 -5.24255 -3.1459 0
M  V30 223 H 21.4913 -6.22934 -3.1133 0
M  V30 224 H 19.1183 -6.93984 -3.10307 0
M  V30 225 N 20.6934 1.19889 -1.02296 0
M  V30 226 C 21.9704 1.85148 -0.630832 0
M  V30 227 C 22.3504 1.91385 0.890782 0
M  V30 228 O 21.6984 1.42642 1.78509 0
M  V30 229 C 21.9084 3.24442 -1.28602 0
M  V30 230 C 23.2564 4.00663 -1.4055 0
M  V30 231 O 24.2804 3.33818 -1.24273 0
M  V30 232 O 23.1394 5.20387 -1.66913 0
M  V30 233 H 20.2334 0.797613 -0.218499 0
M  V30 234 H 22.7794 1.27427 -1.12074 0
M  V30 235 H 21.5514 3.14704 -2.32545 0
M  V30 236 H 21.1744 3.89802 -0.7836 0
M  V30 237 N 22.1715 0.800033 1.35784 0
M  V30 238 C 23.1015 0.220184 2.3246 0
M  V30 239 C 24.0825 -0.65073 1.57161 0
M  V30 240 O 25.2675 -0.582359 1.85263 0
M  V30 241 C 22.3975 -0.637353 3.41402 0
M  V30 242 C 21.3515 0.134531 4.27789 0
M  V30 243 C 20.6775 -0.844285 5.27992 0
M  V30 244 C 21.9775 1.32979 5.05088 0
M  V30 245 H 23.6715 1.02787 2.81203 0
M  V30 246 H 21.2175 0.495717 1.35199 0
M  V30 247 H 23.1705 -1.05302 4.08031 0
M  V30 248 H 21.8945 -1.47785 2.91251 0
M  V30 249 H 20.5535 0.531296 3.6273 0
M  V30 250 H 20.2015 -1.68011 4.74111 0
M  V30 251 H 19.9015 -0.332184 5.8666 0
M  V30 252 H 21.4255 -1.2583 5.97494 0
M  V30 253 H 22.8395 0.98934 5.64699 0
M  V30 254 H 21.2365 1.77593 5.7322 0
M  V30 255 H 22.3065 2.11978 4.36111 0
M  V30 256 N 23.6496 -1.47581 0.552962 0
M  V30 257 C 24.8976 -2.02082 0.0272703 0
M  V30 258 C 25.2186 -1.4301 -1.32563 0
M  V30 259 O 24.4886 -0.603745 -1.86365 0
M  V30 260 H 23.0686 -0.746966 0.00709182 0
M  V30 261 H 25.7306 -1.81033 0.722008 0
M  V30 262 H 24.8266 -3.12034 -0.0639951 0
M  V30 263 N 25.1277 -0.289203 -1.54924 0
M  V30 264 C 26.3527 0.329299 -2.04769 0
M  V30 265 C 26.7777 1.4763 -1.16564 0
M  V30 266 O 26.1357 1.80527 -0.167186 0
M  V30 267 C 26.1837 0.774438 -3.52186 0
M  V30 268 O 25.2877 1.88038 -3.67036 0
M  V30 269 H 24.6287 0.0659259 -0.660719 0
M  V30 270 H 27.1587 -0.42761 -2.00082 0
M  V30 271 H 27.1687 1.06642 -3.93816 0
M  V30 272 H 25.8437 -0.0646707 -4.1585 0
M  V30 273 H 24.4207 1.58985 -3.3731 0
M  V30 274 N 26.6058 1.57591 -0.0167156 0
M  V30 275 C 28.0218 1.55946 0.339557 0
M  V30 276 C 28.2218 1.02109 1.73713 0
M  V30 277 O 27.2778 0.662303 2.43659 0
M  V30 278 C 28.5908 3.00037 0.199499 0
M  V30 279 C 30.1388 3.11805 0.273193 0
M  V30 280 C 30.6138 4.57713 0.162068 0
M  V30 281 N 32.1048 4.6268 0.219444 0
M  V30 282 C 32.8398 5.73185 0.157054 0
M  V30 283 N 32.3358 6.92786 0.0442936 0
M  V30 284 N 34.1288 5.61707 0.21014 0
M  V30 285 H 26.2798 1.90921 -0.930758 0
M  V30 286 H 28.5428 0.877674 -0.358319 0
M  V30 287 H 28.2488 3.4333 -0.76273 0
M  V30 288 H 28.1228 3.64387 0.974786 0
M  V30 289 H 30.5098 2.68433 1.22587 0
M  V30 290 H 30.5908 2.50201 -0.532256 0
M  V30 291 H 30.2348 5.01763 -0.78714 0
M  V30 292 H 30.1648 5.17283 0.986222 0
M  V30 293 H 32.6558 3.76649 0.307246 0
M  V30 294 H 32.9688 7.728 0.00304069 0
M  V30 295 H 31.3138 6.94999 0.00968457 0
M  V30 296 H 34.5048 4.6716 0.296546 0
M  V30 297 H 34.6778 6.47807 0.158054 0
M  V30 298 N 28.0839 -0.256276 1.55502 0
M  V30 299 C 29.3139 -1.00196 1.80677 0
M  V30 300 C 29.7219 -1.79805 0.588797 0
M  V30 301 O 29.0649 -1.78055 -0.451883 0
M  V30 302 C 29.1269 -1.99515 2.99055 0
M  V30 303 C 28.7909 -1.38688 4.35448 0
M  V30 304 C 29.7879 -0.794079 5.138 0
M  V30 305 C 27.4729 -1.40906 4.82132 0
M  V30 306 C 29.4669 -0.231562 6.36979 0
M  V30 307 C 27.1539 -0.842684 6.05262 0
M  V30 308 C 28.1519 -0.254953 6.82524 0
M  V30 309 O 27.8399 0.3027 8.0333 0
M  V30 310 H 27.5719 -0.300919 0.60533 0
M  V30 311 H 30.1259 -0.287307 2.03381 0
M  V30 312 H 28.3559 -2.74785 2.72084 0
M  V30 313 H 30.0449 -2.60349 3.11405 0
M  V30 314 H 30.8109 -0.769519 4.78856 0
M  V30 315 H 26.6899 -1.85591 4.21992 0
M  V30 316 H 30.2339 0.227816 6.97228 0
M  V30 317 H 26.1309 -0.86454 6.39684 0
M  V30 318 H 26.8989 0.193662 8.18271 0
M  V30 319 N 29.562 -1.4872 -0.521534 0
M  V30 320 C 30.495 -1.58451 -1.64221 0
M  V30 321 C 31.473 -0.434513 -1.56687 0
M  V30 322 O 32.657 -0.647275 -1.77038 0
M  V30 323 C 29.784 -1.52037 -3.02659 0
M  V30 324 C 28.83 -2.71981 -3.28525 0
M  V30 325 S 29.663 -4.33869 -3.13876 0
M  V30 326 C 30.819 -4.30067 -4.54745 0
M  V30 327 H 31.052 -2.53256 -1.55719 0
M  V30 328 H 28.585 -1.37358 -0.705143 0
M  V30 329 H 30.543 -1.49023 -3.82495 0
M  V30 330 H 29.204 -0.585541 -3.08594 0
M  V30 331 H 28.397 -2.63656 -4.29536 0
M  V30 332 H 27.999 -2.72302 -2.56374 0
M  V30 333 H 30.291 -4.00521 -5.46433 0
M  V30 334 H 31.234 -5.31287 -4.68123 0
M  V30 335 H 31.642 -3.60419 -4.34463 0
M  V30 336 N 31.0401 0.771051 -1.3745 0
M  V30 337 C 32.3171 1.519 -1.23231 0
M  V30 338 C 32.6971 2.10383 0.173809 0
M  V30 339 O 32.0451 1.95583 1.18151 0
M  V30 340 C 32.2551 2.59933 -2.32886 0
M  V30 341 C 33.6031 3.27316 -2.70461 0
M  V30 342 O 34.6271 2.70228 -2.32068 0
M  V30 343 O 33.4861 4.30531 -3.36608 0
M  V30 344 H 30.5801 0.672803 -0.480901 0
M  V30 345 H 33.1261 0.807957 -1.49232 0
M  V30 346 H 31.8981 2.14842 -3.27045 0
M  V30 347 H 31.5211 3.38637 -2.08353 0
M  V30 348 N 32.5182 1.22032 0.997298 0
M  V30 349 C 33.4482 1.01065 2.10495 0
M  V30 350 C 34.4292 -0.0669542 1.69968 0
M  V30 351 O 35.6142 0.0943987 1.9397 0
M  V30 352 C 32.7442 0.582874 3.42374 0
M  V30 353 C 31.6982 1.60592 3.96729 0
M  V30 354 C 31.0242 1.03412 5.24605 0
M  V30 355 C 32.3242 2.99478 4.27914 0
M  V30 356 H 34.0182 1.93708 2.28292 0
M  V30 357 H 31.5642 0.932761 1.09707 0
M  V30 358 H 33.5172 0.423332 4.19268 0
M  V30 359 H 32.2412 -0.379213 3.24391 0
M  V30 360 H 30.9002 1.75316 3.21963 0
M  V30 361 H 30.5482 0.063518 5.0296 0
M  V30 362 H 30.2482 1.71754 5.61938 0
M  V30 363 H 31.7722 0.886066 6.04137 0
M  V30 364 H 33.1862 2.88153 4.95622 0
M  V30 365 H 31.5832 3.64903 4.76409 0
M  V30 366 H 32.6532 3.49742 3.3587 0
M  V30 367 N 33.9963 -1.19345 1.0293 0
M  V30 368 C 34.9433 -2.2258 0.610464 0
M  V30 369 C 35.9133 -1.6179 -0.375946 0
M  V30 370 O 37.0983 -1.88844 -0.272511 0
M  V30 371 C 34.2383 -3.45085 -0.0321473 0
M  V30 372 C 33.3513 -4.20258 1.00035 0
M  V30 373 C 32.4863 -5.3019 0.32746 0
M  V30 374 C 31.5253 -5.97121 1.34584 0
M  V30 375 N 30.6623 -6.98615 0.698726 0
M  V30 376 H 35.5023 -2.57764 1.49538 0
M  V30 377 H 33.0393 -1.26644 0.748311 0
M  V30 378 H 34.9973 -4.15061 -0.421966 0
M  V30 379 H 33.6273 -3.10555 -0.88064 0
M  V30 380 H 32.6793 -3.49223 1.50823 0
M  V30 381 H 33.9913 -4.66175 1.77433 0
M  V30 382 H 33.1453 -6.06587 -0.11718 0
M  V30 383 H 31.8843 -4.85345 -0.478713 0
M  V30 384 H 30.8893 -5.19474 1.80074 0
M  V30 385 H 32.1143 -6.4405 2.15352 0
M  V30 386 H 30.0603 -6.55942 -0.0873471 0
M  V30 387 H 29.9773 -7.42724 1.41058 0
M  V30 388 H 31.2453 -7.79004 0.278102 0
M  V30 389 N 35.4744 -0.807222 -1.35358 0
M  V30 390 C 36.8854 -0.44876 -1.81226 0
M  V30 391 C 37.2364 1.02929 -1.67033 0
M  V30 392 O 36.3614 1.79991 -1.20133 0
M  V30 393 C 36.9564 -0.807774 -3.2903 0
M  V30 394 C 35.5154 -0.501901 -3.73039 0
M  V30 395 C 34.6624 -1.03304 -2.57339 0
M  V30 396 H 37.6134 -0.998808 -1.23327 0
M  V30 397 H 37.6344 -0.10554 -3.80354 0
M  V30 398 H 37.1464 -1.88357 -3.39328 0
M  V30 399 H 35.2474 0.565128 -3.68289 0
M  V30 400 H 35.3604 -1.03497 -4.67787 0
M  V30 401 H 33.7244 -0.455339 -2.50597 0
M  V30 402 H 34.5074 -2.11496 -2.70415 0
M  V30 403 N 36.9525 1.47285 -0.560781 0
M  V30 404 C 37.8825 2.32857 0.173105 0
M  V30 405 C 38.8635 1.44009 0.905281 0
M  V30 406 O 40.0485 1.7286 0.885046 0
M  V30 407 C 37.1785 3.25861 1.20133 0
M  V30 408 C 36.1325 4.23978 0.585388 0
M  V30 409 C 35.4585 5.06332 1.7185 0
M  V30 410 C 36.7585 5.20242 -0.463178 0
M  V30 411 H 38.4525 2.94466 -0.541307 0
M  V30 412 H 35.9985 1.41601 -0.261764 0
M  V30 413 H 37.9515 3.84569 1.72293 0
M  V30 414 H 36.6755 2.62315 1.94573 0
M  V30 415 H 35.3345 3.66501 0.085054 0
M  V30 416 H 34.9825 4.39186 2.45203 0
M  V30 417 H 34.6825 5.72762 1.31213 0
M  V30 418 H 36.2065 5.67899 2.24329 0
M  V30 419 H 37.6205 5.73293 -0.027502 0
M  V30 420 H 36.0175 5.94896 -0.788627 0
M  V30 421 H 37.0875 4.65504 -1.35773 0
M  V30 422 N 38.4306 0.297415 1.54768 0
M  V30 423 C 39.6786 -0.312295 1.99673 0
M  V30 424 C 39.9996 -1.54686 1.18732 0
M  V30 425 O 39.2696 -1.93854 0.282382 0
M  V30 426 H 37.8496 -0.118381 0.73756 0
M  V30 427 H 40.5116 0.407915 1.90583 0
M  V30 428 H 39.6076 -0.586813 3.06534 0
M  V30 429 N 39.9087 -1.5758 0.0250728 0
M  V30 430 C 41.1487 -1.93497 -0.65865 0
M  V30 431 C 41.5127 -0.901409 -1.69525 0
M  V30 432 O 42.7137 -1.14664 -2.43116 0
M  V30 433 C 40.9847 -3.34352 -1.26267 0
M  V30 434 S 42.5437 -3.92191 -1.96803 0
M  V30 435 H 39.3617 -0.67709 -0.216958 0
M  V30 436 H 41.9637 -1.95303 0.0877692 0
M  V30 437 H 40.6677 -4.07395 -0.495741 0
M  V30 438 H 40.1987 -3.3598 -2.04648 0
M  V30 439 H 42.2137 -3.75298 -3.24601 0
M  V30 440 N 41.3868 0.248026 -1.55636 0
M  V30 441 C 42.6348 0.974295 -1.77065 0
M  V30 442 C 42.9558 1.85897 -0.588849 0
M  V30 443 O 42.2258 1.91868 0.395407 0
M  V30 444 H 40.8058 0.362733 -0.653019 0
M  V30 445 H 43.4678 0.266244 -1.93073 0
M  V30 446 H 42.5638 1.59667 -2.68166 0
M  V30 447 N 42.8649 1.48995 0.513639 0
M  V30 448 C 44.1129 1.57531 1.26604 0
M  V30 449 C 44.4339 0.258236 1.93283 0
M  V30 450 O 43.7039 -0.721502 1.8213 0
M  V30 451 H 42.2839 0.580387 0.470276 0
M  V30 452 H 44.9459 1.85552 0.596373 0
M  V30 453 H 44.0419 2.36486 2.03669 0
M  V30 454 N 44.343 -0.763751 1.37857 0
M  V30 455 C 45.291 -1.89864 1.34367 0
M  V30 456 C 46.285 -1.67816 0.231143 0
M  V30 457 O 47.491 -1.75508 0.399617 0
M  V30 458 H 43.866 -0.624501 0.41893 0
M  V30 459 H 45.837 -1.89925 2.30155 0
M  V30 460 C 44.586 -3.27227 1.1755 0
M  V30 461 H 43.909 -3.44773 2.02414 0
M  V30 462 H 45.349 -4.06911 1.1916 0
M  V30 463 C 43.808 -3.36692 -0.118311 0
M  V30 464 O 44.338 -3.86374 -1.09902 0
M  V30 465 N 42.544 -2.90092 -0.171717 0
M  V30 466 H 42.091 -2.49853 0.627012 0
M  V30 467 H 42.049 -2.96806 -1.03699 0
M  V30 468 N 45.8211 -1.22559 -0.990812 0
M  V30 469 C 47.0691 -1.04933 -1.72724 0
M  V30 470 C 47.3901 0.416158 -1.90508 0
M  V30 471 O 46.6601 1.29918 -1.46622 0
M  V30 472 H 45.2401 -0.385296 -0.639965 0
M  V30 473 H 47.9021 -1.54105 -1.19322 0
M  V30 474 H 46.9981 -1.52886 -2.72089 0
M  V30 475 N 47.2992 1.18797 -1.03562 0
M  V30 476 C 48.2292 2.24472 -0.643019 0
M  V30 477 C 49.2102 1.66433 0.351283 0
M  V30 478 O 50.3952 1.92803 0.232505 0
M  V30 479 C 47.5252 3.473 4.24935e-05 0
M  V30 480 C 46.4792 4.18055 -0.917257 0
M  V30 481 C 45.8052 5.34519 -0.138941 0
M  V30 482 C 47.1052 4.72109 -2.23407 0
M  V30 483 H 48.7992 2.57566 -1.52643 0
M  V30 484 H 46.3452 1.23806 -0.735394 0
M  V30 485 H 48.2982 4.20426 0.286383 0
M  V30 486 H 47.0222 3.13424 0.918299 0
M  V30 487 H 45.6812 3.46821 -1.1879 0
M  V30 488 H 45.3292 4.96891 0.781562 0
M  V30 489 H 45.0292 5.82794 -0.750005 0
M  V30 490 H 46.5532 6.10438 0.1405 0
M  V30 491 H 47.9672 5.36955 -2.00879 0
M  V30 492 H 46.3642 5.30897 -2.79765 0
M  V30 493 H 47.4342 3.89807 -2.88407 0
M  V30 494 N 48.7773 0.814389 1.34928 0
M  V30 495 C 50.0233 0.399013 1.98836 0
M  V30 496 C 50.3563 -1.03314 1.64438 0
M  V30 497 O 49.6313 -1.71811 0.911659 0
M  V30 498 C 49.9143 0.591629 3.55207 0
M  V30 499 C 49.7673 2.06928 3.99376 0
M  V30 500 C 51.0863 0.022199 4.40094 0
M  V30 501 H 48.2053 0.146451 0.722303 0
M  V30 502 H 50.8473 1.02537 1.59957 0
M  V30 503 H 48.9973 0.0584441 3.88456 0
M  V30 504 H 50.6693 2.66544 3.76499 0
M  V30 505 H 48.9123 2.56287 3.49999 0
M  V30 506 H 49.5833 2.1549 5.08201 0
M  V30 507 H 52.0593 0.477643 4.13349 0
M  V30 508 H 50.9353 0.186832 5.48582 0
M  V30 509 H 51.1963 -1.07215 4.28902 0
M  V30 510 N 50.2554 -1.46986 0.568584 0
M  V30 511 C 51.5024 -2.02441 0.0487986 0
M  V30 512 C 51.8304 -1.44169 -1.30559 0
M  V30 513 O 51.0854 -0.591213 -1.86556 0
M  V30 514 C 51.3844 -3.57306 -0.081836 0
M  V30 515 C 51.0504 -4.34552 1.20313 0
M  V30 516 C 49.7124 -4.55376 1.5552 0
M  V30 517 C 52.0644 -4.79016 2.05411 0
M  V30 518 C 49.3924 -5.17913 2.7565 0
M  V30 519 C 51.7444 -5.42879 3.24754 0
M  V30 520 C 50.4084 -5.61933 3.60261 0
M  V30 521 H 49.6784 -0.740785 0.0178567 0
M  V30 522 H 52.3254 -1.76525 0.742384 0
M  V30 523 H 50.6304 -3.8228 -0.858463 0
M  V30 524 H 52.3274 -3.97876 -0.499546 0
M  V30 525 H 48.9174 -4.18631 0.919014 0
M  V30 526 H 53.1014 -4.62696 1.79516 0
M  V30 527 H 48.3574 -5.30858 3.03315 0
M  V30 528 H 52.5314 -5.76293 3.90973 0
M  V30 529 H 50.1584 -6.10161 4.53439 0
M  V30 530 N 51.7335 -0.305618 -1.54608 0
M  V30 531 C 52.9585 0.307562 -2.05107 0
M  V30 532 C 53.3835 1.46385 -1.18123 0
M  V30 533 O 52.7415 1.8034 -0.186324 0
M  V30 534 C 52.7895 0.73704 -3.52987 0
M  V30 535 O 51.8935 1.84134 -3.6901 0
M  V30 536 H 51.2345 0.0589143 -0.661381 0
M  V30 537 H 53.7645 -0.448807 -1.99617 0
M  V30 538 H 53.7745 1.02459 -3.94925 0
M  V30 539 H 52.4495 -0.108773 -4.15758 0
M  V30 540 H 51.0265 1.55398 -3.38978 0
M  V30 541 N 53.2116 1.57565 -0.0334293 0
M  V30 542 C 54.1746 2.09393 0.932048 0
M  V30 543 C 55.1746 1.00986 1.25134 0
M  V30 544 O 56.3646 1.27129 1.19096 0
M  V30 545 C 53.4966 2.56338 2.2473 0
M  V30 546 H 54.6896 2.95984 0.483085 0
M  V30 547 H 52.2426 1.54819 0.21468 0
M  V30 548 H 52.9776 1.7309 2.74245 0
M  V30 549 H 52.7626 3.35542 2.02865 0
M  V30 550 H 54.2526 2.96646 2.93923 0
M  V30 551 N 54.6897 -0.239769 1.55765 0
M  V30 552 C 55.9357 -0.968234 1.78194 0
M  V30 553 C 56.2687 -1.84701 0.599938 0
M  V30 554 O 55.5437 -1.9031 -0.401524 0
M  V30 555 C 55.8267 -1.8227 3.10564 0
M  V30 556 C 55.6797 -0.971633 4.3918 0
M  V30 557 C 56.9987 -2.80388 3.39221 0
M  V30 558 H 54.1177 -0.350572 0.648281 0
M  V30 559 H 56.7597 -0.238259 1.885 0
M  V30 560 H 54.9097 -2.44507 3.01908 0
M  V30 561 H 56.5817 -0.367408 4.59835 0
M  V30 562 H 54.8247 -0.276276 4.32919 0
M  V30 563 H 55.4957 -1.60346 5.28198 0
M  V30 564 H 57.9717 -2.28287 3.47885 0
M  V30 565 H 56.8477 -3.3729 4.33044 0
M  V30 566 H 57.1087 -3.57212 2.60484 0
M  V30 567 N 56.1678 -1.49265 -0.50573 0
M  V30 568 C 57.4448 -1.49012 -1.26707 0
M  V30 569 C 57.8248 -0.215205 -2.1 0
M  V30 570 O 57.1728 0.802547 -2.13943 0
M  V30 571 C 57.3828 -2.7663 -2.12783 0
M  V30 572 C 58.7308 -3.25932 -2.72127 0
M  V30 573 O 59.7548 -2.77715 -2.23054 0
M  V30 574 O 58.6138 -4.09897 -3.61451 0
M  V30 575 H 55.7078 -0.596197 -0.57313 0
M  V30 576 H 58.2538 -1.61524 -0.52039 0
M  V30 577 H 57.0258 -3.60916 -1.5118 0
M  V30 578 H 56.6488 -2.66956 -2.94653 0
M  V30 579 N 57.6459 0.756429 -1.3826 0
M  V30 580 C 58.5939 1.89149 -1.35372 0
M  V30 581 C 59.5879 1.67691 -0.24004 0
M  V30 582 O 60.7939 1.75294 -0.408919 0
M  V30 583 H 57.1689 0.622271 -0.422236 0
M  V30 584 H 59.1399 1.88701 -2.31159 0
M  V30 585 C 57.8889 3.26599 -1.19284 0
M  V30 586 H 57.2119 3.43695 -2.0424 0
M  V30 587 H 58.6519 4.06274 -1.21316 0
M  V30 588 C 57.1109 3.3675 0.100454 0
M  V30 589 O 57.6409 3.86951 1.07851 0
M  V30 590 N 55.8469 2.90179 0.15633 0
M  V30 591 H 55.3939 2.49517 -0.640253 0
M  V30 592 H 55.3519 2.97352 1.02123 0
M  V30 593 N 59.124 1.23083 0.984299 0
M  V30 594 C 60.401 0.9689 1.69917 0
M  V30 595 C 60.781 -0.513604 2.04757 0
M  V30 596 O 60.129 -1.48383 1.73767 0
M  V30 597 C 60.339 1.87518 2.94343 0
M  V30 598 C 61.687 2.13636 3.6694 0
M  V30 599 O 62.711 1.85036 3.04368 0
M  V30 600 O 61.57 2.62119 4.79537 0
M  V30 601 H 58.664 0.365095 0.742048 0
M  V30 602 H 61.21 1.34107 1.03987 0
M  V30 603 H 59.982 2.87756 2.65164 0
M  V30 604 H 59.605 1.50514 3.6801 0
M  V30 605 N 60.6021 -1.18246 1.0419 0
M  V30 606 C 61.8421 -1.89948 0.754916 0
M  V30 607 C 62.2061 -1.78608 -0.70451 0
M  V30 608 O 63.4071 -2.4503 -1.10516 0
M  V30 609 C 61.6781 -3.36305 1.20969 0
M  V30 610 S 63.2371 -4.26088 1.04854 0
M  V30 611 H 60.0551 -0.655897 0.274446 0
M  V30 612 H 62.6571 -1.42873 1.33445 0
M  V30 613 H 61.3611 -3.42089 2.26722 0
M  V30 614 H 60.8921 -3.8842 0.624004 0
M  V30 615 H 62.9071 -4.96189 -0.0332896 0
M  V30 616 N 62.0802 -0.821533 -1.34494 0
M  V30 617 C 63.3572 -0.33159 -1.92769 0
M  V30 618 C 63.7372 1.18088 -1.74981 0
M  V30 619 O 63.0852 1.98733 -1.12772 0
M  V30 620 C 63.2952 -0.759398 -3.40638 0
M  V30 621 C 64.6432 -0.757433 -4.1779 0
M  V30 622 O 65.6672 -0.70189 -3.49216 0
M  V30 623 O 64.5262 -0.829361 -5.4017 0
M  V30 624 H 61.6202 -0.0902502 -0.822061 0
M  V30 625 H 64.1662 -0.906231 -1.43477 0
M  V30 626 H 62.9382 -1.8012 -3.47379 0
M  V30 627 H 62.5612 -0.160378 -3.97276 0
M  V30 628 N 63.5583 1.46682 -0.576371 0
M  V30 629 C 64.5053 2.30241 0.160499 0
M  V30 630 C 65.4753 1.40233 0.890162 0
M  V30 631 O 66.6603 1.69186 0.882084 0
M  V30 632 C 63.8003 3.24578 1.1723 0
M  V30 633 C 62.9133 4.29684 0.446736 0
M  V30 634 C 62.0483 5.11154 1.44551 0
M  V30 635 C 61.0873 6.08015 0.70599 0
M  V30 636 N 60.2243 6.82376 1.65251 0
M  V30 637 H 65.0643 2.92727 -0.558127 0
M  V30 638 H 62.6013 1.44272 -0.287056 0
M  V30 639 H 64.5593 3.77711 1.77172 0
M  V30 640 H 63.1893 2.63916 1.85872 0
M  V30 641 H 62.2413 3.79458 -0.267594 0
M  V30 642 H 63.5533 4.98626 -0.131686 0
M  V30 643 H 62.7073 5.68533 2.11791 0
M  V30 644 H 61.4463 4.42158 2.05786 0
M  V30 645 H 60.4513 5.49796 0.0197725 0
M  V30 646 H 61.6763 6.79028 0.09912 0
M  V30 647 H 59.6223 6.16094 2.25308 0
M  V30 648 H 59.5393 7.47556 1.12673 0
M  V30 649 H 60.8073 7.44316 2.31546 0
M  V30 650 N 65.0364 0.313813 1.54444 0
M  V30 651 C 66.4524 -0.0391619 1.59552 0
M  V30 652 C 66.6524 -1.51322 1.33056 0
M  V30 653 O 65.7084 -2.26782 1.11022 0
M  V30 654 C 67.0214 0.370302 2.98411 0
M  V30 655 C 68.5694 0.320139 3.11358 0
M  V30 656 C 69.0444 0.704617 4.52547 0
M  V30 657 N 70.5354 0.657645 4.58508 0
M  V30 658 C 71.2704 0.927453 5.6585 0
M  V30 659 N 70.7664 1.26389 6.81174 0
M  V30 660 N 72.5594 0.853662 5.5558 0
M  V30 661 H 64.7104 1.27433 1.69925 0
M  V30 662 H 66.9734 0.517511 0.794284 0
M  V30 663 H 66.6794 1.39694 3.22767 0
M  V30 664 H 66.5534 -0.269619 3.76235 0
M  V30 665 H 68.9404 -0.697275 2.86744 0
M  V30 666 H 69.0214 0.99486 2.35661 0
M  V30 667 H 68.6654 1.7199 4.77893 0
M  V30 668 H 68.5954 0.00768843 5.26599 0
M  V30 669 H 71.0864 0.409067 3.75679 0
M  V30 670 H 71.3994 1.4554 7.58972 0
M  V30 671 H 69.7444 1.30206 6.82694 0
M  V30 672 H 72.9354 0.590383 4.64362 0
M  V30 673 H 73.1084 1.0673 6.3915 0
M  V30 674 N 66.5145 -1.57545 0.0417849 0
M  V30 675 C 67.7605 -1.92601 -0.635021 0
M  V30 676 C 68.0935 -0.919627 -1.71045 0
M  V30 677 O 67.3685 0.0557892 -1.9442 0
M  V30 678 C 67.6515 -3.38085 -1.23979 0
M  V30 679 C 67.5045 -4.49467 -0.173057 0
M  V30 680 C 68.8235 -3.83776 -2.15416 0
M  V30 681 H 65.9425 -0.700397 -0.229374 0
M  V30 682 H 68.5845 -1.89728 0.101633 0
M  V30 683 H 66.7345 -3.40664 -1.86762 0
M  V30 684 H 68.4065 -4.59018 0.458312 0
M  V30 685 H 66.6495 -4.30909 0.499996 0
M  V30 686 H 67.3205 -5.48323 -0.636054 0
M  V30 687 H 69.7965 -3.83013 -1.62605 0
M  V30 688 H 68.6725 -4.8624 -2.54679 0
M  V30 689 H 68.9335 -3.19998 -3.05047 0
M  V30 690 N 67.9926 0.231505 -1.5589 0
M  V30 691 C 68.9556 1.27028 -1.90779 0
M  V30 692 C 69.9556 1.40308 -0.785507 0
M  V30 693 O 71.1456 1.38744 -1.05336 0
M  V30 694 C 68.2776 2.64566 -2.14983 0
M  V30 695 H 69.4706 0.973017 -2.83677 0
M  V30 696 H 67.0236 0.471486 -1.49019 0
M  V30 697 H 67.7586 2.99406 -1.24604 0
M  V30 698 H 67.5436 2.56305 -2.96732 0
M  V30 699 H 69.0336 3.39543 -2.43105 0
M  V30 700 N 69.4707 1.49531 0.497807 0
M  V30 701 C 70.7197 1.58426 1.24837 0
M  V30 702 C 71.0327 0.277643 1.93619 0
M  V30 703 O 72.2387 0.24517 2.70391 0
M  V30 704 C 70.6947 2.79538 2.26686 0
M  V30 705 C 70.3027 4.16971 1.63828 0
M  V30 706 C 72.0467 2.97764 3.0255 0
M  V30 707 C 69.9537 5.29301 2.63807 0
M  V30 708 H 68.8837 0.58989 0.469623 0
M  V30 709 H 71.5347 1.75923 0.521857 0
M  V30 710 H 69.9167 2.55542 3.02514 0
M  V30 711 H 71.0907 4.51116 0.939711 0
M  V30 712 H 69.4057 4.04129 1.00342 0
M  V30 713 H 72.0027 3.78856 3.77323 0
M  V30 714 H 72.3457 2.08448 3.60354 0
M  V30 715 H 72.8787 3.21815 2.33838 0
M  V30 716 H 69.6177 6.20687 2.10779 0
M  V30 717 H 69.1377 4.99606 3.31894 0
M  V30 718 H 70.8167 5.58768 3.2617 0
M  V30 719 N 70.9488 -0.749086 1.3866 0
M  V30 720 C 71.8958 -1.86291 1.36251 0
M  V30 721 C 72.8658 -1.64578 0.224347 0
M  V30 722 O 74.0508 -1.86181 0.417279 0
M  V30 723 C 71.1908 -3.23644 1.19786 0
M  V30 724 C 70.3038 -3.57158 2.43027 0
M  V30 725 C 69.4388 -4.83838 2.19258 0
M  V30 726 C 68.4778 -5.10152 3.38247 0
M  V30 727 N 67.6148 -6.28029 3.13884 0
M  V30 728 H 72.4548 -1.87685 2.3147 0
M  V30 729 H 69.9918 -0.917287 1.14997 0
M  V30 730 H 71.9498 -4.0291 1.08254 0
M  V30 731 H 70.5798 -3.21566 0.282031 0
M  V30 732 H 69.6318 -2.72701 2.65214 0
M  V30 733 H 70.9438 -3.7253 3.31697 0
M  V30 734 H 70.0978 -5.71057 2.04888 0
M  V30 735 H 68.8368 -4.70614 1.2796 0
M  V30 736 H 67.8418 -4.21401 3.53131 0
M  V30 737 H 69.0668 -5.25271 4.30427 0
M  V30 738 H 67.0128 -6.1612 2.25238 0
M  V30 739 H 66.9298 -6.43922 3.96106 0
M  V30 740 H 68.1978 -7.18124 3.03179 0
M  V30 741 N 72.4269 -1.23603 -0.977757 0
M  V30 742 C 73.3739 -1.01954 -2.07061 0
M  V30 743 C 74.3439 0.0638697 -1.65977 0
M  V30 744 O 75.5289 -0.0887624 -1.90593 0
M  V30 745 C 72.6689 -0.619658 -3.39491 0
M  V30 746 C 71.7819 -1.77547 -3.93829 0
M  V30 747 C 70.9169 -1.32212 -5.14484 0
M  V30 748 C 69.9559 -2.44852 -5.60994 0
M  V30 749 N 69.0929 -2.00456 -6.72876 0
M  V30 750 H 73.9329 -1.95495 -2.24913 0
M  V30 751 H 71.4699 -0.973861 -1.10247 0
M  V30 752 H 73.4279 -0.368898 -4.15566 0
M  V30 753 H 72.0579 0.278752 -3.21594 0
M  V30 754 H 71.1099 -2.14016 -3.14486 0
M  V30 755 H 72.4219 -2.62219 -4.24314 0
M  V30 756 H 71.5759 -1.02965 -5.97899 0
M  V30 757 H 70.3149 -0.445808 -4.85658 0
M  V30 758 H 69.3199 -2.74871 -4.76157 0
M  V30 759 H 70.5449 -3.33024 -5.91837 0
M  V30 760 H 68.4909 -1.15208 -6.45804 0
M  V30 761 H 68.4079 -2.78687 -7.02759 0
M  V30 762 H 69.6759 -1.7432 -7.59758 0
M  V30 763 N 73.905 1.17692 -1.04816 0
M  V30 764 C 75.154 1.87192 -0.751132 0
M  V30 765 C 75.467 1.8169 0.724441 0
M  V30 766 O 76.673 2.46625 1.13527 0
M  V30 767 C 75.129 3.35857 -1.29338 0
M  V30 768 C 74.737 3.4987 -2.79812 0
M  V30 769 C 76.481 4.10709 -1.07322 0
M  V30 770 C 74.388 4.92536 -3.27356 0
M  V30 771 H 73.318 0.701162 -0.277288 0
M  V30 772 H 75.969 1.32932 -1.26496 0
M  V30 773 H 74.351 3.89631 -0.707376 0
M  V30 774 H 75.525 3.06332 -3.44235 0
M  V30 775 H 73.84 2.88433 -3.00325 0
M  V30 776 H 76.437 5.15952 -1.4035 0
M  V30 777 H 76.78 4.16299 -0.0108001 0
M  V30 778 H 77.313 3.6313 -1.62423 0
M  V30 779 H 74.052 4.92119 -4.33012 0
M  V30 780 H 73.572 5.3676 -2.67673 0
M  V30 781 H 75.251 5.61288 -3.21815 0
M  V30 782 N 75.3831 0.828654 1.34056 0
M  V30 783 C 76.6291 0.42008 1.98402 0
M  V30 784 C 76.9621 -1.01564 1.65525 0
M  V30 785 O 76.2371 -1.70834 0.929831 0
M  V30 786 C 76.5201 0.62927 3.54559 0
M  V30 787 C 76.3731 2.11152 3.97159 0
M  V30 788 C 77.6921 0.0688756 4.40046 0
M  V30 789 H 74.8111 0.154104 0.720709 0
M  V30 790 H 77.4531 1.04228 1.5886 0
M  V30 791 H 75.6031 0.0996418 3.88372 0
M  V30 792 H 77.2751 2.70522 3.73651 0
M  V30 793 H 75.5181 2.59985 3.47261 0
M  V30 794 H 76.1891 2.20868 5.05887 0
M  V30 795 H 78.6651 0.521458 4.1282 0
M  V30 796 H 77.5411 0.245006 5.48353 0
M  V30 797 H 77.8021 -1.0266 4.30015 0
M  V30 798 N 76.8612 -1.46375 0.584142 0
M  V30 799 C 77.7912 -2.33103 -0.136037 0
M  V30 800 C 78.7722 -1.45431 -0.882255 0
M  V30 801 O 79.9572 -1.74246 -0.857434 0
M  V30 802 C 77.0872 -3.27731 -1.14933 0
M  V30 803 C 76.0412 -4.24855 -0.517862 0
M  V30 804 C 75.3672 -5.09001 -1.63773 0
M  V30 805 C 76.6672 -5.19439 0.545886 0
M  V30 806 H 78.3612 -2.93568 0.588086 0
M  V30 807 H 75.9072 -1.41166 0.284259 0
M  V30 808 H 77.8602 -3.87261 -1.66153 0
M  V30 809 H 76.5842 -2.65377 -1.90375 0
M  V30 810 H 75.2432 -3.6659 -0.0267361 0
M  V30 811 H 74.8912 -4.43031 -2.38185 0
M  V30 812 H 74.5912 -5.74777 -1.22085 0
M  V30 813 H 76.1152 -5.71396 -2.15266 0
M  V30 814 H 77.5292 -5.73177 0.118704 0
M  V30 815 H 75.9262 -5.93566 0.88317 0
M  V30 816 H 76.9962 -4.63285 1.43162 0
M  V30 817 N 78.3393 -0.321999 -1.54275 0
M  V30 818 C 79.5673 0.283052 -2.04955 0
M  V30 819 C 79.9823 1.45904 -1.19823 0
M  V30 820 O 79.3393 1.81063 -0.228545 0
M  V30 821 C 79.3903 0.719028 -3.54277 0
M  V30 822 O 79.1113 -0.410175 -4.36176 0
M  V30 823 C 80.6123 1.38705 -4.21041 0
M  V30 824 H 77.8323 0.0584616 -0.668448 0
M  V30 825 H 80.3763 -0.467734 -1.99079 0
M  V30 826 H 78.5313 1.41979 -3.60445 0
M  V30 827 H 78.9453 -0.0669416 -5.24457 0
M  V30 828 H 80.4193 1.64306 -5.2698 0
M  V30 829 H 80.8963 2.33385 -3.72059 0
M  V30 830 H 81.5023 0.728906 -4.19007 0
M  V30 831 N 79.8174 1.5752 -0.0501392 0
M  V30 832 C 81.0944 1.83996 0.663685 0
M  V30 833 C 81.4744 0.938339 1.89099 0
M  V30 834 O 80.8224 -0.00087759 2.285 0
M  V30 835 C 81.0324 3.33702 1.02196 0
M  V30 836 C 82.3804 4.00691 1.40469 0
M  V30 837 O 83.4044 3.38321 1.11433 0
M  V30 838 O 82.2634 5.10658 1.94654 0
M  V30 839 H 79.3574 0.759385 0.32751 0
M  V30 840 H 81.9034 1.69514 -0.0794238 0
M  V30 841 H 80.6754 3.91015 0.149364 0
M  V30 842 H 80.2984 3.53368 1.82255 0
M  V30 843 N 81.2955 -0.223234 1.56011 0
M  V30 844 C 82.7065 -0.790368 1.69145 0
M  V30 845 C 83.0575 -1.85055 0.651845 0
M  V30 846 O 82.1825 -2.15498 -0.197359 0
M  V30 847 C 82.7775 -1.4404 3.06656 0
M  V30 848 C 81.3365 -1.95494 3.2165 0
M  V30 849 C 80.4835 -0.814506 2.65068 0
M  V30 850 H 83.4345 0.00139011 1.587 0
M  V30 851 H 83.4555 -2.30916 3.0242 0
M  V30 852 H 82.9675 -0.668543 3.82298 0
M  V30 853 H 81.0685 -2.75487 2.50874 0
M  V30 854 H 81.1815 -2.13607 4.28846 0
M  V30 855 H 79.5455 -1.22137 2.23505 0
M  V30 856 H 80.3285 -0.0553515 3.43255 0
M  V30 857 N 82.7736 -1.49793 -0.48987 0
M  V30 858 C 83.7056 -1.63413 -1.60713 0
M  V30 859 C 84.7186 -0.516329 -1.54395 0
M  V30 860 O 85.9076 -0.788812 -1.60125 0
M  V30 861 C 83.0076 -1.58516 -2.99543 0
M  V30 862 C 82.1806 -2.86016 -3.30928 0
M  V30 863 C 81.2396 -2.74018 -4.49222 0
M  V30 864 O 80.2656 -3.47964 -4.50455 0
M  V30 865 N 81.4676 -1.86309 -5.4979 0
M  V30 866 H 84.2326 -2.59777 -1.49452 0
M  V30 867 H 81.7936 -1.47022 -0.677955 0
M  V30 868 H 83.7856 -1.48128 -3.76617 0
M  V30 869 H 82.3556 -0.69965 -3.0467 0
M  V30 870 H 81.5756 -3.10672 -2.42645 0
M  V30 871 H 82.8636 -3.70521 -3.487 0
M  V30 872 H 82.2616 -1.2551 -5.51601 0
M  V30 873 H 80.8186 -1.81837 -6.25922 0
M  V30 874 N 84.2517 0.741722 -1.39055 0
M  V30 875 C 85.4767 1.53607 -1.39354 0
M  V30 876 C 85.9017 1.88096 0.0116905 0
M  V30 877 O 85.2597 1.5143 0.996924 0
M  V30 878 C 85.3077 2.80441 -2.26682 0
M  V30 879 O 84.4117 3.76088 -1.69208 0
M  V30 880 H 83.7527 0.464142 -0.474835 0
M  V30 881 H 86.2827 0.915665 -1.82967 0
M  V30 882 H 86.2927 3.29246 -2.40959 0
M  V30 883 H 84.9677 2.5467 -3.2881 0
M  V30 884 H 83.5447 3.34833 -1.64138 0
M  V30 885 N 85.7298 1.2412 0.971189 0
M  V30 886 C 86.9758 1.08041 1.71625 0
M  V30 887 C 87.3088 -0.380407 1.90438 0
M  V30 888 O 86.5838 -1.28127 1.46334 0
M  V30 889 C 86.8668 1.81682 3.10908 0
M  V30 890 C 86.7198 3.35493 2.99608 0
M  V30 891 C 88.0388 1.58671 4.10501 0
M  V30 892 H 85.1578 0.39388 0.622919 0
M  V30 893 H 87.7998 1.52743 1.13003 0
M  V30 894 H 85.9498 1.43684 3.60953 0
M  V30 895 H 87.6218 3.83068 2.57015 0
M  V30 896 H 85.8648 3.64052 2.35899 0
M  V30 897 H 86.5358 3.82217 3.98264 0
M  V30 898 H 89.0118 1.91719 3.69301 0
M  V30 899 H 87.8878 2.1266 5.06031 0
M  V30 900 H 88.1488 0.524161 4.38982 0
M  V30 901 N 87.2079 -1.17134 1.05439 0
M  V30 902 C 88.1549 -2.21235 0.657539 0
M  V30 903 C 89.1249 -1.62551 -0.341543 0
M  V30 904 O 90.3099 -1.89379 -0.232393 0
M  V30 905 C 87.4499 -3.45076 0.0410575 0
M  V30 906 C 86.5629 -4.18042 1.08927 0
M  V30 907 C 85.6979 -5.29376 0.439848 0
M  V30 908 C 84.7369 -5.94132 1.4722 0
M  V30 909 N 83.8739 -6.96975 0.846756 0
M  V30 910 H 88.7139 -2.54534 1.54972 0
M  V30 911 H 86.2509 -1.25028 0.775006 0
M  V30 912 H 88.2089 -4.15862 -0.33383 0
M  V30 913 H 86.8389 -3.12353 -0.814568 0
M  V30 914 H 85.8909 -3.45945 1.58196 0
M  V30 915 H 87.2029 -4.62306 1.87282 0
M  V30 916 H 86.3569 -6.06699 0.0115125 0
M  V30 917 H 85.0959 -4.86251 -0.375656 0
M  V30 918 H 84.1009 -5.15538 1.91052 0
M  V30 919 H 85.3259 -6.39337 2.28965 0
M  V30 920 H 83.2719 -6.5598 0.0518075 0
M  V30 921 H 83.1889 -7.39565 1.5678 0
M  V30 922 H 84.4569 -7.78239 0.443277 0
M  V30 923 N 88.686 -0.835752 -1.33615 0
M  V30 924 C 89.636 -0.238856 -2.26745 0
M  V30 925 C 90.62 0.604343 -1.49119 0
M  V30 926 O 91.812 0.456822 -1.71003 0
M  V30 927 C 88.941 0.587725 -3.38232 0
M  V30 928 C 88.027 -0.266811 -4.2326 0
M  V30 929 N 88.418 -1.34403 -4.87616 0
M  V30 930 C 86.716 -0.0533131 -4.45968 0
M  V30 931 C 87.417 -1.86819 -5.50884 0
M  V30 932 N 86.393 -1.17013 -5.30857 0
M  V30 933 H 90.195 -1.06266 -2.74016 0
M  V30 934 H 87.709 -0.679881 -1.47483 0
M  V30 935 H 89.706 1.03161 -4.03935 0
M  V30 936 H 88.366 1.40954 -2.9251 0
M  V30 937 H 89.377 -1.7269 -4.88261 0
M  V30 938 H 86.054 0.735312 -4.10974 0
M  V30 939 H 87.444 -2.7701 -6.1214 0
M  V30 940 N 90.1641 1.46063 -0.591896 0
M  V30 941 C 91.1271 2.28854 0.125973 0
M  V30 942 C 92.1271 1.38903 0.810107 0
M  V30 943 O 93.3171 1.61186 0.66066 0
M  V30 944 C 90.4491 3.19526 1.1881 0
M  V30 945 H 91.6421 2.93802 -0.601717 0
M  V30 946 H 89.1951 1.52325 -0.350254 0
M  V30 947 H 89.9301 2.59345 1.94707 0
M  V30 948 H 89.7151 3.85766 0.701936 0
M  V30 949 H 91.2051 3.81817 1.69132 0
M  V30 950 N 91.6422 0.330177 1.54103 0
M  V30 951 C 92.5722 -0.525353 2.27513 0
M  V30 952 C 93.5532 -1.11383 1.2856 0
M  V30 953 O 94.7382 -1.13773 1.57383 0
M  V30 954 C 91.8682 -1.6831 3.03791 0
M  V30 955 C 90.8222 -1.2236 4.10137 0
M  V30 956 C 90.1482 -2.46882 4.74293 0
M  V30 957 C 91.4482 -0.333697 5.21233 0
M  V30 958 H 93.1422 0.087013 2.99274 0
M  V30 959 H 90.6882 0.0432893 1.43935 0
M  V30 960 H 92.6412 -2.28795 3.5388 0
M  V30 961 H 91.3652 -2.32216 2.29659 0
M  V30 962 H 90.0242 -0.64165 3.60941 0
M  V30 963 H 89.6722 -3.09165 3.96769 0
M  V30 964 H 89.3722 -2.16825 5.46133 0
M  V30 965 H 90.8962 -3.08117 5.27159 0
M  V30 966 H 92.3102 -0.845013 5.67038 0
M  V30 967 H 90.7072 -0.125612 5.99969 0
M  V30 968 H 91.7772 0.633724 4.80741 0
M  V30 969 N 93.1203 -1.57491 0.0584922 0
M  V30 970 C 94.5363 -1.56792 -0.298091 0
M  V30 971 C 94.7363 -1.06679 -1.70944 0
M  V30 972 O 93.7923 -0.726672 -2.41818 0
M  V30 973 C 95.1053 -3.00461 -0.119879 0
M  V30 974 C 96.6533 -3.1242 -0.190428 0
M  V30 975 C 97.1283 -4.57982 -0.0406567 0
M  V30 976 N 98.6193 -4.63099 -0.0966958 0
M  V30 977 C 99.3543 -5.734 -0.00502943 0
M  V30 978 N 98.8503 -6.9266 0.139402 0
M  V30 979 N 100.643 -5.62067 -0.0611391 0
M  V30 980 H 92.7943 -1.88386 0.98105 0
M  V30 981 H 95.0573 -0.867865 0.381463 0
M  V30 982 H 94.7633 -3.41187 0.85349 0
M  V30 983 H 94.6373 -3.66843 -0.877833 0
M  V30 984 H 97.0243 -2.71589 -1.15427 0
M  V30 985 H 97.1053 -2.48702 0.598405 0
M  V30 986 H 96.7493 -4.995 0.919897 0
M  V30 987 H 96.6793 -5.19715 -0.848727 0
M  V30 988 H 99.1703 -3.77331 -0.207277 0
M  V30 989 H 99.4833 -7.72536 0.201855 0
M  V30 990 H 97.8283 -6.94781 0.174586 0
M  V30 991 H 101.019 -4.67782 -0.172583 0
M  V30 992 H 101.192 -6.47999 0.0137562 0
M  V30 993 N 94.5984 0.214957 -1.56127 0
M  V30 994 C 95.5084 1.28727 -1.96129 0
M  V30 995 C 96.5244 1.50916 -0.866044 0
M  V30 996 O 97.7004 1.63918 -1.17016 0
M  V30 997 C 94.7654 2.61569 -2.27558 0
M  V30 998 C 93.8264 2.47625 -3.50685 0
M  V30 999 C 93.0594 3.74132 -3.80606 0
M  V30 1000 O 93.2824 4.77438 -3.12104 0
M  V30 1001 O 92.2164 3.70849 -4.74083 0
M  V30 1002 H 96.0424 0.977855 -2.87527 0
M  V30 1003 H 93.6274 0.418358 -1.43423 0
M  V30 1004 H 95.5094 3.40012 -2.48938 0
M  V30 1005 H 94.1844 2.92178 -1.39332 0
M  V30 1006 H 93.0914 1.67361 -3.34576 0
M  V30 1007 H 94.4244 2.21954 -4.39315 0
M  V30 1008 N 96.0765 1.50051 0.48192 0
M  V30 1009 C 97.3255 1.59741 1.23149 0
M  V30 1010 C 97.6385 0.298163 1.93314 0
M  V30 1011 O 98.8445 0.273835 2.70116 0
M  V30 1012 C 97.3005 2.81926 2.23708 0
M  V30 1013 C 96.9085 4.18685 1.59396 0
M  V30 1014 C 98.6525 3.00956 2.99375 0
M  V30 1015 C 96.5595 5.3207 2.58178 0
M  V30 1016 H 95.4895 0.594838 0.46334 0
M  V30 1017 H 98.1405 1.76467 0.503169 0
M  V30 1018 H 96.5225 2.58736 2.99786 0
M  V30 1019 H 97.6965 4.52088 0.891811 0
M  V30 1020 H 96.0115 4.05171 0.960503 0
M  V30 1021 H 98.6085 3.82836 3.73283 0
M  V30 1022 H 98.9515 2.12258 3.58123 0
M  V30 1023 H 99.4845 3.24277 2.30411 0
M  V30 1024 H 96.2235 6.22888 2.04184 0
M  V30 1025 H 95.7435 5.03098 3.26577 0
M  V30 1026 H 97.4225 5.62196 3.20225 0
M  V30 1027 N 97.5546 -0.734337 1.39446 0
M  V30 1028 C 98.5016 -1.84835 1.38219 0
M  V30 1029 C 99.4716 -1.64331 0.24179 0
M  V30 1030 O 100.657 -1.85728 0.437002 0
M  V30 1031 C 97.7966 -3.22355 1.23212 0
M  V30 1032 C 96.9096 -3.5456 2.46801 0
M  V30 1033 C 96.0446 -4.81485 2.24377 0
M  V30 1034 C 95.0836 -5.06536 3.43639 0
M  V30 1035 N 94.2206 -6.24665 3.20528 0
M  V30 1036 H 99.0606 -1.85219 2.33448 0
M  V30 1037 H 96.5976 -0.905039 1.15963 0
M  V30 1038 H 98.5556 -4.0174 1.12522 0
M  V30 1039 H 97.1856 -3.21248 0.316121 0
M  V30 1040 H 96.2376 -2.69872 2.68092 0
M  V30 1041 H 97.5496 -3.6899 3.3563 0
M  V30 1042 H 96.7036 -5.68852 2.10933 0
M  V30 1043 H 95.4426 -4.6923 1.32944 0
M  V30 1044 H 94.4476 -4.17632 3.5758 0
M  V30 1045 H 95.6726 -5.20676 4.35974 0
M  V30 1046 H 93.6186 -6.13696 2.3176 0
M  V30 1047 H 93.5356 -6.39685 4.02913 0
M  V30 1048 H 94.8036 -7.14868 3.10779 0
M  V30 1049 N 99.0327 -1.24633 -0.964593 0
M  V30 1050 C 100.282 -1.08188 -1.7023 0
M  V30 1051 C 100.595 0.37873 -1.91898 0
M  V30 1052 O 101.801 0.663427 -2.6327 0
M  V30 1053 C 100.257 -1.88773 -3.06419 0
M  V30 1054 C 99.8647 -3.39263 -2.92582 0
M  V30 1055 C 101.609 -1.80867 -3.84041 0
M  V30 1056 C 99.5157 -4.1218 -4.24101 0
M  V30 1057 H 98.4457 -0.401245 -0.638372 0
M  V30 1058 H 101.097 -1.48742 -1.07462 0
M  V30 1059 H 99.4787 -1.41035 -3.70034 0
M  V30 1060 H 100.653 -3.94603 -2.37961 0
M  V30 1061 H 98.9677 -3.48154 -2.28424 0
M  V30 1062 H 101.565 -2.32646 -4.81435 0
M  V30 1063 H 101.908 -0.774543 -4.09031 0
M  V30 1064 H 102.441 -2.26301 -3.27159 0
M  V30 1065 H 99.1797 -5.15965 -4.04303 0
M  V30 1066 H 98.6997 -3.61626 -4.78526 0
M  V30 1067 H 100.379 -4.19349 -4.92702 0
M  V30 1068 N 100.511 1.16574 -1.06058 0
M  V30 1069 C 101.76 1.86385 -0.770944 0
M  V30 1070 C 102.073 1.82448 0.705129 0
M  V30 1071 O 103.279 2.47815 1.10905 0
M  V30 1072 C 101.735 3.34466 -1.32893 0
M  V30 1073 C 101.343 3.46883 -2.83507 0
M  V30 1074 C 103.087 4.09548 -1.11672 0
M  V30 1075 C 100.994 4.89036 -3.32562 0
M  V30 1076 H 99.9238 0.698181 -0.284709 0
M  V30 1077 H 102.575 1.31583 -1.27899 0
M  V30 1078 H 100.957 3.88859 -0.748662 0
M  V30 1079 H 102.131 3.02663 -3.47465 0
M  V30 1080 H 100.446 2.85232 -3.03368 0
M  V30 1081 H 103.043 5.14434 -1.45814 0
M  V30 1082 H 103.386 4.16264 -0.0549535 0
M  V30 1083 H 103.919 3.61387 -1.66265 0
M  V30 1084 H 100.658 4.87499 -4.38207 0
M  V30 1085 H 100.178 5.3389 -2.73351 0
M  V30 1086 H 101.857 5.57843 -3.2775 0
M  V30 1087 N 101.989 0.842826 1.3317 0
M  V30 1088 C 103.405 0.531128 1.50503 0
M  V30 1089 C 103.605 -0.940734 1.78192 0
M  V30 1090 O 102.661 -1.72436 1.84451 0
M  V30 1091 C 103.974 1.40789 2.65705 0
M  V30 1092 C 105.522 1.40708 2.79589 0
M  V30 1093 C 105.997 2.26878 3.97857 0
M  V30 1094 N 107.488 2.24609 4.05099 0
M  V30 1095 C 108.223 2.88019 4.95815 0
M  V30 1096 N 107.719 3.60496 5.9162 0
M  V30 1097 N 109.512 2.77469 4.88843 0
M  V30 1098 H 101.663 1.79557 1.1346 0
M  V30 1099 H 103.926 0.766267 0.558156 0
M  V30 1100 H 103.632 2.454 2.51936 0
M  V30 1101 H 103.506 1.08677 3.61205 0
M  V30 1102 H 105.893 0.368668 2.92788 0
M  V30 1103 H 105.974 1.76829 1.84838 0
M  V30 1104 H 105.618 3.3078 3.85418 0
M  V30 1105 H 105.548 1.88096 4.91861 0
M  V30 1106 H 108.039 1.71906 3.36536 0
M  V30 1107 H 108.352 4.06076 6.57512 0
M  V30 1108 H 106.697 3.64604 5.91683 0
M  V30 1109 H 109.888 2.20406 4.12963 0
M  V30 1110 H 110.061 3.2717 5.59342 0
M  V30 1111 N 103.467 -1.45747 0.599634 0
M  V30 1112 C 104.883 -1.57424 0.26264 0
M  V30 1113 C 105.083 -1.59222 -1.23493 0
M  V30 1114 O 104.139 -1.51825 -2.01756 0
M  V30 1115 C 105.452 -2.86061 0.926795 0
M  V30 1116 C 107 -2.99722 0.901967 0
M  V30 1117 C 107.475 -4.31119 1.54598 0
M  V30 1118 N 108.966 -4.37858 1.5111 0
M  V30 1119 C 109.701 -5.3818 1.97863 0
M  V30 1120 N 109.197 -6.45083 2.52666 0
M  V30 1121 N 110.99 -5.29487 1.88679 0
M  V30 1122 H 103.141 -1.42823 1.57211 0
M  V30 1123 H 105.404 -0.68235 0.658105 0
M  V30 1124 H 105.11 -2.90605 1.98095 0
M  V30 1125 H 104.984 -3.74563 0.445238 0
M  V30 1126 H 107.371 -2.9475 -0.143617 0
M  V30 1127 H 107.452 -2.12652 1.42171 0
M  V30 1128 H 107.096 -4.36849 2.59085 0
M  V30 1129 H 107.026 -5.16992 1.00132 0
M  V30 1130 H 109.517 -3.61209 1.11068 0
M  V30 1131 H 109.83 -7.17869 2.86155 0
M  V30 1132 H 108.175 -6.45856 2.56701 0
M  V30 1133 H 111.366 -4.44877 1.4561 0
M  V30 1134 H 111.539 -6.07524 2.25429 0
M  V30 1135 N 104.945 -0.338344 -1.53925 0
M  V30 1136 C 105.875 0.51328 -2.27789 0
M  V30 1137 C 106.856 1.107 -1.29149 0
M  V30 1138 O 108.041 1.12937 -1.57984 0
M  V30 1139 C 105.171 1.66697 -3.04679 0
M  V30 1140 C 104.125 1.20183 -4.1078 0
M  V30 1141 C 103.451 2.44363 -4.75595 0
M  V30 1142 C 104.751 0.30605 -5.21403 0
M  V30 1143 H 106.445 -0.102883 -2.99223 0
M  V30 1144 H 103.991 -0.0509219 -1.4391 0
M  V30 1145 H 105.944 2.26915 -3.55088 0
M  V30 1146 H 104.668 2.30995 -2.30887 0
M  V30 1147 H 103.327 0.622499 -3.61276 0
M  V30 1148 H 102.975 3.07057 -3.98403 0
M  V30 1149 H 102.675 2.13925 -5.47275 0
M  V30 1150 H 104.199 3.05317 -5.28786 0
M  V30 1151 H 105.613 0.814929 -5.67478 0
M  V30 1152 H 104.01 0.0937929 -6.00027 0
M  V30 1153 H 105.08 -0.65921 -4.80398 0
M  V30 1154 N 106.423 1.57458 -0.0668435 0
M  V30 1155 C 107.7 1.8469 0.644132 0
M  V30 1156 C 108.08 0.958343 1.88093 0
M  V30 1157 O 107.428 0.0233579 2.28488 0
M  V30 1158 C 107.638 3.34767 0.986509 0
M  V30 1159 C 108.986 4.02159 1.36212 0
M  V30 1160 O 110.01 3.39484 1.07839 0
M  V30 1161 O 108.869 5.12694 1.89227 0
M  V30 1162 H 105.963 0.762816 0.319437 0
M  V30 1163 H 108.509 1.6942 -0.0973986 0
M  V30 1164 H 107.281 3.91151 0.107883 0
M  V30 1165 H 106.904 3.55281 1.78497 0
M  V30 1166 N 107.901 -0.206675 1.56239 0
M  V30 1167 C 108.851 -1.26 1.90021 0
M  V30 1168 C 109.835 -1.41566 0.764721 0
M  V30 1169 O 111.027 -1.44131 1.02739 0
M  V30 1170 C 108.156 -2.6073 2.23326 0
M  V30 1171 C 107.242 -2.49005 3.43304 0
M  V30 1172 N 107.633 -2.06946 4.61527 0
M  V30 1173 C 105.931 -2.79927 3.47213 0
M  V30 1174 C 106.632 -2.06832 5.43687 0
M  V30 1175 N 105.608 -2.47892 4.83788 0
M  V30 1176 H 109.41 -0.925955 2.78932 0
M  V30 1177 H 106.924 -0.415172 1.57003 0
M  V30 1178 H 108.921 -3.36798 2.45708 0
M  V30 1179 H 107.581 -2.94968 1.35735 0
M  V30 1180 H 108.592 -1.77839 4.86409 0
M  V30 1181 H 105.269 -3.18438 2.70006 0
M  V30 1182 H 106.659 -1.76312 6.48354 0
M  V30 1183 N 109.379 -1.50304 -0.473955 0
M  V30 1184 C 110.656 -1.51667 -1.23518 0
M  V30 1185 C 111.036 -0.259701 -2.09496 0
M  V30 1186 O 110.384 0.756986 -2.15597 0
M  V30 1187 C 110.594 -2.81082 -2.06868 0
M  V30 1188 C 111.942 -3.31631 -2.65153 0
M  V30 1189 O 112.966 -2.82384 -2.17113 0
M  V30 1190 O 111.825 -4.17471 -3.52675 0
M  V30 1191 H 108.919 -0.60822 -0.560355 0
M  V30 1192 H 111.465 -1.62592 -0.486011 0
M  V30 1193 H 110.237 -3.64041 -1.4349 0
M  V30 1194 H 109.86 -2.73146 -2.88924 0
M  V30 1195 N 110.857 0.726932 -1.39834 0
M  V30 1196 C 111.805 1.86235 -1.39353 0
M  V30 1197 C 112.799 1.67144 -0.275555 0
M  V30 1198 O 114.005 1.74387 -0.44601 0
M  V30 1199 H 110.38 0.613174 -0.43534 0
M  V30 1200 H 112.351 1.83756 -2.35109 0
M  V30 1201 C 111.1 3.23995 -1.26185 0
M  V30 1202 H 110.423 3.39285 -2.11484 0
M  V30 1203 H 111.863 4.03609 -1.29907 0
M  V30 1204 C 110.322 3.36888 0.0290018 0
M  V30 1205 O 110.852 3.89152 0.99619 0
M  V30 1206 N 109.058 2.90446 0.0947437 0
M  V30 1207 H 108.605 2.48102 -0.693035 0
M  V30 1208 H 108.563 2.99451 0.957932 0
M  V30 1209 N 112.336 1.25143 0.95797 0
M  V30 1210 C 113.585 1.0909 1.69654 0
M  V30 1211 C 113.898 -0.368548 1.92097 0
M  V30 1212 O 115.104 -0.649455 2.63618 0
M  V30 1213 C 113.56 1.90395 3.05414 0
M  V30 1214 C 113.168 3.4081 2.90779 0
M  V30 1215 C 114.912 1.82901 3.83076 0
M  V30 1216 C 112.819 4.14423 4.21909 0
M  V30 1217 H 111.749 0.404625 0.636235 0
M  V30 1218 H 114.4 1.4931 1.06672 0
M  V30 1219 H 112.782 1.42996 3.69281 0
M  V30 1220 H 113.956 3.95859 2.35865 0
M  V30 1221 H 112.271 3.49361 2.26575 0
M  V30 1222 H 114.868 2.35196 4.80195 0
M  V30 1223 H 115.211 0.796224 4.08615 0
M  V30 1224 H 115.744 2.28033 3.25954 0
M  V30 1225 H 112.483 5.18102 4.01561 0
M  V30 1226 H 112.003 3.64159 4.76601 0
M  V30 1227 H 113.682 4.21956 4.90471 0
M  V30 1228 N 113.814 -1.1601 1.06675 0
M  V30 1229 C 115.06 -1.86909 0.786945 0
M  V30 1230 C 115.393 -1.81717 -0.685018 0
M  V30 1231 O 114.668 -1.23551 -1.50218 0
M  V30 1232 C 114.951 -3.36313 1.28707 0
M  V30 1233 C 114.804 -3.50175 2.82308 0
M  V30 1234 C 116.123 -4.3084 0.898071 0
M  V30 1235 H 113.242 -0.678677 0.287343 0
M  V30 1236 H 115.884 -1.36336 1.32334 0
M  V30 1237 H 114.034 -3.79513 0.830768 0
M  V30 1238 H 115.706 -3.15886 3.36175 0
M  V30 1239 H 113.949 -2.91959 3.20847 0
M  V30 1240 H 114.62 -4.55116 3.12368 0
M  V30 1241 H 117.096 -3.95561 1.29114 0
M  V30 1242 H 115.972 -5.33876 1.27543 0
M  V30 1243 H 116.233 -4.41662 -0.196651 0
M  V30 1244 N 115.292 -0.849877 -1.32721 0
M  V30 1245 C 116.239 -0.289033 -2.28983 0
M  V30 1246 C 117.209 0.601324 -1.54833 0
M  V30 1247 O 118.394 0.537253 -1.8308 0
M  V30 1248 C 115.534 0.520623 -3.4115 0
M  V30 1249 C 114.647 -0.394989 -4.3019 0
M  V30 1250 C 113.782 0.426834 -5.29482 0
M  V30 1251 C 112.821 -0.486476 -6.10164 0
M  V30 1252 N 111.958 0.297879 -7.01468 0
M  V30 1253 H 116.798 -1.11519 -2.76347 0
M  V30 1254 H 114.335 -0.56138 -1.35967 0
M  V30 1255 H 116.293 1.00563 -4.04899 0
M  V30 1256 H 114.923 1.31165 -2.9495 0
M  V30 1257 H 113.975 -0.99836 -3.67065 0
M  V30 1258 H 115.287 -1.09612 -4.86607 0
M  V30 1259 H 114.441 0.975205 -5.98811 0
M  V30 1260 H 113.18 1.16136 -4.73671 0
M  V30 1261 H 112.185 -1.04677 -5.39743 0
M  V30 1262 H 113.41 -1.21953 -6.6806 0
M  V30 1263 H 111.356 1.01558 -6.48091 0
M  V30 1264 H 111.273 -0.344318 -7.55216 0
M  V30 1265 H 112.541 0.828131 -7.75089 0
M  V30 1266 N 116.77 1.45427 -0.607355 0
M  V30 1267 C 118.016 2.0254 -0.102607 0
M  V30 1268 C 118.349 1.47478 1.26348 0
M  V30 1269 O 117.624 0.64939 1.83339 0
M  V30 1270 C 117.907 3.60044 -0.0634347 0
M  V30 1271 C 117.76 4.2544 -1.46017 0
M  V30 1272 C 119.079 4.35646 0.624514 0
M  V30 1273 H 116.198 0.73598 -0.0387607 0
M  V30 1274 H 118.84 1.73284 -0.779282 0
M  V30 1275 H 116.99 3.85101 0.512808 0
M  V30 1276 H 118.662 4.11569 -2.08347 0
M  V30 1277 H 116.905 3.83849 -2.02094 0
M  V30 1278 H 117.576 5.34342 -1.385 0
M  V30 1279 H 120.052 4.15882 0.134723 0
M  V30 1280 H 118.928 5.45376 0.621028 0
M  V30 1281 H 119.189 4.08501 1.69055 0
M  V30 1282 N 118.248 0.346503 1.53744 0
M  V30 1283 C 119.495 -0.249104 2.00962 0
M  V30 1284 C 119.823 -1.5032 1.23426 0
M  V30 1285 O 119.078 -1.93217 0.310761 0
M  V30 1286 C 119.377 -0.605809 3.52228 0
M  V30 1287 C 119.043 0.551747 4.47512 0
M  V30 1288 C 117.705 0.86941 4.73281 0
M  V30 1289 C 120.057 1.32818 5.03993 0
M  V30 1290 C 117.385 1.96582 5.52786 0
M  V30 1291 C 119.737 2.41486 5.84694 0
M  V30 1292 C 118.401 2.73808 6.08757 0
M  V30 1293 H 117.671 -0.0911538 0.735372 0
M  V30 1294 H 120.318 0.475027 1.85515 0
M  V30 1295 H 118.623 -1.4107 3.65522 0
M  V30 1296 H 120.32 -1.07858 3.86222 0
M  V30 1297 H 116.91 0.294102 4.2759 0
M  V30 1298 H 121.094 1.09602 4.84047 0
M  V30 1299 H 116.35 2.22045 5.69654 0
M  V30 1300 H 120.524 3.02078 6.27473 0
M  V30 1301 H 118.151 3.58892 6.7015 0
M  V30 1302 N 119.726 -1.57421 0.075193 0
M  V30 1303 C 120.636 -2.1642 -0.905511 0
M  V30 1304 C 121.652 -1.12828 -1.32461 0
M  V30 1305 O 122.828 -1.45109 -1.39661 0
M  V30 1306 C 119.893 -2.71693 -2.15369 0
M  V30 1307 C 118.954 -3.90171 -1.79068 0
M  V30 1308 C 118.187 -4.42798 -2.97936 0
M  V30 1309 O 118.41 -3.94416 -4.12058 0
M  V30 1310 O 117.344 -5.34085 -2.77555 0
M  V30 1311 H 121.17 -3.00588 -0.433626 0
M  V30 1312 H 118.755 -1.48664 -0.148067 0
M  V30 1313 H 120.637 -3.07104 -2.88557 0
M  V30 1314 H 119.312 -1.90582 -2.61649 0
M  V30 1315 H 118.219 -3.59606 -1.03122 0
M  V30 1316 H 119.552 -4.72584 -1.37569 0
M  V30 1317 N 121.204 0.198386 -1.56346 0
M  V30 1318 C 122.453 0.917451 -1.79627 0
M  V30 1319 C 122.766 1.8456 -0.64784 0
M  V30 1320 O 123.972 2.60504 -0.764859 0
M  V30 1321 C 122.428 1.68175 -3.18191 0
M  V30 1322 C 122.036 0.798589 -4.40825 0
M  V30 1323 C 123.78 2.39065 -3.50782 0
M  V30 1324 C 121.687 1.56157 -5.70411 0
M  V30 1325 H 120.617 0.346317 -0.669762 0
M  V30 1326 H 123.268 0.170801 -1.82703 0
M  V30 1327 H 121.65 2.47216 -3.09354 0
M  V30 1328 H 122.824 0.0470665 -4.60776 0
M  V30 1329 H 121.139 0.200686 -4.15916 0
M  V30 1330 H 123.736 2.96692 -4.44835 0
M  V30 1331 H 124.079 3.13091 -2.74371 0
M  V30 1332 H 124.612 1.66993 -3.61052 0
M  V30 1333 H 121.351 0.864142 -6.49779 0
M  V30 1334 H 120.871 2.2871 -5.54483 0
M  V30 1335 H 122.55 2.11622 -6.11412 0
M  V30 1336 N 122.682 1.50554 0.465978 0
M  V30 1337 C 123.612 1.72722 1.57128 0
M  V30 1338 C 124.593 0.576294 1.6004 0
M  V30 1339 O 125.778 0.81598 1.76225 0
M  V30 1340 C 122.908 1.82605 2.95419 0
M  V30 1341 C 121.862 2.97835 3.07373 0
M  V30 1342 C 121.188 2.92867 4.47363 0
M  V30 1343 C 122.488 4.38265 2.84114 0
M  V30 1344 H 124.182 2.65267 1.38829 0
M  V30 1345 H 121.728 1.2765 0.666441 0
M  V30 1346 H 123.681 1.96698 3.72677 0
M  V30 1347 H 122.405 0.866858 3.14886 0
M  V30 1348 H 121.064 2.83401 2.3255 0
M  V30 1349 H 120.712 1.94783 4.63755 0
M  V30 1350 H 120.412 3.70227 4.56296 0
M  V30 1351 H 121.936 3.09015 5.26633 0
M  V30 1352 H 123.35 4.53198 3.51118 0
M  V30 1353 H 121.747 5.17115 3.04487 0
M  V30 1354 H 122.817 4.50281 1.7993 0
M  V30 1355 N 124.16 -0.719506 1.40217 0
M  V30 1356 C 125.408 -1.47641 1.3801 0
M  V30 1357 C 125.729 -1.94992 -0.018145 0
M  V30 1358 O 124.999 -1.70073 -0.972207 0
M  V30 1359 H 123.579 -0.547744 0.507923 0
M  V30 1360 H 126.241 -0.853187 1.75233 0
M  V30 1361 H 125.337 -2.35112 2.05253 0
M  V30 1362 N 125.638 -1.25649 -0.95132 0
M  V30 1363 C 127.049 -1.09654 -1.51106 0
M  V30 1364 C 127.4 0.326615 -1.93462 0
M  V30 1365 O 126.525 1.21697 -1.78938 0
M  V30 1366 C 127.12 -1.98437 -2.74605 0
M  V30 1367 C 125.679 -1.86618 -3.2688 0
M  V30 1368 C 124.826 -1.9239 -1.99703 0
M  V30 1369 H 127.777 -1.38887 -0.767865 0
M  V30 1370 H 127.798 -1.5263 -3.48546 0
M  V30 1371 H 127.31 -3.02009 -2.43746 0
M  V30 1372 H 125.411 -0.859421 -3.62553 0
M  V30 1373 H 125.524 -2.71607 -3.94673 0
M  V30 1374 H 123.888 -1.36317 -2.15151 0
M  V30 1375 H 124.671 -2.97573 -1.71188 0
M  V30 1376 N 127.117 1.15442 -1.07289 0
M  V30 1377 C 128.342 1.90638 -0.816828 0
M  V30 1378 C 128.767 1.77445 0.624083 0
M  V30 1379 O 128.125 1.10671 1.43602 0
M  V30 1380 C 128.173 3.39008 -1.22906 0
M  V30 1381 O 127.277 4.10701 -0.373975 0
M  V30 1382 H 126.618 0.593555 -0.297638 0
M  V30 1383 H 129.148 1.46198 -1.43134 0
M  V30 1384 H 129.158 3.89801 -1.20497 0
M  V30 1385 H 127.833 3.47929 -2.27856 0
M  V30 1386 H 126.41 3.70046 -0.460499 0
M  V30 1387 N 128.595 0.856903 1.32268 0
M  V30 1388 C 129.843 0.460474 1.96784 0
M  V30 1389 C 130.164 -0.987701 1.68135 0
M  V30 1390 O 129.434 -1.69058 0.989765 0
M  V30 1391 H 128.014 0.167289 0.728027 0
M  V30 1392 H 130.676 1.09383 1.61312 0
M  V30 1393 H 129.772 0.60739 3.06133 0
M  V30 1394 N 130.073 -1.45103 0.615059 0
M  V30 1395 C 131.298 -2.07064 0.117988 0
M  V30 1396 C 131.723 -1.4554 -1.19163 0
M  V30 1397 O 131.081 -0.550855 -1.72729 0
M  V30 1398 C 131.129 -3.606 -0.000288387 0
M  V30 1399 O 130.233 -3.98847 -1.04856 0
M  V30 1400 H 129.574 -0.659467 0.0774581 0
M  V30 1401 H 132.104 -1.86236 0.847186 0
M  V30 1402 H 132.114 -4.07529 -0.196091 0
M  V30 1403 H 130.789 -4.04765 0.955932 0
M  V30 1404 H 129.366 -3.63577 -0.828619 0
M  V30 1405 N 131.551 -0.354651 -1.53558 0
M  V30 1406 C 132.483 0.5315 -2.22952 0
M  V30 1407 C 133.496 1.05503 -1.23988 0
M  V30 1408 O 134.685 0.963279 -1.50277 0
M  V30 1409 C 131.785 1.74538 -2.90499 0
M  V30 1410 C 130.958 1.35524 -4.15875 0
M  V30 1411 C 130.017 2.42999 -4.66731 0
M  V30 1412 O 129.043 2.05844 -5.30676 0
M  V30 1413 N 130.245 3.74423 -4.43608 0
M  V30 1414 H 133.01 -0.0628615 -2.99634 0
M  V30 1415 H 130.571 -0.179302 -1.60904 0
M  V30 1416 H 132.563 2.45892 -3.21433 0
M  V30 1417 H 131.133 2.24686 -2.17336 0
M  V30 1418 H 130.353 0.471998 -3.91364 0
M  V30 1419 H 131.641 1.07071 -4.97406 0
M  V30 1420 H 131.039 4.07391 -3.92491 0
M  V30 1421 H 129.596 4.41913 -4.7912 0
M  V30 1422 N 133.029 1.57378 -0.0835403 0
M  V30 1423 C 133.959 2.1641 0.87686 0
M  V30 1424 C 134.94 1.09429 1.30228 0
M  V30 1425 O 136.125 1.37516 1.37124 0
M  V30 1426 C 133.255 2.73517 2.14022 0
M  V30 1427 C 132.209 3.85769 1.85381 0
M  V30 1428 C 131.535 4.29529 3.18448 0
M  V30 1429 C 132.835 5.09486 1.14984 0
M  V30 1430 H 134.529 2.96914 0.385059 0
M  V30 1431 H 132.075 1.42823 0.18377 0
M  V30 1432 H 134.028 3.13463 2.81636 0
M  V30 1433 H 132.752 1.90252 2.65465 0
M  V30 1434 H 131.411 3.46345 1.20169 0
M  V30 1435 H 131.059 3.43169 3.67755 0
M  V30 1436 H 130.759 5.05204 3.00071 0
M  V30 1437 H 132.283 4.72099 3.8724 0
M  V30 1438 H 133.697 5.46674 1.72687 0
M  V30 1439 H 132.094 5.90515 1.06826 0
M  V30 1440 H 133.164 4.84724 0.130749 0
M  V30 1441 N 134.507 -0.190092 1.56449 0
M  V30 1442 C 135.735 -0.925772 1.85033 0
M  V30 1443 C 136.15 -1.76638 0.666658 0
M  V30 1444 O 135.507 -1.78822 -0.364565 0
M  V30 1445 C 135.558 -1.81786 3.12468 0
M  V30 1446 O 135.279 -1.01118 4.26271 0
M  V30 1447 C 136.78 -2.6648 3.54265 0
M  V30 1448 H 134 -0.269872 0.614337 0
M  V30 1449 H 136.544 -0.195837 2.0356 0
M  V30 1450 H 134.699 -2.50136 2.95822 0
M  V30 1451 H 135.113 -1.61956 4.98869 0
M  V30 1452 H 136.587 -3.24722 4.46385 0
M  V30 1453 H 137.064 -3.40434 2.77491 0
M  V30 1454 H 137.67 -2.03493 3.73458 0
M  V30 1455 N 135.985 -1.50799 -0.457987 0
M  V30 1456 C 137.262 -1.52968 -1.21902 0
M  V30 1457 C 137.642 -0.281906 -2.09209 0
M  V30 1458 O 136.99 0.734076 -2.16388 0
M  V30 1459 C 137.2 -2.8326 -2.03875 0
M  V30 1460 C 138.548 -3.34425 -2.6162 0
M  V30 1461 O 139.572 -2.8467 -2.14106 0
M  V30 1462 O 138.431 -4.21188 -3.48228 0
M  V30 1463 H 135.525 -0.614129 -0.553873 0
M  V30 1464 H 138.071 -1.63098 -0.468739 0
M  V30 1465 H 136.843 -3.65543 -1.39621 0
M  V30 1466 H 136.466 -2.76195 -2.8601 0
M  V30 1467 N 137.463 0.71206 -1.40597 0
M  V30 1468 C 138.74 1.46536 -1.29563 0
M  V30 1469 C 139.12 2.10931 0.0844217 0
M  V30 1470 O 138.468 2.00418 1.0975 0
M  V30 1471 C 138.678 2.49821 -2.43701 0
M  V30 1472 C 140.026 3.15551 -2.841 0
M  V30 1473 O 141.05 2.60142 -2.4332 0
M  V30 1474 O 139.909 4.15867 -3.54566 0
M  V30 1475 H 137.003 0.651801 -0.509004 0
M  V30 1476 H 139.549 0.743935 -1.52524 0
M  V30 1477 H 138.321 2.00778 -3.35863 0
M  V30 1478 H 137.944 3.29495 -2.22528 0
M  V30 1479 N 138.941 1.26152 0.944643 0
M  V30 1480 C 140.187 1.11657 1.69294 0
M  V30 1481 C 140.52 -0.339926 1.91202 0
M  V30 1482 O 139.795 -1.24994 1.49019 0
M  V30 1483 C 140.078 1.88236 3.06984 0
M  V30 1484 C 139.931 3.41772 2.92424 0
M  V30 1485 C 141.25 1.67343 4.07043 0
M  V30 1486 H 138.369 0.407004 0.614424 0
M  V30 1487 H 141.011 1.55106 1.09737 0
M  V30 1488 H 139.161 1.51308 3.57824 0
M  V30 1489 H 140.833 3.88433 2.48832 0
M  V30 1490 H 139.076 3.68974 2.28124 0
M  V30 1491 H 139.747 3.90579 3.90067 0
M  V30 1492 H 142.223 1.99509 3.65151 0
M  V30 1493 H 141.099 2.23346 5.01406 0
M  V30 1494 H 141.36 0.617158 4.37771 0
M  V30 1495 N 140.419 -1.14872 1.07899 0
M  V30 1496 C 141.667 -1.85422 0.803941 0
M  V30 1497 C 141.988 -1.83051 -0.67211 0
M  V30 1498 O 141.258 -1.27532 -1.48703 0
M  V30 1499 H 139.838 -0.686537 0.294408 0
M  V30 1500 H 142.5 -1.39226 1.3639 0
M  V30 1501 H 141.596 -2.90399 1.14346 0
M  V30 1502 N 141.898 -0.863906 -1.31812 0
M  V30 1503 C 143.123 -0.48527 -2.01643 0
M  V30 1504 C 143.548 0.913058 -1.64453 0
M  V30 1505 O 142.906 1.6014 -0.849985 0
M  V30 1506 C 142.954 -0.642625 -3.54828 0
M  V30 1507 O 142.058 0.320659 -4.11151 0
M  V30 1508 H 141.399 -0.193793 -0.635091 0
M  V30 1509 H 143.929 -1.16565 -1.68148 0
M  V30 1510 H 143.939 -0.533628 -4.04495 0
M  V30 1511 H 142.614 -1.66227 -3.81237 0
M  V30 1512 H 141.191 0.167126 -3.72525 0
M  V30 1513 N 143.376 1.44774 -0.622745 0
M  V30 1514 C 144.306 2.33382 0.0741861 0
M  V30 1515 C 145.287 1.47719 0.843387 0
M  V30 1516 O 146.472 1.76458 0.810934 0
M  V30 1517 C 143.602 3.30663 1.06204 0
M  V30 1518 C 142.556 4.26079 0.405037 0
M  V30 1519 C 141.882 5.13165 1.5022 0
M  V30 1520 C 143.182 5.1781 -0.683414 0
M  V30 1521 H 144.876 2.91905 -0.665713 0
M  V30 1522 H 142.422 1.40363 -0.321587 0
M  V30 1523 H 144.375 3.9153 1.55827 0
M  V30 1524 H 143.099 2.70331 1.83272 0
M  V30 1525 H 141.758 3.66532 -0.0704683 0
M  V30 1526 H 141.406 4.49191 2.26355 0
M  V30 1527 H 141.106 5.77812 1.06803 0
M  V30 1528 H 142.63 5.76902 2.00041 0
M  V30 1529 H 144.044 5.72661 -0.270631 0
M  V30 1530 H 142.441 5.91015 -1.04023 0
M  V30 1531 H 143.511 4.59326 -1.55395 0
M  V30 1532 N 144.854 0.36279 1.53368 0
M  V30 1533 C 146.082 -0.228613 2.05633 0
M  V30 1534 C 146.497 -1.42676 1.23649 0
M  V30 1535 O 145.854 -1.80394 0.27647 0
M  V30 1536 C 145.905 -0.624845 3.56059 0
M  V30 1537 O 145.626 0.525675 4.34935 0
M  V30 1538 C 147.127 -1.27493 4.24571 0
M  V30 1539 H 144.347 -0.0407183 0.669763 0
M  V30 1540 H 146.891 0.520352 1.97769 0
M  V30 1541 H 145.046 -1.32373 3.64083 0
M  V30 1542 H 145.46 0.205969 5.24095 0
M  V30 1543 H 146.934 -1.50277 5.31151 0
M  V30 1544 H 147.411 -2.23439 3.78116 0
M  V30 1545 H 148.017 -0.617558 4.20792 0
M  V30 1546 N 146.332 -1.57332 0.0918853 0
M  V30 1547 C 147.242 -2.17368 -0.882505 0
M  V30 1548 C 148.258 -1.14226 -1.31257 0
M  V30 1549 O 149.434 -1.46582 -1.38115 0
M  V30 1550 C 146.499 -2.73962 -2.12476 0
M  V30 1551 C 145.56 -3.92048 -1.7492 0
M  V30 1552 C 144.793 -4.45933 -2.93223 0
M  V30 1553 O 145.016 -3.98764 -4.07852 0
M  V30 1554 O 143.95 -5.36999 -2.71875 0
M  V30 1555 H 147.776 -3.01031 -0.40172 0
M  V30 1556 H 145.361 -1.48813 -0.132291 0
M  V30 1557 H 147.243 -3.10147 -2.85283 0
M  V30 1558 H 145.918 -1.93347 -2.59613 0
M  V30 1559 H 144.825 -3.6068 -0.993025 0
M  V30 1560 H 146.158 -4.74017 -1.32548 0
M  V30 1561 N 147.81 0.181792 -1.56548 0
M  V30 1562 C 148.74 1.22765 -1.98623 0
M  V30 1563 C 149.721 1.46747 -0.860189 0
M  V30 1564 O 150.906 1.58259 -1.12551 0
M  V30 1565 C 148.036 2.56894 -2.33715 0
M  V30 1566 C 146.99 2.475 -3.49182 0
M  V30 1567 C 146.316 3.86023 -3.69986 0
M  V30 1568 C 147.616 1.98866 -4.82959 0
M  V30 1569 H 149.31 0.877942 -2.86239 0
M  V30 1570 H 146.856 0.42088 -1.37712 0
M  V30 1571 H 148.809 3.30253 -2.61746 0
M  V30 1572 H 147.533 2.93632 -1.42997 0
M  V30 1573 H 146.192 1.76596 -3.21262 0
M  V30 1574 H 145.84 4.20136 -2.76576 0
M  V30 1575 H 145.54 3.80609 -4.47672 0
M  V30 1576 H 147.064 4.60984 -4.00407 0
M  V30 1577 H 148.478 2.61992 -5.09934 0
M  V30 1578 H 146.875 2.04424 -5.64208 0
M  V30 1579 H 147.945 0.942465 -4.75653 0
M  V30 1580 N 149.288 1.51039 0.449983 0
M  V30 1581 C 150.236 1.71995 1.5659 0
M  V30 1582 C 151.23 0.586029 1.5894 0
M  V30 1583 O 152.436 0.76709 1.62837 0
M  V30 1584 H 148.811 0.543233 0.520001 0
M  V30 1585 H 150.782 2.65562 1.36085 0
M  V30 1586 C 149.531 1.8506 2.9436 0
M  V30 1587 H 148.854 2.71712 2.93279 0
M  V30 1588 H 150.294 2.0374 3.71842 0
M  V30 1589 C 148.753 0.607277 3.31382 0
M  V30 1590 O 149.283 -0.243903 4.00959 0
M  V30 1591 N 147.489 0.455073 2.87015 0
M  V30 1592 H 147.036 1.14879 2.30566 0
M  V30 1593 H 146.994 -0.375611 3.12148 0
M  V30 1594 N 150.766 -0.704594 1.40972 0
M  V30 1595 C 151.991 -1.49858 1.43378 0
M  V30 1596 C 152.416 -1.88061 0.038184 0
M  V30 1597 O 151.774 -1.5402 -0.956425 0
M  V30 1598 C 151.822 -2.74333 2.34038 0
M  V30 1599 O 150.926 -3.7147 1.7912 0
M  V30 1600 H 150.267 -0.45139 0.486974 0
M  V30 1601 H 152.797 -0.866832 1.8533 0
M  V30 1602 H 152.807 -3.22741 2.49604 0
M  V30 1603 H 151.482 -2.45863 3.35446 0
M  V30 1604 H 150.059 -3.30363 1.72958 0
M  V30 1605 N 152.244 -1.26651 -0.937939 0
M  V30 1606 C 153.49 -1.12553 -1.687 0
M  V30 1607 C 153.823 0.329782 -1.91379 0
M  V30 1608 O 153.098 1.24202 -1.4968 0
M  V30 1609 C 153.381 -1.89862 -3.05981 0
M  V30 1610 C 153.234 -3.43318 -2.90607 0
M  V30 1611 C 154.553 -1.69499 -4.0615 0
M  V30 1612 H 151.672 -0.410257 -0.612257 0
M  V30 1613 H 154.314 -1.55685 -1.08913 0
M  V30 1614 H 152.464 -1.53204 -3.57017 0
M  V30 1615 H 154.136 -3.89747 -2.46769 0
M  V30 1616 H 152.379 -3.70179 -2.26164 0
M  V30 1617 H 153.05 -3.92642 -3.8799 0
M  V30 1618 H 155.526 -2.01442 -3.64088 0
M  V30 1619 H 154.402 -2.26002 -5.00214 0
M  V30 1620 H 154.663 -0.640365 -4.37438 0
M  V30 1621 N 153.722 1.14298 -1.08507 0
M  V30 1622 C 154.952 1.88945 -0.835663 0
M  V30 1623 C 155.36 1.78894 0.615928 0
M  V30 1624 O 154.703 1.1468 1.43506 0
M  V30 1625 C 154.765 3.39585 -1.17994 0
M  V30 1626 C 154.429 3.7342 -2.63451 0
M  V30 1627 C 155.426 3.73454 -3.61702 0
M  V30 1628 C 153.111 4.03368 -2.99332 0
M  V30 1629 C 155.105 4.02961 -4.93864 0
M  V30 1630 C 152.792 4.32538 -4.31687 0
M  V30 1631 C 153.79 4.32318 -5.28763 0
M  V30 1632 O 153.478 4.6078 -6.58739 0
M  V30 1633 H 153.21 0.605307 -0.300965 0
M  V30 1634 H 155.764 1.45673 -1.44806 0
M  V30 1635 H 153.994 3.83315 -0.51055 0
M  V30 1636 H 155.683 3.9554 -0.911182 0
M  V30 1637 H 156.449 3.50403 -3.35325 0
M  V30 1638 H 152.328 4.02692 -2.24411 0
M  V30 1639 H 155.872 4.02704 -5.69627 0
M  V30 1640 H 151.769 4.55059 -4.57812 0
M  V30 1641 H 152.537 4.78492 -6.64069 0
M  V30 1642 N 155.201 0.870884 1.31352 0
M  V30 1643 C 156.45 0.478408 1.95944 0
M  V30 1644 C 156.763 -0.974493 1.69597 0
M  V30 1645 O 157.969 -1.47316 2.28058 0
M  V30 1646 C 156.425 0.804609 3.50791 0
M  V30 1647 C 156.033 2.27433 3.85977 0
M  V30 1648 C 157.777 0.480648 4.2177 0
M  V30 1649 C 155.684 2.5429 5.33939 0
M  V30 1650 H 154.614 0.175175 0.733369 0
M  V30 1651 H 157.265 1.06391 1.4951 0
M  V30 1652 H 155.647 0.148347 3.95722 0
M  V30 1653 H 156.821 2.97373 3.52002 0
M  V30 1654 H 155.136 2.56442 3.28065 0
M  V30 1655 H 157.733 0.658519 5.30629 0
M  V30 1656 H 158.076 -0.578979 4.12254 0
M  V30 1657 H 158.609 1.09349 3.82476 0
M  V30 1658 H 155.348 3.58939 5.48491 0
M  V30 1659 H 154.868 1.88945 5.69263 0
M  V30 1660 H 156.547 2.39066 6.01212 0
M  V30 1661 N 156.679 -1.44442 0.630414 0
M  V30 1662 C 157.925 -2.02351 0.134816 0
M  V30 1663 C 158.258 -1.4947 -1.23986 0
M  V30 1664 O 157.533 -0.678475 -1.82283 0
M  V30 1665 C 157.816 -3.59898 0.120707 0
M  V30 1666 C 157.669 -4.23063 1.52767 0
M  V30 1667 C 158.988 -4.36585 -0.555127 0
M  V30 1668 H 156.107 -0.73527 0.0504646 0
M  V30 1669 H 158.749 -1.72022 0.806751 0
M  V30 1670 H 156.899 -3.85868 -0.451477 0
M  V30 1671 H 158.571 -4.08202 2.14869 0
M  V30 1672 H 156.814 -3.80586 2.08175 0
M  V30 1673 H 157.485 -5.32071 1.46984 0
M  V30 1674 H 159.961 -4.16044 -0.0685429 0
M  V30 1675 H 158.837 -5.46294 -0.534185 0
M  V30 1676 H 159.098 -4.11138 -1.62535 0
M  V30 1677 N 158.157 -0.370918 -1.53173 0
M  V30 1678 C 159.089 0.507823 -2.23503 0
M  V30 1679 C 160.102 1.04182 -1.251 0
M  V30 1680 O 161.291 0.947286 -1.5129 0
M  V30 1681 C 158.391 1.71447 -2.92334 0
M  V30 1682 C 157.564 1.31105 -4.17289 0
M  V30 1683 C 156.623 2.38035 -4.69282 0
M  V30 1684 O 155.649 2.00204 -5.32829 0
M  V30 1685 N 156.851 3.69697 -4.47554 0
M  V30 1686 H 159.616 -0.0946382 -2.99551 0
M  V30 1687 H 157.177 -0.196358 -1.60705 0
M  V30 1688 H 159.169 2.42469 -3.24023 0
M  V30 1689 H 157.739 2.22368 -2.19707 0
M  V30 1690 H 156.959 0.430462 -3.91843 0
M  V30 1691 H 158.247 1.0179 -4.98514 0
M  V30 1692 H 157.645 4.03205 -3.9679 0
M  V30 1693 H 156.202 4.36807 -4.8378 0
M  V30 1694 N 159.635 1.57281 -0.100228 0
M  V30 1695 C 160.545 2.17833 0.870965 0
M  V30 1696 C 161.561 1.14921 1.30649 0
M  V30 1697 O 162.737 1.47313 1.37335 0
M  V30 1698 C 159.802 2.75085 2.1102 0
M  V30 1699 C 158.863 3.9297 1.72838 0
M  V30 1700 C 158.096 4.47482 2.90854 0
M  V30 1701 O 158.319 4.00922 4.05731 0
M  V30 1702 O 157.253 5.38433 2.69023 0
M  V30 1703 H 161.079 3.0124 0.38575 0
M  V30 1704 H 158.664 1.48881 0.124397 0
M  V30 1705 H 160.546 3.11656 2.83634 0
M  V30 1706 H 159.221 1.94721 2.58584 0
M  V30 1707 H 158.128 3.61201 0.973883 0
M  V30 1708 H 159.461 4.74713 1.30033 0
M  V30 1709 N 161.113 -0.173488 1.56642 0
M  V30 1710 C 162.343 -0.904781 1.85734 0
M  V30 1711 C 162.751 -1.76431 0.68328 0
M  V30 1712 O 162.094 -1.802 -0.356865 0
M  V30 1713 C 162.156 -1.83382 3.09211 0
M  V30 1714 C 161.82 -1.15411 4.42187 0
M  V30 1715 C 162.817 -0.520609 5.17287 0
M  V30 1716 C 160.502 -1.15151 4.88923 0
M  V30 1717 C 162.496 0.106412 6.37311 0
M  V30 1718 C 160.183 -0.520664 6.08878 0
M  V30 1719 C 161.181 0.107196 6.82916 0
M  V30 1720 O 160.869 0.728102 8.00596 0
M  V30 1721 H 160.601 -0.268408 0.62043 0
M  V30 1722 H 163.155 -0.179096 2.04618 0
M  V30 1723 H 161.385 -2.59976 2.86268 0
M  V30 1724 H 163.074 -2.43476 3.24768 0
M  V30 1725 H 163.84 -0.514606 4.82262 0
M  V30 1726 H 159.719 -1.62961 4.31236 0
M  V30 1727 H 163.263 0.597081 6.9504 0
M  V30 1728 H 159.16 -0.524242 6.43368 0
M  V30 1729 H 159.928 0.627138 8.16094 0
M  V30 1730 N 162.591 -1.51276 -0.441967 0
M  V30 1731 C 163.524 -1.66933 -1.55591 0
M  V30 1732 C 164.502 -0.516958 -1.54163 0
M  V30 1733 O 165.686 -0.740209 -1.73358 0
M  V30 1734 C 162.813 -1.67866 -2.94174 0
M  V30 1735 C 161.859 -2.89013 -3.13646 0
M  V30 1736 S 162.692 -4.49897 -2.90436 0
M  V30 1737 C 163.848 -4.53568 -4.31308 0
M  V30 1738 H 164.081 -2.61155 -1.42076 0
M  V30 1739 H 161.614 -1.40902 -0.631341 0
M  V30 1740 H 163.572 -1.69089 -3.74058 0
M  V30 1741 H 162.233 -0.748296 -3.05056 0
M  V30 1742 H 161.426 -2.86054 -4.14957 0
M  V30 1743 H 161.028 -2.85509 -2.4158 0
M  V30 1744 H 163.32 -4.28924 -5.24434 0
M  V30 1745 H 164.263 -5.55355 -4.39303 0
M  V30 1746 H 164.671 -3.82943 -4.14747 0
M  V30 1747 N 164.069 0.697108 -1.41344 0
M  V30 1748 C 164.979 1.84088 -1.45427 0
M  V30 1749 C 165.995 1.70545 -0.34501 0
M  V30 1750 O 167.171 1.92488 -0.592492 0
M  V30 1751 C 164.236 3.20056 -1.33286 0
M  V30 1752 C 163.297 3.45718 -2.54514 0
M  V30 1753 C 162.53 4.75199 -2.42944 0
M  V30 1754 O 162.753 5.51579 -1.45318 0
M  V30 1755 O 161.687 5.0161 -3.32672 0
M  V30 1756 H 165.513 1.836 -2.41919 0
M  V30 1757 H 163.098 0.849966 -1.22866 0
M  V30 1758 H 164.98 4.01236 -1.28794 0
M  V30 1759 H 163.655 3.2123 -0.39909 0
M  V30 1760 H 162.562 2.64474 -2.64583 0
M  V30 1761 H 163.895 3.49356 -3.46715 0
M  V30 1762 N 165.547 1.27147 0.931209 0
M  V30 1763 C 166.775 1.16082 1.71267 0
M  V30 1764 C 167.19 -0.282772 1.8667 0
M  V30 1765 O 166.547 -1.19283 1.38122 0
M  V30 1766 C 166.598 1.8358 3.11417 0
M  V30 1767 O 166.319 3.22299 2.96741 0
M  V30 1768 C 167.82 1.78597 4.05732 0
M  V30 1769 H 165.04 0.403758 0.535929 0
M  V30 1770 H 167.584 1.67953 1.16671 0
M  V30 1771 H 165.739 1.35623 3.62885 0
M  V30 1772 H 166.153 3.55851 3.85319 0
M  V30 1773 H 167.627 2.30444 5.01597 0
M  V30 1774 H 168.104 0.754564 4.3267 0
M  V30 1775 H 168.71 2.26152 3.60188 0
M  V30 1776 N 167.025 -1.13721 1.09112 0
M  V30 1777 C 168.302 -1.81155 0.737706 0
M  V30 1778 C 168.682 -1.96253 -0.777683 0
M  V30 1779 O 168.03 -1.52807 -1.69889 0
M  V30 1780 C 168.24 -3.16392 1.47299 0
M  V30 1781 C 169.588 -3.91787 1.63671 0
M  V30 1782 O 170.612 -3.26005 1.43524 0
M  V30 1783 O 169.471 -5.0977 1.96969 0
M  V30 1784 H 166.565 -0.783518 0.26463 0
M  V30 1785 H 169.111 -1.20676 1.19312 0
M  V30 1786 H 167.883 -3.0061 2.50498 0
M  V30 1787 H 167.506 -3.8457 1.00953 0
M  V30 1788 N 168.503 -0.877838 -1.30888 0
M  V30 1789 C 169.433 -0.35534 -2.3078 0
M  V30 1790 C 170.414 0.557994 -1.60687 0
M  V30 1791 O 171.599 0.473355 -1.88343 0
M  V30 1792 C 168.729 0.437221 -3.44537 0
M  V30 1793 C 167.683 -0.383715 -4.26276 0
M  V30 1794 C 167.009 0.535014 -5.32017 0
M  V30 1795 C 168.309 -1.62201 -4.96476 0
M  V30 1796 H 170.003 -1.19007 -2.74732 0
M  V30 1797 H 167.549 -0.573698 -1.32078 0
M  V30 1798 H 169.502 0.813334 -4.13477 0
M  V30 1799 H 168.226 1.30553 -2.99372 0
M  V30 1800 H 166.885 -0.741874 -3.59015 0
M  V30 1801 H 166.533 1.40083 -4.831 0
M  V30 1802 H 166.233 -0.0104211 -5.87599 0
M  V30 1803 H 167.757 0.907799 -6.03814 0
M  V30 1804 H 169.171 -1.31689 -5.5797 0
M  V30 1805 H 167.568 -2.10711 -5.61891 0
M  V30 1806 H 168.638 -2.37044 -4.23011 0
M  V30 1807 N 169.982 1.44106 -0.638065 0
M  V30 1808 C 170.945 2.29138 0.0531013 0
M  V30 1809 C 171.945 1.41409 0.765506 0
M  V30 1810 O 173.135 1.63206 0.609046 0
M  V30 1811 C 170.267 3.23144 1.08584 0
M  V30 1812 H 171.46 2.91739 -0.694883 0
M  V30 1813 H 169.013 1.51134 -0.398538 0
M  V30 1814 H 169.748 2.65408 1.86357 0
M  V30 1815 H 169.533 3.87804 0.578852 0
M  V30 1816 H 171.023 3.87004 1.56899 0
M  V30 1817 N 171.46 0.379036 1.52974 0
M  V30 1818 C 172.408 -0.476033 2.27677 0
M  V30 1819 C 173.402 -1.0719 1.31174 0
M  V30 1820 O 174.608 -1.01355 1.48752 0
M  V30 1821 H 170.983 -0.172255 0.732006 0
M  V30 1822 H 172.954 0.175615 2.97883 0
M  V30 1823 C 171.703 -1.5967 3.0887 0
M  V30 1824 H 171.026 -1.1475 3.82978 0
M  V30 1825 H 172.466 -2.16943 3.64296 0
M  V30 1826 C 170.925 -2.54682 2.20542 0
M  V30 1827 O 171.455 -3.57836 1.82527 0
M  V30 1828 N 169.661 -2.24183 1.84907 0
M  V30 1829 H 169.208 -1.40333 2.1602 0
M  V30 1830 H 169.166 -2.88006 1.26096 0
M  V30 1831 N 172.938 -1.57226 0.108567 0
M  V30 1832 C 174.184 -1.95121 -0.552761 0
M  V30 1833 C 174.517 -0.991345 -1.66991 0
M  V30 1834 O 173.792 -0.0267211 -1.94482 0
M  V30 1835 C 174.075 -3.43039 -1.09528 0
M  V30 1836 C 173.928 -4.49797 0.0177332 0
M  V30 1837 C 175.247 -3.92567 -1.98945 0
M  V30 1838 H 172.366 -0.709496 -0.199461 0
M  V30 1839 H 175.008 -1.89126 0.182011 0
M  V30 1840 H 173.158 -3.48279 -1.72146 0
M  V30 1841 H 174.83 -4.56661 0.652584 0
M  V30 1842 H 173.073 -4.284 0.682309 0
M  V30 1843 H 173.744 -5.50528 -0.402919 0
M  V30 1844 H 176.22 -3.89565 -1.46214 0
M  V30 1845 H 175.096 -4.96605 -2.33827 0
M  V30 1846 H 175.357 -3.32648 -2.91201 0
M  V30 1847 N 174.416 0.165178 -1.56732 0
M  V30 1848 C 175.346 1.20651 -1.99914 0
M  V30 1849 C 176.327 1.45827 -0.875705 0
M  V30 1850 O 177.512 1.57057 -1.14223 0
M  V30 1851 C 174.642 2.54401 -2.36427 0
M  V30 1852 C 173.596 2.43782 -3.51787 0
M  V30 1853 C 172.922 3.82078 -3.7406 0
M  V30 1854 C 174.222 1.93732 -4.85041 0
M  V30 1855 H 175.916 0.847534 -2.87154 0
M  V30 1856 H 173.462 0.40625 -1.38151 0
M  V30 1857 H 175.415 3.27458 -2.65234 0
M  V30 1858 H 174.139 2.92098 -1.46103 0
M  V30 1859 H 172.798 1.73178 -3.23117 0
M  V30 1860 H 172.446 4.17179 -2.81017 0
M  V30 1861 H 172.146 3.7584 -4.51684 0
M  V30 1862 H 173.67 4.56712 -4.05274 0
M  V30 1863 H 175.084 2.56569 -5.12684 0
M  V30 1864 H 173.481 1.98428 -5.66345 0
M  V30 1865 H 174.551 0.891962 -4.76626 0
M  V30 1866 N 175.894 1.51508 0.433938 0
M  V30 1867 C 176.804 1.75917 1.5521 0
M  V30 1868 C 177.82 0.643545 1.61662 0
M  V30 1869 O 178.996 0.926183 1.7884 0
M  V30 1870 C 176.061 1.88213 2.91164 0
M  V30 1871 C 175.122 3.12074 2.94802 0
M  V30 1872 C 174.355 3.23774 4.24271 0
M  V30 1873 O 174.578 2.4133 5.16833 0
M  V30 1874 O 173.512 4.16774 4.34262 0
M  V30 1875 H 177.338 2.70777 1.37527 0
M  V30 1876 H 174.923 1.36051 0.617293 0
M  V30 1877 H 176.805 1.98267 3.71845 0
M  V30 1878 H 175.48 0.965413 3.08968 0
M  V30 1879 H 174.387 3.07497 2.13065 0
M  V30 1880 H 175.72 4.03446 2.81943 0
M  V30 1881 N 177.372 -0.689602 1.41712 0
M  V30 1882 C 178.304 -1.815 1.39966 0
M  V30 1883 C 179.317 -1.59995 0.300917 0
M  V30 1884 O 180.506 -1.69387 0.563039 0
M  V30 1885 C 177.606 -3.18364 1.16179 0
M  V30 1886 C 176.779 -3.66847 2.38206 0
M  V30 1887 C 175.838 -4.82398 2.10186 0
M  V30 1888 O 174.864 -4.93706 2.83272 0
M  V30 1889 N 176.066 -5.70064 1.0958 0
M  V30 1890 H 178.831 -1.83488 2.36965 0
M  V30 1891 H 176.392 -0.872149 1.36401 0
M  V30 1892 H 178.384 -3.93301 0.953756 0
M  V30 1893 H 176.954 -3.11365 0.27756 0
M  V30 1894 H 176.174 -2.82751 2.74673 0
M  V30 1895 H 177.462 -3.95978 3.19498 0
M  V30 1896 H 176.86 -5.63565 0.491019 0
M  V30 1897 H 175.417 -6.44874 0.947656 0
M  V30 1898 N 178.85 -1.27639 -0.924453 0
M  V30 1899 C 180.098 -1.13941 -1.66918 0
M  V30 1900 C 180.419 0.314589 -1.92446 0
M  V30 1901 O 179.689 1.21964 -1.53303 0
M  V30 1902 H 178.269 -0.418678 -0.618642 0
M  V30 1903 H 180.931 -1.60213 -1.10985 0
M  V30 1904 H 180.027 -1.67094 -2.63602 0
M  V30 1905 N 180.328 1.1314 -1.09713 0
M  V30 1906 C 181.739 1.66029 -0.853885 0
M  V30 1907 C 182.09 1.86241 0.617142 0
M  V30 1908 O 181.215 1.5834 1.47503 0
M  V30 1909 C 181.81 3.01599 -1.5435 0
M  V30 1910 C 180.369 3.51467 -1.34714 0
M  V30 1911 C 179.516 2.26648 -1.59769 0
M  V30 1912 H 182.467 0.970226 -1.25588 0
M  V30 1913 H 182.488 3.67709 -0.978267 0
M  V30 1914 H 182 2.86856 -2.6141 0
M  V30 1915 H 180.101 3.71408 -0.297838 0
M  V30 1916 H 180.214 4.314 -2.08401 0
M  V30 1917 H 178.578 2.33385 -1.01998 0
M  V30 1918 H 179.361 2.14467 -2.68065 0
M  V30 1919 N 181.806 0.884767 1.30421 0
M  V30 1920 C 182.736 0.367574 2.30589 0
M  V30 1921 C 183.717 -0.549464 1.60981 0
M  V30 1922 O 184.902 -0.46336 1.88591 0
M  V30 1923 C 182.032 -0.418944 3.44764 0
M  V30 1924 C 180.986 0.406316 4.26067 0
M  V30 1925 C 180.312 -0.506793 5.32293 0
M  V30 1926 C 181.612 1.64832 4.95608 0
M  V30 1927 H 183.306 1.20462 2.74097 0
M  V30 1928 H 180.852 0.580695 1.31772 0
M  V30 1929 H 182.805 -0.791395 4.13902 0
M  V30 1930 H 181.529 -1.28964 3.0006 0
M  V30 1931 H 180.188 0.760903 3.58617 0
M  V30 1932 H 179.836 -1.37519 4.83836 0
M  V30 1933 H 179.536 0.0415828 5.87585 0
M  V30 1934 H 181.06 -0.875764 6.04287 0
M  V30 1935 H 182.474 1.34646 5.57264 0
M  V30 1936 H 180.871 2.13688 5.60765 0
M  V30 1937 H 181.941 2.39284 4.21748 0
M  V30 1938 N 183.284 -1.43765 0.645699 0
M  V30 1939 C 184.214 -2.33471 -0.0370477 0
M  V30 1940 C 185.195 -1.49042 -0.819779 0
M  V30 1941 O 186.38 -1.77726 -0.782758 0
M  V30 1942 C 183.51 -3.32311 -1.0093 0
M  V30 1943 C 182.464 -4.2667 -0.337201 0
M  V30 1944 C 181.79 -5.1549 -1.42037 0
M  V30 1945 C 183.09 -5.16657 0.765706 0
M  V30 1946 H 184.784 -2.90809 0.712069 0
M  V30 1947 H 182.33 -1.39834 0.343876 0
M  V30 1948 H 184.283 -3.9396 -1.49578 0
M  V30 1949 H 183.007 -2.73213 -1.78948 0
M  V30 1950 H 181.666 -3.66374 0.128771 0
M  V30 1951 H 181.314 -4.52735 -2.1918 0
M  V30 1952 H 181.014 -5.79438 -0.975966 0
M  V30 1953 H 182.538 -5.80012 -1.90838 0
M  V30 1954 H 183.952 -5.72158 0.361702 0
M  V30 1955 H 182.349 -5.89286 1.13413 0
M  V30 1956 H 183.419 -4.56796 1.62683 0
M  V30 1957 N 184.763 -0.387143 -1.52771 0
M  V30 1958 C 185.673 0.456442 -2.30117 0
M  V30 1959 C 186.689 1.07342 -1.36944 0
M  V30 1960 O 187.865 1.07971 -1.70013 0
M  V30 1961 C 184.93 1.56957 -3.09136 0
M  V30 1962 C 183.991 0.977916 -4.18014 0
M  V30 1963 C 183.224 2.038 -4.93256 0
M  V30 1964 O 183.447 3.25271 -4.68567 0
M  V30 1965 O 182.381 1.6565 -5.78657 0
M  V30 1966 H 186.207 -0.17359 -3.03203 0
M  V30 1967 H 183.792 -0.150919 -1.48636 0
M  V30 1968 H 185.674 2.21628 -3.58412 0
M  V30 1969 H 184.349 2.18461 -2.38865 0
M  V30 1970 H 183.256 0.294525 -3.72939 0
M  V30 1971 H 184.589 0.407128 -4.90513 0
M  V30 1972 N 186.241 1.57166 -0.116904 0
M  V30 1973 C 187.151 2.18745 0.847812 0
M  V30 1974 C 188.167 1.163 1.29423 0
M  V30 1975 O 189.343 1.48761 1.35765 0
M  V30 1976 C 186.408 2.77307 2.0809 0
M  V30 1977 C 185.469 3.94781 1.68661 0
M  V30 1978 C 184.702 4.50541 2.86091 0
M  V30 1979 O 184.925 4.05202 4.01456 0
M  V30 1980 O 183.859 5.41256 2.63298 0
M  V30 1981 H 187.685 3.01632 0.353778 0
M  V30 1982 H 185.27 1.49005 0.108599 0
M  V30 1983 H 187.152 3.14647 2.80313 0
M  V30 1984 H 185.827 1.97452 2.56504 0
M  V30 1985 H 184.734 3.62214 0.935518 0
M  V30 1986 H 186.067 4.76065 1.24991 0
M  V30 1987 N 187.719 -0.156864 1.56817 0
M  V30 1988 C 188.669 -1.19891 1.93934 0
M  V30 1989 C 189.653 -1.39061 0.809372 0
M  V30 1990 O 190.845 -1.40789 1.07273 0
M  V30 1991 C 187.974 -2.53493 2.31508 0
M  V30 1992 C 187.06 -2.37957 3.51052 0
M  V30 1993 N 187.451 -1.92158 4.67877 0
M  V30 1994 C 185.749 -2.68739 3.55943 0
M  V30 1995 C 186.45 -1.8943 5.49992 0
M  V30 1996 N 185.426 -2.32375 4.91429 0
M  V30 1997 H 189.228 -0.836746 2.81737 0
M  V30 1998 H 186.742 -0.365012 1.58245 0
M  V30 1999 H 188.739 -3.28811 2.56299 0
M  V30 2000 H 187.399 -2.905 1.45051 0
M  V30 2001 H 188.41 -1.62274 4.91821 0
M  V30 2002 H 185.087 -3.09687 2.80001 0
M  V30 2003 H 186.477 -1.55596 6.53636 0
M  V30 2004 N 189.197 -1.51736 -0.425897 0
M  V30 2005 C 190.16 -1.73271 -1.50032 0
M  V30 2006 C 191.16 -0.602639 -1.4908 0
M  V30 2007 O 192.35 -0.87033 -1.509 0
M  V30 2008 C 189.482 -1.79969 -2.89523 0
M  V30 2009 H 190.675 -2.69172 -1.32237 0
M  V30 2010 H 188.228 -1.41899 -0.65532 0
M  V30 2011 H 188.963 -0.859241 -3.1271 0
M  V30 2012 H 188.748 -2.62109 -2.91619 0
M  V30 2013 H 190.238 -1.9843 -3.67444 0
M  V30 2014 N 190.675 0.682077 -1.42076 0
M  V30 2015 C 192.091 0.994324 -1.24841 0
M  V30 2016 C 192.291 2.0096 -0.147389 0
M  V30 2017 O 191.347 2.47822 0.483782 0
M  V30 2018 C 192.66 1.50607 -2.60265 0
M  V30 2019 C 194.208 1.62421 -2.6756 0
M  V30 2020 C 194.683 2.16994 -4.03333 0
M  V30 2021 N 196.174 2.24337 -4.0525 0
M  V30 2022 C 196.909 2.67621 -5.07116 0
M  V30 2023 N 196.405 3.1041 -6.19368 0
M  V30 2024 N 198.198 2.67305 -4.94474 0
M  V30 2025 H 190.349 0.00973908 -2.12398 0
M  V30 2026 H 192.612 0.0668593 -0.945639 0
M  V30 2027 H 192.318 0.834583 -3.41654 0
M  V30 2028 H 192.192 2.48602 -2.83684 0
M  V30 2029 H 194.579 2.28678 -1.86521 0
M  V30 2030 H 194.66 0.629352 -2.47937 0
M  V30 2031 H 194.304 1.51349 -4.84826 0
M  V30 2032 H 194.234 3.17258 -4.20304 0
M  V30 2033 H 196.725 1.94158 -3.24209 0
M  V30 2034 H 197.038 3.42103 -6.92954 0
M  V30 2035 H 195.383 3.08286 -6.22884 0
M  V30 2036 H 198.574 2.33233 -4.05857 0
M  V30 2037 H 198.747 3.00718 -5.73997 0
M  V30 2038 N 192.153 1.28127 0.917671 0
M  V30 2039 C 193.083 1.14248 2.03641 0
M  V30 2040 C 194.064 0.0412748 1.7005 0
M  V30 2041 O 195.249 0.217566 1.92977 0
M  V30 2042 C 192.379 0.799431 3.37974 0
M  V30 2043 C 191.333 1.85497 3.85713 0
M  V30 2044 C 190.659 1.36565 5.16966 0
M  V30 2045 C 191.959 3.26085 4.08002 0
M  V30 2046 H 193.653 2.07835 2.15511 0
M  V30 2047 H 191.199 1.00064 1.03553 0
M  V30 2048 H 193.152 0.689114 4.15727 0
M  V30 2049 H 191.876 -0.172145 3.26146 0
M  V30 2050 H 190.535 1.95437 3.10161 0
M  V30 2051 H 190.183 0.383253 5.01538 0
M  V30 2052 H 189.883 2.07143 5.49878 0
M  V30 2053 H 191.407 1.26848 5.97279 0
M  V30 2054 H 192.821 3.19089 4.76293 0
M  V30 2055 H 191.218 3.94462 4.52238 0
M  V30 2056 H 192.288 3.70394 3.12948 0
M  V30 2057 N 193.631 -1.12557 1.10312 0
M  V30 2058 C 194.878 -1.84038 0.844759 0
M  V30 2059 C 195.206 -1.84026 -0.629668 0
M  V30 2060 O 194.461 -1.28026 -1.48013 0
M  V30 2061 C 194.76 -3.31462 1.33669 0
M  V30 2062 C 194.426 -3.51647 2.82232 0
M  V30 2063 C 193.088 -3.56864 3.22802 0
M  V30 2064 C 195.44 -3.58867 3.77974 0
M  V30 2065 C 192.768 -3.66844 4.57867 0
M  V30 2066 C 195.12 -3.70375 5.1284 0
M  V30 2067 C 193.784 -3.73848 5.52986 0
M  V30 2068 H 193.054 -0.673444 0.309119 0
M  V30 2069 H 195.701 -1.32824 1.37949 0
M  V30 2070 H 194.006 -3.85091 0.721949 0
M  V30 2071 H 195.703 -3.85236 1.11329 0
M  V30 2072 H 192.293 -3.48249 2.49842 0
M  V30 2073 H 196.477 -3.54107 3.47738 0
M  V30 2074 H 191.733 -3.67804 4.88396 0
M  V30 2075 H 195.907 -3.74904 5.86873 0
M  V30 2076 H 193.534 -3.81333 6.57639 0
M  V30 2077 N 195.109 -0.891671 -1.2995 0
M  V30 2078 C 196.042 -0.307994 -2.26112 0
M  V30 2079 C 197.02 0.575262 -1.52084 0
M  V30 2080 O 198.204 0.523864 -1.81074 0
M  V30 2081 C 195.331 0.561734 -3.34009 0
M  V30 2082 C 194.377 -0.253107 -4.25748 0
M  V30 2083 S 195.21 -1.64572 -5.09584 0
M  V30 2084 C 196.366 -0.782699 -6.20987 0
M  V30 2085 H 196.599 -1.12309 -2.75271 0
M  V30 2086 H 194.132 -0.691509 -1.38049 0
M  V30 2087 H 196.09 1.05777 -3.96638 0
M  V30 2088 H 194.751 1.35099 -2.83561 0
M  V30 2089 H 193.944 0.410908 -5.02322 0
M  V30 2090 H 193.546 -0.682004 -3.67729 0
M  V30 2091 H 195.838 -0.00257476 -6.775 0
M  V30 2092 H 196.781 -1.52026 -6.91588 0
M  V30 2093 H 197.189 -0.340638 -5.63471 0
M  V30 2094 N 196.587 1.43421 -0.653314 0
M  V30 2095 C 197.817 2.05864 -0.174238 0
M  V30 2096 C 198.225 1.49052 1.16534 0
M  V30 2097 O 197.568 0.616481 1.73047 0
M  V30 2098 C 197.63 3.59499 -0.00875873 0
M  V30 2099 C 197.294 4.38893 -1.27364 0
M  V30 2100 C 198.291 4.70947 -2.20239 0
M  V30 2101 C 195.976 4.789 -1.51525 0
M  V30 2102 C 197.97 5.41916 -3.35568 0
M  V30 2103 C 195.657 5.49614 -2.67147 0
M  V30 2104 C 196.655 5.81044 -3.58994 0
M  V30 2105 O 196.343 6.50313 -4.72597 0
M  V30 2106 H 196.075 0.670345 -0.0872549 0
M  V30 2107 H 198.629 1.84913 -0.894226 0
M  V30 2108 H 196.859 3.79025 0.7666 0
M  V30 2109 H 198.548 4.0364 0.427687 0
M  V30 2110 H 199.314 4.40558 -2.02815 0
M  V30 2111 H 195.193 4.53843 -0.809158 0
M  V30 2112 H 198.737 5.66365 -4.07279 0
M  V30 2113 H 194.634 5.79419 -2.84505 0
M  V30 2114 H 195.402 6.68795 -4.71864 0
M  V30 2115 N 198.065 0.39524 1.52563 0
M  V30 2116 C 198.997 -0.472201 2.24283 0
M  V30 2117 C 200.01 -1.02178 1.26742 0
M  V30 2118 O 201.199 -0.923097 1.52778 0
M  V30 2119 C 198.299 -1.66775 2.95024 0
M  V30 2120 C 197.472 -1.2445 4.19322 0
M  V30 2121 C 196.531 -2.30539 4.7301 0
M  V30 2122 O 195.557 -1.91702 5.35947 0
M  V30 2123 N 196.759 -3.6253 4.53379 0
M  V30 2124 H 199.524 0.142282 2.99362 0
M  V30 2125 H 197.085 0.2219 1.60372 0
M  V30 2126 H 199.077 -2.37283 3.27839 0
M  V30 2127 H 197.647 -2.18845 2.23217 0
M  V30 2128 H 196.867 -0.368069 3.92478 0
M  V30 2129 H 198.155 -0.938457 5.0007 0
M  V30 2130 H 197.553 -3.96841 4.03154 0
M  V30 2131 H 196.11 -4.29055 4.90668 0
M  V30 2132 N 199.544 -1.57102 0.125237 0
M  V30 2133 C 200.474 -2.18659 -0.819174 0
M  V30 2134 C 201.455 -1.12843 -1.27281 0
M  V30 2135 O 202.64 -1.41104 -1.33429 0
M  V30 2136 C 199.77 -2.79096 -2.06695 0
M  V30 2137 C 198.724 -3.90548 -1.75088 0
M  V30 2138 C 198.05 -4.37821 -3.06948 0
M  V30 2139 C 199.35 -5.12356 -1.01435 0
M  V30 2140 H 201.044 -2.9783 -0.306202 0
M  V30 2141 H 198.59 -1.4326 -0.145839 0
M  V30 2142 H 200.543 -3.2082 -2.73226 0
M  V30 2143 H 199.267 -1.97223 -2.60328 0
M  V30 2144 H 197.926 -3.49409 -1.10944 0
M  V30 2145 H 197.574 -3.52799 -3.58527 0
M  V30 2146 H 197.274 -5.12982 -2.86571 0
M  V30 2147 H 198.798 -4.822 -3.74587 0
M  V30 2148 H 200.212 -5.5106 -1.58132 0
M  V30 2149 H 198.609 -5.9314 -0.911319 0
M  V30 2150 H 199.679 -4.849 -0.00218681 0
M  V30 2151 N 201.022 0.148545 -1.56898 0
M  V30 2152 C 201.952 1.18524 -2.01182 0
M  V30 2153 C 202.933 1.4489 -0.891123 0
M  V30 2154 O 204.118 1.55836 -1.15882 0
M  V30 2155 C 201.248 2.51879 -2.39112 0
M  V30 2156 C 200.202 2.40038 -3.54353 0
M  V30 2157 C 199.528 3.78089 -3.78091 0
M  V30 2158 C 200.828 1.88577 -4.87069 0
M  V30 2159 H 202.522 0.817029 -2.88036 0
M  V30 2160 H 200.068 0.391575 -1.38574 0
M  V30 2161 H 202.021 3.24627 -2.68692 0
M  V30 2162 H 200.745 2.90532 -1.49193 0
M  V30 2163 H 199.404 1.69742 -3.24936 0
M  V30 2164 H 199.052 4.14175 -2.85426 0
M  V30 2165 H 198.752 3.71028 -4.55645 0
M  V30 2166 H 200.276 4.52387 -4.10095 0
M  V30 2167 H 201.69 2.51117 -5.15377 0
M  V30 2168 H 200.087 1.9241 -5.68417 0
M  V30 2169 H 201.157 0.84136 -4.77545 0
M  V30 2170 N 202.5 1.5196 0.417844 0
M  V30 2171 C 203.916 1.40569 0.755816 0
M  V30 2172 C 204.116 0.503316 1.95113 0
M  V30 2173 O 203.172 -0.0341925 2.52477 0
M  V30 2174 C 204.485 2.82947 1.01791 0
M  V30 2175 C 206.033 2.92231 1.12116 0
M  V30 2176 C 206.508 4.35559 1.41608 0
M  V30 2177 N 207.999 4.38753 1.48491 0
M  V30 2178 C 208.734 5.46705 1.7292 0
M  V30 2179 N 208.23 6.64788 1.95011 0
M  V30 2180 N 210.023 5.34209 1.74863 0
M  V30 2181 H 202.174 2.09168 -0.369098 0
M  V30 2182 H 204.437 0.942409 -0.102809 0
M  V30 2183 H 204.143 3.5106 0.212081 0
M  V30 2184 H 204.017 3.23462 1.94042 0
M  V30 2185 H 206.404 2.24304 1.9176 0
M  V30 2186 H 206.485 2.55185 0.177225 0
M  V30 2187 H 206.129 5.04042 0.624848 0
M  V30 2188 H 206.059 4.70133 2.37239 0
M  V30 2189 H 208.55 3.5363 1.33244 0
M  V30 2190 H 208.863 7.42845 2.13076 0
M  V30 2191 H 207.208 6.67869 1.92293 0
M  V30 2192 H 210.399 4.40937 1.57137 0
M  V30 2193 H 210.572 6.18415 1.93563 0
M  V30 2194 N 203.978 -0.674533 1.42435 0
M  V30 2195 C 205.226 -1.43175 1.42637 0
M  V30 2196 C 205.547 -1.94951 0.0438992 0
M  V30 2197 O 204.817 -1.7308 -0.917607 0
M  V30 2198 H 203.397 -0.531307 0.525092 0
M  V30 2199 H 206.059 -0.797006 1.77859 0
M  V30 2200 H 205.155 -2.28463 2.12629 0
M  V30 2201 N 205.456 -1.28612 -0.910864 0
M  V30 2202 C 206.386 -1.15326 -2.03032 0
M  V30 2203 C 207.367 -0.0502924 -1.70026 0
M  V30 2204 O 208.552 -0.227797 -1.92859 0
M  V30 2205 C 205.682 -0.817343 -3.37545 0
M  V30 2206 C 204.636 -1.8754 -3.84724 0
M  V30 2207 C 203.962 -1.39305 -5.16235 0
M  V30 2208 C 205.262 -3.28244 -4.06267 0
M  V30 2209 H 206.956 -2.08975 -2.14406 0
M  V30 2210 H 204.502 -1.00612 -1.03021 0
M  V30 2211 H 206.455 -0.711151 -4.15356 0
M  V30 2212 H 205.179 0.154846 -3.26233 0
M  V30 2213 H 203.838 -1.97079 -3.09121 0
M  V30 2214 H 203.486 -0.409846 -5.01328 0
M  V30 2215 H 203.186 -2.10057 -5.48771 0
M  V30 2216 H 204.71 -1.30014 -5.96598 0
M  V30 2217 H 206.124 -3.21611 -4.74594 0
M  V30 2218 H 204.521 -3.96855 -4.5014 0
M  V30 2219 H 205.591 -3.72048 -3.10979 0
M  V30 2220 N 206.934 1.1197 -1.10907 0
M  V30 2221 C 207.881 2.17846 -0.762345 0
M  V30 2222 C 208.851 1.63995 0.263599 0
M  V30 2223 O 210.036 1.90273 0.141773 0
M  V30 2224 C 207.176 3.44487 -0.205651 0
M  V30 2225 C 206.289 4.12369 -1.28748 0
M  V30 2226 C 205.424 5.26674 -0.691919 0
M  V30 2227 C 204.463 5.86431 -1.75399 0
M  V30 2228 N 203.6 6.92142 -1.17833 0
M  V30 2229 H 208.44 2.46851 -1.6694 0
M  V30 2230 H 205.977 1.21188 -0.833776 0
M  V30 2231 H 207.935 4.16981 0.135037 0
M  V30 2232 H 206.565 3.15884 0.664613 0
M  V30 2233 H 205.617 3.38003 -1.74522 0
M  V30 2234 H 206.929 4.52844 -2.09125 0
M  V30 2235 H 206.083 6.05953 -0.300963 0
M  V30 2236 H 204.822 4.8749 0.143232 0
M  V30 2237 H 203.827 5.05835 -2.15432 0
M  V30 2238 H 205.052 6.27685 -2.59208 0
M  V30 2239 H 202.998 6.54985 -0.364725 0
M  V30 2240 H 202.915 7.31242 -1.91887 0
M  V30 2241 H 204.183 7.75237 -0.81408 0
M  V30 2242 N 208.412 0.89855 1.29475 0
M  V30 2243 C 209.642 0.538479 1.99459 0
M  V30 2244 C 210.05 -0.880922 1.67441 0
M  V30 2245 O 209.393 -1.59283 0.915127 0
M  V30 2246 C 209.455 0.649564 3.53583 0
M  V30 2247 C 209.119 2.03573 4.09154 0
M  V30 2248 C 210.116 3.00675 4.24135 0
M  V30 2249 C 207.801 2.3448 4.44212 0
M  V30 2250 C 209.795 4.26809 4.73405 0
M  V30 2251 C 207.482 3.60857 4.93179 0
M  V30 2252 C 208.48 4.56836 5.0773 0
M  V30 2253 O 208.168 5.80969 5.55635 0
M  V30 2254 H 207.9 0.205372 0.644048 0
M  V30 2255 H 210.454 1.20958 1.66007 0
M  V30 2256 H 208.684 -0.0785592 3.8662 0
M  V30 2257 H 210.373 0.29881 4.04799 0
M  V30 2258 H 211.139 2.78112 3.97339 0
M  V30 2259 H 207.018 1.60534 4.32145 0
M  V30 2260 H 210.562 5.0173 4.84678 0
M  V30 2261 H 206.459 3.83251 5.19412 0
M  V30 2262 H 207.227 5.83542 5.73952 0
M  V30 2263 N 209.89 -1.43072 0.660911 0
M  V30 2264 C 211.139 -2.00942 0.174735 0
M  V30 2265 C 211.452 -1.52797 -1.22117 0
M  V30 2266 O 212.658 -2.02991 -1.80297 0
M  V30 2267 C 211.114 -3.58948 0.261559 0
M  V30 2268 C 210.722 -4.16085 1.66064 0
M  V30 2269 C 212.466 -4.24173 -0.166617 0
M  V30 2270 C 210.373 -5.6641 1.70098 0
M  V30 2271 H 209.303 -0.751483 0.0615631 0
M  V30 2272 H 211.954 -1.63955 0.824069 0
M  V30 2273 H 210.336 -3.93372 -0.455421 0
M  V30 2274 H 211.51 -3.93147 2.40359 0
M  V30 2275 H 209.825 -3.6326 2.03546 0
M  V30 2276 H 212.422 -5.34471 -0.156433 0
M  V30 2277 H 212.765 -3.98647 -1.19943 0
M  V30 2278 H 213.298 -3.94659 0.498875 0
M  V30 2279 H 210.037 -5.96715 2.71315 0
M  V30 2280 H 209.557 -5.91382 1.00139 0
M  V30 2281 H 211.236 -6.30585 1.44816 0
M  V30 2282 N 211.368 -0.403325 -1.52352 0
M  V30 2283 C 212.318 0.442244 -2.2367 0
M  V30 2284 C 213.302 1.01823 -1.24583 0
M  V30 2285 O 214.494 0.942005 -1.49851 0
M  V30 2286 C 211.623 1.5615 -3.05732 0
M  V30 2287 C 210.709 0.996575 -4.12225 0
M  V30 2288 N 211.1 0.157804 -5.05554 0
M  V30 2289 C 209.398 1.26767 -4.27605 0
M  V30 2290 C 210.099 -0.155853 -5.81491 0
M  V30 2291 N 209.075 0.451775 -5.41719 0
M  V30 2292 H 212.877 -0.204964 -2.93184 0
M  V30 2293 H 210.391 -0.213418 -1.60992 0
M  V30 2294 H 212.388 2.17981 -3.55373 0
M  V30 2295 H 211.048 2.21139 -2.37755 0
M  V30 2296 H 212.059 -0.206049 -5.1749 0
M  V30 2297 H 208.736 1.91757 -3.70858 0
M  V30 2298 H 210.126 -0.836329 -6.66675 0
M  V30 2299 N 212.846 1.57033 -0.133567 0
M  V30 2300 C 214.071 2.00475 0.531477 0
M  V30 2301 C 214.496 1.01291 1.58499 0
M  V30 2302 O 213.854 -0.0133279 1.81295 0
M  V30 2303 C 213.902 3.42729 1.12113 0
M  V30 2304 O 213.006 3.46498 2.23636 0
M  V30 2305 H 212.347 0.650876 0.131362 0
M  V30 2306 H 214.877 2.03344 -0.22634 0
M  V30 2307 H 214.887 3.81246 1.4531 0
M  V30 2308 H 213.562 4.14428 0.349557 0
M  V30 2309 H 212.139 3.19811 1.91769 0
M  V30 2310 N 214.325 -0.140222 1.56975 0
M  V30 2311 C 215.288 -1.15689 1.97861 0
M  V30 2312 C 216.288 -1.3549 0.865974 0
M  V30 2313 O 217.478 -1.32367 1.13246 0
M  V30 2314 C 214.61 -2.51582 2.30042 0
M  V30 2315 H 215.803 -0.805971 2.88867 0
M  V30 2316 H 213.356 -0.383801 1.51515 0
M  V30 2317 H 214.091 -2.91632 1.41849 0
M  V30 2318 H 213.876 -2.38569 3.11171 0
M  V30 2319 H 215.366 -3.24792 2.62488 0
M  V30 2320 N 215.803 -1.52179 -0.40978 0
M  V30 2321 C 216.751 -1.76086 -1.51975 0
M  V30 2322 C 217.745 -0.627964 -1.57331 0
M  V30 2323 O 218.951 -0.809993 -1.60745 0
M  V30 2324 H 215.326 -0.556829 -0.505416 0
M  V30 2325 H 217.297 -2.69077 -1.28996 0
M  V30 2326 C 216.046 -1.92799 -2.8935 0
M  V30 2327 H 215.369 -2.79392 -2.85972 0
M  V30 2328 H 216.809 -2.13527 -3.66309 0
M  V30 2329 C 215.268 -0.694923 -3.29655 0
M  V30 2330 O 215.798 0.13751 -4.01465 0
M  V30 2331 N 214.004 -0.53101 -2.85707 0
M  V30 2332 H 213.551 -1.20952 -2.27439 0
M  V30 2333 H 213.509 0.292718 -3.13034 0
M  V30 2334 N 217.281 0.66697 -1.42791 0
M  V30 2335 C 218.527 1.4291 -1.43891 0
M  V30 2336 C 218.86 1.94114 -0.0578972 0
M  V30 2337 O 218.135 1.71414 0.91911 0
M  V30 2338 C 218.418 2.62049 -2.46987 0
M  V30 2339 C 218.271 2.16426 -3.94309 0
M  V30 2340 C 219.59 3.64266 -2.46978 0
M  V30 2341 H 216.709 0.518306 -0.523954 0
M  V30 2342 H 219.351 0.757321 -1.74255 0
M  V30 2343 H 217.501 3.19361 -2.21225 0
M  V30 2344 H 219.173 1.64221 -4.31079 0
M  V30 2345 H 217.416 1.47925 -4.078 0
M  V30 2346 H 218.087 3.02038 -4.62036 0
M  V30 2347 H 220.563 3.16686 -2.69906 0
M  V30 2348 H 219.439 4.45196 -3.21079 0
M  V30 2349 H 219.7 4.15927 -1.49857 0
M  V30 2350 N 218.759 1.29093 0.90403 0
M  V30 2351 C 219.689 1.16401 2.02418 0
M  V30 2352 C 220.67 0.0593085 1.69997 0
M  V30 2353 O 221.855 0.238021 1.92736 0
M  V30 2354 C 218.985 0.835233 3.37107 0
M  V30 2355 C 217.939 1.89578 3.83724 0
M  V30 2356 C 217.265 1.42041 5.15489 0
M  V30 2357 C 218.565 3.30394 4.04521 0
M  V30 2358 H 220.259 2.10109 2.13295 0
M  V30 2359 H 217.805 1.01157 1.02486 0
M  V30 2360 H 219.758 0.733169 4.14973 0
M  V30 2361 H 218.482 -0.137543 3.2631 0
M  V30 2362 H 217.141 1.98715 3.08071 0
M  V30 2363 H 216.789 0.436426 5.01103 0
M  V30 2364 H 216.489 2.12964 5.4765 0
M  V30 2365 H 218.013 1.33176 5.959 0
M  V30 2366 H 219.427 3.24123 4.72882 0
M  V30 2367 H 217.824 3.99237 4.48029 0
M  V30 2368 H 218.894 3.73692 3.09002 0
M  V30 2369 N 220.237 -1.11381 1.11499 0
M  V30 2370 C 221.187 -2.15555 0.74298 0
M  V30 2371 C 222.171 -1.58894 -0.253276 0
M  V30 2372 O 223.363 -1.76897 -0.0602918 0
M  V30 2373 C 220.492 -3.42782 0.188481 0
M  V30 2374 C 219.578 -4.064 1.21244 0
M  V30 2375 N 219.969 -4.44864 2.40685 0
M  V30 2376 C 218.267 -4.3333 1.05552 0
M  V30 2377 C 218.968 -4.94715 3.05994 0
M  V30 2378 N 217.944 -4.90909 2.33472 0
M  V30 2379 H 221.746 -2.43074 1.65203 0
M  V30 2380 H 219.26 -1.28401 0.994329 0
M  V30 2381 H 221.257 -4.16789 -0.0961693 0
M  V30 2382 H 219.917 -3.16727 -0.715149 0
M  V30 2383 H 220.928 -4.36876 2.78136 0
M  V30 2384 H 217.605 -4.1698 0.208372 0
M  V30 2385 H 218.995 -5.34103 4.07656 0
M  V30 2386 N 221.715 -0.905404 -1.28997 0
M  V30 2387 C 223.131 -0.60233 -1.47798 0
M  V30 2388 C 223.331 0.854645 -1.82478 0
M  V30 2389 O 222.387 1.63439 -1.92468 0
M  V30 2390 C 223.7 -1.53306 -2.58685 0
M  V30 2391 C 225.248 -1.53887 -2.72558 0
M  V30 2392 C 225.723 -2.45602 -3.86579 0
M  V30 2393 N 227.214 -2.43681 -3.93921 0
M  V30 2394 C 227.949 -3.11347 -4.81509 0
M  V30 2395 N 227.445 -3.88313 -5.73746 0
M  V30 2396 N 229.238 -3.00476 -4.75048 0
M  V30 2397 H 221.389 -1.84765 -1.04764 0
M  V30 2398 H 223.652 -0.792025 -0.520961 0
M  V30 2399 H 223.358 -2.57141 -2.39941 0
M  V30 2400 H 223.232 -1.25787 -3.55609 0
M  V30 2401 H 225.619 -0.507941 -2.90696 0
M  V30 2402 H 225.7 -1.85447 -1.76191 0
M  V30 2403 H 225.344 -3.48792 -3.69197 0
M  V30 2404 H 225.274 -2.11349 -4.82327 0
M  V30 2405 H 227.765 -1.87767 -3.27951 0
M  V30 2406 H 228.078 -4.36985 -6.37389 0
M  V30 2407 H 226.423 -3.92419 -5.73614 0
M  V30 2408 H 229.614 -2.39858 -4.01977 0
M  V30 2409 H 229.787 -3.53485 -5.43095 0
M  V30 2410 N 223.193 1.4272 -0.668489 0
M  V30 2411 C 224.47 1.95248 -0.117373 0
M  V30 2412 C 224.85 1.60919 1.36632 0
M  V30 2413 O 224.198 0.902095 2.09939 0
M  V30 2414 C 224.408 3.46927 -0.379806 0
M  V30 2415 C 225.756 4.23588 -0.292923 0
M  V30 2416 O 226.78 3.5482 -0.313204 0
M  V30 2417 O 225.639 5.46017 -0.229697 0
M  V30 2418 H 222.733 0.827 0.00079152 0
M  V30 2419 H 225.279 1.52581 -0.742783 0
M  V30 2420 H 224.051 3.65096 -1.40786 0
M  V30 2421 H 223.674 3.96627 0.277923 0
M  V30 2422 N 224.671 0.411399 1.52136 0
M  V30 2423 C 225.601 -0.404015 2.29978 0
M  V30 2424 C 226.582 -1.04412 1.34284 0
M  V30 2425 O 227.767 -1.0527 1.63192 0
M  V30 2426 C 224.897 -1.5197 3.12286 0
M  V30 2427 C 223.851 -1.00448 4.16046 0
M  V30 2428 C 223.177 -2.21393 4.86712 0
M  V30 2429 C 224.477 -0.0569336 5.22269 0
M  V30 2430 H 226.171 0.245529 2.98392 0
M  V30 2431 H 223.717 0.119525 1.43503 0
M  V30 2432 H 225.67 -2.09715 3.6551 0
M  V30 2433 H 224.394 -2.19716 2.41646 0
M  V30 2434 H 223.053 -0.449421 3.63835 0
M  V30 2435 H 222.701 -2.87699 4.12599 0
M  V30 2436 H 222.401 -1.87571 5.56858 0
M  V30 2437 H 223.925 -2.7974 5.4275 0
M  V30 2438 H 225.339 -0.54325 5.7072 0
M  V30 2439 H 223.736 0.192594 5.99791 0
M  V30 2440 H 224.806 0.887663 4.76706 0
M  V30 2441 N 226.149 -1.5696 0.141893 0
M  V30 2442 C 227.096 -2.16501 -0.799737 0
M  V30 2443 C 228.066 -1.09643 -1.24771 0
M  V30 2444 O 229.251 -1.3766 -1.32115 0
M  V30 2445 C 226.391 -2.78679 -2.03549 0
M  V30 2446 C 225.504 -3.99914 -1.6338 0
M  V30 2447 C 224.639 -4.50106 -2.82096 0
M  V30 2448 C 223.678 -5.63819 -2.38275 0
M  V30 2449 N 222.815 -6.08651 -3.49983 0
M  V30 2450 H 227.655 -2.96632 -0.285179 0
M  V30 2451 H 225.192 -1.46533 -0.129053 0
M  V30 2452 H 227.15 -3.1287 -2.75986 0
M  V30 2453 H 225.78 -2.012 -2.52425 0
M  V30 2454 H 224.832 -3.71735 -0.807279 0
M  V30 2455 H 226.144 -4.82311 -1.27192 0
M  V30 2456 H 225.298 -4.86325 -3.62729 0
M  V30 2457 H 224.037 -3.66706 -3.21525 0
M  V30 2458 H 223.042 -5.2718 -1.56081 0
M  V30 2459 H 224.267 -6.49 -1.99938 0
M  V30 2460 H 222.213 -5.28188 -3.89042 0
M  V30 2461 H 222.13 -6.85961 -3.17794 0
M  V30 2462 H 223.398 -6.49515 -4.30988 0
M  V30 2463 N 227.627 0.131896 -1.57047 0
M  V30 2464 C 229.038 0.690407 -1.73465 0
M  V30 2465 C 229.389 1.8094 -0.758629 0
M  V30 2466 O 228.514 2.16282 0.0713813 0
M  V30 2467 C 229.109 1.25916 -3.14532 0
M  V30 2468 C 227.668 1.76409 -3.32501 0
M  V30 2469 C 226.815 0.658579 -2.69366 0
M  V30 2470 H 229.766 -0.0939144 -1.58422 0
M  V30 2471 H 229.787 2.12892 -3.15369 0
M  V30 2472 H 229.299 0.444515 -3.85546 0
M  V30 2473 H 227.4 2.60391 -2.66509 0
M  V30 2474 H 227.513 1.88241 -4.4057 0
M  V30 2475 H 225.877 1.08899 -2.30246 0
M  V30 2476 H 226.66 -0.14487 -3.42994 0
M  V30 2477 N 229.106 1.52395 0.401703 0
M  V30 2478 C 230.069 1.75636 1.47257 0
M  V30 2479 C 231.069 0.62628 1.48103 0
M  V30 2480 O 232.259 0.894227 1.49497 0
M  V30 2481 C 229.391 1.84553 2.86624 0
M  V30 2482 H 230.584 2.71241 1.27938 0
M  V30 2483 H 228.137 1.42923 0.632662 0
M  V30 2484 H 228.872 0.908882 3.11303 0
M  V30 2485 H 228.657 2.66715 2.87412 0
M  V30 2486 H 230.147 2.04251 3.64241 0
M  V30 2487 N 230.584 -0.659388 1.43143 0
M  V30 2488 C 231.532 -1.79374 1.4808 0
M  V30 2489 C 232.526 -1.65639 0.354988 0
M  V30 2490 O 233.732 -1.7206 0.528704 0
M  V30 2491 H 230.107 -0.591705 0.4641 0
M  V30 2492 H 232.078 -1.72329 2.43609 0
M  V30 2493 C 230.827 -3.17606 1.41499 0
M  V30 2494 H 230.15 -3.28809 2.27431 0
M  V30 2495 H 231.59 -3.96951 1.49015 0
M  V30 2496 C 230.049 -3.36642 0.131765 0
M  V30 2497 O 230.579 -3.93461 -0.809386 0
M  V30 2498 N 228.785 -2.90567 0.0439396 0
M  V30 2499 H 228.332 -2.44513 0.810619 0
M  V30 2500 H 228.29 -3.03681 -0.813969 0
M  V30 2501 N 232.062 -1.29571 -0.897171 0
M  V30 2502 C 232.992 -1.17473 -2.01798 0
M  V30 2503 C 233.973 -0.068323 -1.69963 0
M  V30 2504 O 235.158 -0.248239 -1.92607 0
M  V30 2505 C 232.288 -0.853099 -3.36659 0
M  V30 2506 C 231.242 -1.9161 -3.82713 0
M  V30 2507 C 230.568 -1.44773 -5.14728 0
M  V30 2508 C 231.868 -3.32535 -4.02763 0
M  V30 2509 H 233.562 -2.11237 -2.12177 0
M  V30 2510 H 231.108 -1.01699 -1.01948 0
M  V30 2511 H 233.061 -0.755165 -4.14578 0
M  V30 2512 H 231.785 0.120236 -3.26379 0
M  V30 2513 H 230.444 -2.00346 -3.07013 0
M  V30 2514 H 230.092 -0.462995 -5.00865 0
M  V30 2515 H 229.792 -2.15865 -5.46513 0
M  V30 2516 H 231.316 -1.36334 -5.95185 0
M  V30 2517 H 232.73 -3.26626 -4.71156 0
M  V30 2518 H 231.127 -4.01607 -4.45905 0
M  V30 2519 H 232.197 -3.75326 -3.07016 0
M  V30 2520 N 233.54 1.10788 -1.12088 0
M  V30 2521 C 234.787 1.82671 -0.873931 0
M  V30 2522 C 235.115 1.85004 0.600311 0
M  V30 2523 O 234.37 1.30365 1.45957 0
M  V30 2524 C 234.669 3.29294 -1.38926 0
M  V30 2525 C 234.335 3.47113 -2.87791 0
M  V30 2526 C 232.997 3.51684 -3.28439 0
M  V30 2527 C 235.349 3.52808 -3.83635 0
M  V30 2528 C 232.677 3.59513 -4.63646 0
M  V30 2529 C 235.029 3.62169 -5.18668 0
M  V30 2530 C 233.693 3.65003 -5.58864 0
M  V30 2531 H 232.963 0.668441 -0.319794 0
M  V30 2532 H 235.61 1.30613 -1.40045 0
M  V30 2533 H 233.915 3.83894 -0.783122 0
M  V30 2534 H 235.612 3.83416 -1.17443 0
M  V30 2535 H 232.202 3.4423 -2.5535 0
M  V30 2536 H 236.386 3.4853 -3.53328 0
M  V30 2537 H 231.642 3.59987 -4.94185 0
M  V30 2538 H 235.816 3.6552 -5.92763 0
M  V30 2539 H 233.443 3.70822 -6.63623 0
M  V30 2540 N 235.018 0.912232 1.28515 0
M  V30 2541 C 236.267 0.540504 1.94323 0
M  V30 2542 C 236.58 -0.920044 1.72611 0
M  V30 2543 O 237.786 -1.39986 2.32629 0
M  V30 2544 C 236.242 0.915803 3.48053 0
M  V30 2545 C 235.85 2.39598 3.78546 0
M  V30 2546 C 237.594 0.614588 4.20027 0
M  V30 2547 C 235.501 2.71148 5.25578 0
M  V30 2548 H 234.431 0.198418 0.727424 0
M  V30 2549 H 237.082 1.11094 1.46049 0
M  V30 2550 H 235.464 0.274168 3.9505 0
M  V30 2551 H 236.638 3.08422 3.42364 0
M  V30 2552 H 234.953 2.66749 3.1974 0
M  V30 2553 H 237.55 0.827002 5.28266 0
M  V30 2554 H 237.893 -0.447531 4.13887 0
M  V30 2555 H 238.426 1.21462 3.78803 0
M  V30 2556 H 235.165 3.76207 5.36794 0
M  V30 2557 H 234.685 2.0696 5.62963 0
M  V30 2558 H 236.364 2.58072 5.93302 0
M  V30 2559 N 236.496 -1.42363 0.676048 0
M  V30 2560 C 237.444 -2.32596 -0.0131507 0
M  V30 2561 C 238.438 -1.49891 -0.789238 0
M  V30 2562 O 239.644 -1.65955 -0.697061 0
M  V30 2563 H 236.019 -0.751647 -0.0230481 0
M  V30 2564 H 237.99 -2.88421 0.765243 0
M  V30 2565 C 236.739 -3.34479 -0.949702 0
M  V30 2566 H 236.062 -3.98158 -0.361938 0
M  V30 2567 H 237.502 -4.00199 -1.4006 0
M  V30 2568 C 235.961 -2.66838 -2.05667 0
M  V30 2569 O 236.491 -2.50124 -3.14326 0
M  V30 2570 N 234.697 -2.25843 -1.82875 0
M  V30 2571 H 234.244 -2.39637 -0.945085 0
M  V30 2572 H 234.202 -1.80918 -2.5713 0
M  V30 2573 N 237.974 -0.419461 -1.51915 0
M  V30 2574 C 239.202 0.152136 -2.0634 0
M  V30 2575 C 239.617 1.37988 -1.28859 0
M  V30 2576 O 238.974 1.79243 -0.343232 0
M  V30 2577 C 239.025 0.492266 -3.58133 0
M  V30 2578 O 238.746 -0.686736 -4.32684 0
M  V30 2579 C 240.247 1.11648 -4.2901 0
M  V30 2580 H 237.467 0.0158325 -0.670813 0
M  V30 2581 H 240.011 -0.593394 -1.95702 0
M  V30 2582 H 238.166 1.18769 -3.68745 0
M  V30 2583 H 238.58 -0.400341 -5.2297 0
M  V30 2584 H 240.054 1.3046 -5.36362 0
M  V30 2585 H 240.531 2.09251 -3.86148 0
M  V30 2586 H 241.137 0.460958 -4.22795 0
M  V30 2587 N 239.452 1.56882 -0.150215 0
M  V30 2588 C 240.362 2.20494 0.801222 0
M  V30 2589 C 241.378 1.19019 1.26927 0
M  V30 2590 O 242.554 1.51607 1.32579 0
M  V30 2591 C 239.619 2.81659 2.02161 0
M  V30 2592 C 238.68 3.9827 1.60249 0
M  V30 2593 C 237.913 4.56508 2.7647 0
M  V30 2594 O 238.136 4.13627 3.92771 0
M  V30 2595 O 237.07 5.46719 2.51757 0
M  V30 2596 H 240.896 3.02315 0.289717 0
M  V30 2597 H 238.481 1.49202 0.0769684 0
M  V30 2598 H 240.363 3.20522 2.73576 0
M  V30 2599 H 239.038 2.02849 2.52258 0
M  V30 2600 H 237.945 3.64117 0.858477 0
M  V30 2601 H 239.278 4.78609 1.14864 0
M  V30 2602 N 240.93 -0.123565 1.57115 0
M  V30 2603 C 242.207 -0.862196 1.75572 0
M  V30 2604 C 242.587 -1.98279 0.724475 0
M  V30 2605 O 241.935 -2.27102 -0.252407 0
M  V30 2606 C 242.145 -1.38309 3.20424 0
M  V30 2607 C 243.493 -1.83724 3.82793 0
M  V30 2608 O 244.517 -1.47999 3.23998 0
M  V30 2609 O 243.376 -2.49685 4.86127 0
M  V30 2610 H 240.47 -0.409113 0.718718 0
M  V30 2611 H 243.016 -0.107661 1.69358 0
M  V30 2612 H 241.788 -0.578889 3.86994 0
M  V30 2613 H 241.411 -2.20046 3.31158 0
M  V30 2614 N 242.408 -1.52605 -0.393616 0
M  V30 2615 C 243.338 -1.80022 -1.48709 0
M  V30 2616 C 244.319 -0.651995 -1.57108 0
M  V30 2617 O 245.504 -0.89913 -1.72132 0
M  V30 2618 C 242.634 -1.96492 -2.86371 0
M  V30 2619 C 241.588 -3.12161 -2.92813 0
M  V30 2620 C 240.914 -3.13877 -4.3288 0
M  V30 2621 C 242.214 -4.51322 -2.6288 0
M  V30 2622 H 243.908 -2.71589 -1.26015 0
M  V30 2623 H 241.454 -1.30684 -0.604778 0
M  V30 2624 H 243.407 -2.14255 -3.62867 0
M  V30 2625 H 242.131 -1.01611 -3.10391 0
M  V30 2626 H 240.79 -2.94173 -2.18764 0
M  V30 2627 H 240.438 -2.16687 -4.53933 0
M  V30 2628 H 240.138 -3.91576 -4.38112 0
M  V30 2629 H 241.662 -3.33789 -5.1129 0
M  V30 2630 H 243.076 -4.69435 -3.29096 0
M  V30 2631 H 241.473 -5.31053 -2.79468 0
M  V30 2632 H 242.543 -4.58353 -1.58242 0
M  V30 2633 N 243.887 0.651787 -1.4349 0
M  V30 2634 C 245.133 1.41376 -1.45398 0
M  V30 2635 C 245.466 1.94041 -0.0784823 0
M  V30 2636 O 244.741 1.72379 0.900878 0
M  V30 2637 C 245.024 2.59414 -2.49752 0
M  V30 2638 C 244.877 2.12232 -3.96582 0
M  V30 2639 C 246.196 3.61626 -2.50827 0
M  V30 2640 H 243.315 0.512719 -0.529422 0
M  V30 2641 H 245.957 0.738796 -1.75048 0
M  V30 2642 H 244.107 3.16997 -2.246 0
M  V30 2643 H 245.779 1.59639 -4.32797 0
M  V30 2644 H 244.022 1.43592 -4.09346 0
M  V30 2645 H 244.693 2.9712 -4.65214 0
M  V30 2646 H 247.169 3.13805 -2.7325 0
M  V30 2647 H 246.045 4.41766 -3.25783 0
M  V30 2648 H 246.306 4.14314 -1.5426 0
M  V30 2649 N 245.365 1.30045 0.890287 0
M  V30 2650 C 246.295 1.18541 2.01172 0
M  V30 2651 C 247.276 0.0773356 1.69924 0
M  V30 2652 O 248.461 0.25845 1.92473 0
M  V30 2653 C 245.591 0.870941 3.36202 0
M  V30 2654 C 244.545 1.93637 3.81692 0
M  V30 2655 C 243.871 1.475 5.13953 0
M  V30 2656 C 245.171 3.34666 4.00994 0
M  V30 2657 H 246.865 2.12359 2.11054 0
M  V30 2658 H 244.411 1.02238 1.01407 0
M  V30 2659 H 246.364 0.777141 4.14172 0
M  V30 2660 H 245.088 -0.102926 3.26438 0
M  V30 2661 H 243.747 2.01972 3.05946 0
M  V30 2662 H 243.395 0.489551 5.00612 0
M  V30 2663 H 243.095 2.1876 5.4536 0
M  V30 2664 H 244.619 1.39489 5.94454 0
M  V30 2665 H 246.033 3.2912 4.69417 0
M  V30 2666 H 244.43 4.03966 4.43769 0
M  V30 2667 H 245.5 3.76949 3.05021 0
M  V30 2668 N 246.843 -1.10192 1.12674 0
M  V30 2669 C 247.79 -2.16606 0.796906 0
M  V30 2670 C 248.76 -1.64394 -0.237476 0
M  V30 2671 O 249.945 -1.90474 -0.111484 0
M  V30 2672 C 247.085 -3.44116 0.26043 0
M  V30 2673 C 246.198 -4.10268 1.35293 0
M  V30 2674 C 245.333 -5.25507 0.775621 0
M  V30 2675 C 244.372 -5.83567 1.84706 0
M  V30 2676 N 243.509 -6.90179 1.28829 0
M  V30 2677 H 248.349 -2.44163 1.70846 0
M  V30 2678 H 245.886 -1.19846 0.85295 0
M  V30 2679 H 247.844 -4.17143 -0.0686814 0
M  V30 2680 H 246.474 -3.16901 -0.614274 0
M  V30 2681 H 245.526 -3.35184 1.79877 0
M  V30 2682 H 246.838 -4.4946 2.16303 0
M  V30 2683 H 245.992 -6.05398 0.397327 0
M  V30 2684 H 244.731 -4.87656 -0.0656581 0
M  V30 2685 H 243.736 -5.02344 2.23452 0
M  V30 2686 H 244.961 -6.23482 2.69161 0
M  V30 2687 H 242.907 -6.54322 0.468881 0
M  V30 2688 H 242.824 -7.28097 2.03497 0
M  V30 2689 H 244.092 -7.73844 0.937311 0
M  V30 2690 N 248.321 -0.919034 -1.28029 0
M  V30 2691 C 249.57 -0.550802 -1.94034 0
M  V30 2692 C 249.883 0.910877 -1.73096 0
M  V30 2693 O 251.089 1.3875 -2.33368 0
M  V30 2694 C 249.545 -0.934249 -3.47563 0
M  V30 2695 C 249.153 -2.41602 -3.7727 0
M  V30 2696 C 250.897 -0.636854 -4.19696 0
M  V30 2697 C 248.804 -2.73932 -5.24133 0
M  V30 2698 H 247.734 -0.202273 -0.726362 0
M  V30 2699 H 250.385 -1.11867 -1.45458 0
M  V30 2700 H 248.767 -0.295115 -3.94899 0
M  V30 2701 H 249.941 -3.10233 -3.40723 0
M  V30 2702 H 248.256 -2.68441 -3.18321 0
M  V30 2703 H 250.853 -0.855005 -5.2782 0
M  V30 2704 H 251.196 0.425575 -4.14119 0
M  V30 2705 H 251.729 -1.23469 -3.78154 0
M  V30 2706 H 248.468 -3.79049 -5.34792 0
M  V30 2707 H 247.988 -2.09942 -5.61858 0
M  V30 2708 H 249.667 -2.61215 -5.91925 0
M  V30 2709 N 249.799 1.42003 -0.683588 0
M  V30 2710 C 251.047 2.01015 -0.209101 0
M  V30 2711 C 251.368 1.54365 1.19149 0
M  V30 2712 O 250.638 0.769083 1.80172 0
M  V30 2713 H 249.218 0.743294 -0.074315 0
M  V30 2714 H 251.88 1.73798 -0.882066 0
M  V30 2715 H 250.976 3.11343 -0.2172 0
M  V30 2716 N 251.277 0.427512 1.51691 0
M  V30 2717 C 252.554 -0.201684 1.94557 0
M  V30 2718 C 252.934 -1.60981 1.36559 0
M  V30 2719 O 252.282 -2.21814 0.548702 0
M  V30 2720 C 252.492 -0.189394 3.48486 0
M  V30 2721 C 253.84 -0.39978 4.22714 0
M  V30 2722 O 254.864 -0.267945 3.55191 0
M  V30 2723 O 253.723 -0.661249 5.42485 0
M  V30 2724 H 250.817 -0.135261 0.815864 0
M  V30 2725 H 253.363 0.484782 1.62628 0
M  V30 2726 H 252.135 0.795431 3.8313 0
M  V30 2727 H 251.758 -0.919187 3.86829 0
M  V30 2728 N 252.755 -1.56801 0.158532 0
M  V30 2729 C 254.002 -1.9649 -0.489679 0
M  V30 2730 C 254.33 -1.04394 -1.6411 0
M  V30 2731 O 253.585 -0.0754401 -1.95555 0
M  V30 2732 C 253.884 -3.4235 -1.02623 0
M  V30 2733 C 253.55 -4.50899 0.00794526 0
M  V30 2734 C 252.212 -4.80312 0.292207 0
M  V30 2735 C 254.564 -5.16333 0.710584 0
M  V30 2736 C 251.892 -5.72461 1.28472 0
M  V30 2737 C 254.244 -6.09553 1.69199 0
M  V30 2738 C 252.908 -6.37339 1.98383 0
M  V30 2739 H 252.178 -0.719009 -0.179186 0
M  V30 2740 H 254.825 -1.8989 0.247798 0
M  V30 2741 H 253.13 -3.45838 -1.84128 0
M  V30 2742 H 254.827 -3.70393 -1.53656 0
M  V30 2743 H 251.417 -4.28015 -0.22379 0
M  V30 2744 H 255.601 -4.93732 0.504174 0
M  V30 2745 H 250.857 -5.92278 1.51714 0
M  V30 2746 H 255.031 -6.59327 2.24189 0
M  V30 2747 H 252.658 -7.08546 2.7544 0
M  V30 2748 N 254.233 0.115231 -1.57178 0
M  V30 2749 C 255.481 0.820727 -1.84685 0
M  V30 2750 C 255.802 1.80237 -0.744279 0
M  V30 2751 O 255.072 1.94529 0.231375 0
M  V30 2752 H 253.652 0.306084 -0.681411 0
M  V30 2753 H 256.314 0.101656 -1.94635 0
M  V30 2754 H 255.41 1.36366 -2.80733 0
M  V30 2755 N 255.711 1.52812 0.385517 0
M  V30 2756 C 256.641 1.80808 1.47752 0
M  V30 2757 C 257.622 0.660318 1.5676 0
M  V30 2758 O 258.807 0.908246 1.71652 0
M  V30 2759 C 255.937 1.98008 2.85324 0
M  V30 2760 C 254.891 3.13709 2.91154 0
M  V30 2761 C 254.217 3.16169 4.31209 0
M  V30 2762 C 255.517 4.52709 2.60483 0
M  V30 2763 H 257.211 2.72253 1.24573 0
M  V30 2764 H 254.757 1.31003 0.597839 0
M  V30 2765 H 256.71 2.16176 3.61726 0
M  V30 2766 H 255.434 1.03255 3.09848 0
M  V30 2767 H 254.093 2.95329 2.17201 0
M  V30 2768 H 253.741 2.19092 4.52778 0
M  V30 2769 H 253.441 3.93894 4.36029 0
M  V30 2770 H 254.965 3.36496 5.09512 0
M  V30 2771 H 256.379 4.71173 3.26602 0
M  V30 2772 H 254.776 5.32528 2.76648 0
M  V30 2773 H 255.846 4.59186 1.55809 0
M  V30 2774 N 257.189 -0.644168 1.43834 0
M  V30 2775 C 258.152 -1.73857 1.49353 0
M  V30 2776 C 259.152 -1.56315 0.377112 0
M  V30 2777 O 260.342 -1.62048 0.639226 0
M  V30 2778 C 257.474 -3.12819 1.35488 0
M  V30 2779 H 258.667 -1.70342 2.46827 0
M  V30 2780 H 256.22 -0.856652 1.30733 0
M  V30 2781 H 256.955 -3.2194 0.390569 0
M  V30 2782 H 256.74 -3.26958 2.16428 0
M  V30 2783 H 258.23 -3.92606 1.42302 0
M  V30 2784 N 258.668 -1.30515 -0.883378 0
M  V30 2785 C 260.084 -1.08881 -1.16692 0
M  V30 2786 C 260.284 0.149409 -2.00945 0
M  V30 2787 O 259.34 0.84257 -2.38027 0
M  V30 2788 C 260.653 -2.35319 -1.87204 0
M  V30 2789 C 262.201 -2.40799 -1.99962 0
M  V30 2790 C 262.676 -3.67083 -2.73887 0
M  V30 2791 N 264.167 -3.679 -2.81432 0
M  V30 2792 C 264.902 -4.62303 -3.3921 0
M  V30 2793 N 264.398 -5.67052 -3.98025 0
M  V30 2794 N 266.191 -4.49845 -3.3704 0
M  V30 2795 H 258.342 -2.09951 -0.321633 0
M  V30 2796 H 260.605 -0.92556 -0.205043 0
M  V30 2797 H 260.311 -3.25689 -1.3274 0
M  V30 2798 H 260.185 -2.44089 -2.87577 0
M  V30 2799 H 262.572 -1.50907 -2.53597 0
M  V30 2800 H 262.653 -2.36003 -0.98673 0
M  V30 2801 H 262.297 -4.57334 -2.20925 0
M  V30 2802 H 262.227 -3.69141 -3.75556 0
M  V30 2803 H 264.718 -2.92171 -2.39676 0
M  V30 2804 H 265.031 -6.35184 -4.40183 0
M  V30 2805 H 263.376 -5.70842 -3.96439 0
M  V30 2806 H 266.567 -3.67194 -2.90321 0
M  V30 2807 H 266.74 -5.23597 -3.81772 0
M  V30 2808 N 260.146 1.09593 -1.13257 0
M  V30 2809 C 261.395 1.81105 -0.887917 0
M  V30 2810 C 261.708 1.86563 0.587672 0
M  V30 2811 O 262.914 2.54367 0.949204 0
M  V30 2812 C 261.37 3.25338 -1.53895 0
M  V30 2813 C 260.978 3.28151 -3.04994 0
M  V30 2814 C 262.722 4.01617 -1.37492 0
M  V30 2815 C 260.629 4.66897 -3.6299 0
M  V30 2816 H 259.559 0.678661 -0.328534 0
M  V30 2817 H 262.21 1.23183 -1.36008 0
M  V30 2818 H 260.592 3.8331 -0.994446 0
M  V30 2819 H 261.766 2.79953 -3.66009 0
M  V30 2820 H 260.081 2.65361 -3.20893 0
M  V30 2821 H 262.678 5.04119 -1.78235 0
M  V30 2822 H 263.021 4.15072 -0.31957 0
M  V30 2823 H 263.554 3.50082 -1.88912 0
M  V30 2824 H 260.293 4.58643 -4.68323 0
M  V30 2825 H 259.813 5.15426 -3.06752 0
M  V30 2826 H 261.492 5.3587 -3.62563 0
M  V30 2827 N 261.624 0.925811 1.2754 0
M  V30 2828 C 262.557 0.367836 2.25216 0
M  V30 2829 C 263.535 -0.534738 1.53556 0
M  V30 2830 O 264.719 -0.475672 1.824 0
M  V30 2831 C 261.846 -0.47298 3.35381 0
M  V30 2832 C 260.892 0.365898 4.24928 0
M  V30 2833 S 261.725 1.78025 5.05042 0
M  V30 2834 C 262.881 0.947068 6.18693 0
M  V30 2835 H 263.114 1.19568 2.72196 0
M  V30 2836 H 260.647 0.727867 1.36167 0
M  V30 2837 H 262.605 -0.952242 3.99303 0
M  V30 2838 H 261.266 -1.27533 2.87044 0
M  V30 2839 H 260.459 -0.277582 5.03235 0
M  V30 2840 H 260.061 0.779261 3.65792 0
M  V30 2841 H 262.353 0.182201 6.77255 0
M  V30 2842 H 263.296 1.70309 6.87314 0
M  V30 2843 H 263.704 0.489913 5.6237 0
M  V30 2844 N 263.102 -1.41638 0.69111 0
M  V30 2845 C 264.379 -1.95036 0.148421 0
M  V30 2846 C 264.759 -1.63072 -1.34055 0
M  V30 2847 O 264.107 -0.93538 -2.08478 0
M  V30 2848 C 264.317 -3.46279 0.434951 0
M  V30 2849 C 265.665 -4.23069 0.360275 0
M  V30 2850 O 266.689 -3.54277 0.369613 0
M  V30 2851 O 265.548 -5.45583 0.316534 0
M  V30 2852 H 262.642 -0.826908 0.0123654 0
M  V30 2853 H 265.188 -1.5138 0.766963 0
M  V30 2854 H 263.96 -3.6281 1.46576 0
M  V30 2855 H 263.583 -3.97019 -0.214787 0
M  V30 2856 N 264.58 -0.43555 -1.51462 0
M  V30 2857 C 265.991 0.0279871 -1.86679 0
M  V30 2858 C 266.342 1.42104 -1.35281 0
M  V30 2859 O 265.467 2.04667 -0.702878 0
M  V30 2860 C 266.062 0.0575626 -3.38751 0
M  V30 2861 C 264.621 0.465507 -3.7351 0
M  V30 2862 C 263.768 -0.342996 -2.75171 0
M  V30 2863 H 266.719 -0.651473 -1.44712 0
M  V30 2864 H 266.74 0.867421 -3.70481 0
M  V30 2865 H 266.252 -0.956448 -3.7613 0
M  V30 2866 H 264.353 1.48519 -3.41721 0
M  V30 2867 H 264.466 0.191546 -4.78717 0
M  V30 2868 H 262.83 0.198442 -2.53926 0
M  V30 2869 H 263.613 -1.35585 -3.15391 0
M  V30 2870 N 266.058 1.56714 -0.166846 0
M  V30 2871 C 267.008 2.14338 0.777382 0
M  V30 2872 C 267.992 1.07642 1.19591 0
M  V30 2873 O 269.184 1.33775 1.15902 0
M  V30 2874 C 266.313 2.78417 2.00846 0
M  V30 2875 C 265.399 3.92264 1.61212 0
M  V30 2876 N 265.79 4.97268 0.925104 0
M  V30 2877 C 264.088 4.03342 1.90346 0
M  V30 2878 C 264.789 5.77093 0.730627 0
M  V30 2879 N 263.765 5.2854 1.27067 0
M  V30 2880 H 267.567 2.9289 0.243466 0
M  V30 2881 H 265.081 1.62364 0.0339954 0
M  V30 2882 H 267.078 3.18073 2.69509 0
M  V30 2883 H 265.738 2.01344 2.54736 0
M  V30 2884 H 266.749 5.14601 0.583646 0
M  V30 2885 H 263.426 3.37368 2.45946 0
M  V30 2886 H 264.816 6.71638 0.187668 0
M  V30 2887 N 267.536 -0.106894 1.57237 0
M  V30 2888 C 268.766 -0.825191 1.89405 0
M  V30 2889 C 269.174 -1.73374 0.757496 0
M  V30 2890 O 268.517 -1.81552 -0.280115 0
M  V30 2891 C 268.579 -1.70102 3.1671 0
M  V30 2892 C 268.243 -0.965523 4.46684 0
M  V30 2893 C 269.24 -0.300741 5.19029 0
M  V30 2894 C 266.925 -0.943105 4.93367 0
M  V30 2895 C 268.919 0.376622 6.36286 0
M  V30 2896 C 266.606 -0.261949 6.10538 0
M  V30 2897 C 267.604 0.396748 6.81847 0
M  V30 2898 O 267.292 1.06701 7.96787 0
M  V30 2899 H 267.024 -0.241852 0.631255 0
M  V30 2900 H 269.578 -0.0921491 2.05193 0
M  V30 2901 H 267.808 -2.47601 2.97036 0
M  V30 2902 H 269.497 -2.29483 3.34802 0
M  V30 2903 H 270.263 -0.309599 4.84011 0
M  V30 2904 H 266.142 -1.44524 4.3776 0
M  V30 2905 H 269.686 0.891334 6.91882 0
M  V30 2906 H 265.583 -0.250896 6.45012 0
M  V30 2907 H 266.351 0.972707 8.127 0
M  V30 2908 N 269.014 -1.53014 -0.377408 0
M  V30 2909 C 270.239 -1.72818 -1.14668 0
M  V30 2910 C 270.664 -0.450725 -1.8262 0
M  V30 2911 O 270.022 0.59439 -1.7128 0
M  V30 2912 C 270.07 -2.88627 -2.16164 0
M  V30 2913 O 269.174 -2.56409 -3.22998 0
M  V30 2914 H 268.515 -0.574301 -0.333278 0
M  V30 2915 H 271.045 -1.99853 -0.438152 0
M  V30 2916 H 271.055 -3.14455 -2.59966 0
M  V30 2917 H 269.73 -3.81294 -1.66095 0
M  V30 2918 H 268.307 -2.4136 -2.84253 0
M  V30 2919 N 270.492 0.636531 -1.44174 0
M  V30 2920 C 271.442 1.74233 -1.47061 0
M  V30 2921 C 272.426 1.57331 -0.337034 0
M  V30 2922 O 273.618 1.67159 -0.581973 0
M  V30 2923 C 270.747 3.12897 -1.41246 0
M  V30 2924 C 269.833 3.35288 -2.59698 0
M  V30 2925 N 270.224 3.2807 -3.84972 0
M  V30 2926 C 268.522 3.66065 -2.54778 0
M  V30 2927 C 269.223 3.51001 -4.63867 0
M  V30 2928 N 268.199 3.73616 -3.94857 0
M  V30 2929 H 272.001 1.67103 -2.41773 0
M  V30 2930 H 269.515 0.838806 -1.3906 0
M  V30 2931 H 271.512 3.92189 -1.41398 0
M  V30 2932 H 270.172 3.21197 -0.47569 0
M  V30 2933 H 271.183 3.07109 -4.17019 0
M  V30 2934 H 267.86 3.81379 -1.6987 0
M  V30 2935 H 269.25 3.51059 -5.72894 0
M  V30 2936 N 271.97 1.30982 0.876444 0
M  V30 2937 C 272.917 1.18085 1.98304 0
M  V30 2938 C 273.887 0.0682263 1.6596 0
M  V30 2939 O 275.072 0.239937 1.89285 0
M  V30 2940 C 272.212 0.887475 3.33493 0
M  V30 2941 C 271.325 2.08281 3.78475 0
M  V30 2942 C 270.46 1.72678 5.0235 0
M  V30 2943 C 269.499 2.88657 5.39762 0
M  V30 2944 N 268.636 2.53292 6.54819 0
M  V30 2945 H 273.476 2.1275 2.08666 0
M  V30 2946 H 271.013 1.05839 1.02159 0
M  V30 2947 H 272.971 0.697961 4.1132 0
M  V30 2948 H 271.601 -0.022315 3.22792 0
M  V30 2949 H 270.653 2.3833 2.96484 0
M  V30 2950 H 271.965 2.95108 4.02135 0
M  V30 2951 H 271.119 1.50151 5.87826 0
M  V30 2952 H 269.858 0.830327 4.8058 0
M  V30 2953 H 268.863 3.1184 4.52809 0
M  V30 2954 H 270.088 3.79002 5.63502 0
M  V30 2955 H 268.034 1.66163 6.34607 0
M  V30 2956 H 267.951 3.3365 6.7839 0
M  V30 2957 H 269.219 2.34143 7.43503 0
M  V30 2958 N 273.449 -1.08991 1.13837 0
M  V30 2959 C 274.697 -1.80899 0.901098 0
M  V30 2960 C 275.018 -1.86356 -0.574134 0
M  V30 2961 O 274.288 -1.35235 -1.41733 0
M  V30 2962 H 272.868 -0.669966 0.330386 0
M  V30 2963 H 275.53 -1.318 1.43578 0
M  V30 2964 H 274.626 -2.83929 1.29578 0
M  V30 2965 N 274.927 -0.932562 -1.27047 0
M  V30 2966 C 275.877 -0.406392 -2.24349 0
M  V30 2967 C 276.861 0.492066 -1.53191 0
M  V30 2968 O 278.053 0.328717 -1.73921 0
M  V30 2969 C 275.182 0.335214 -3.41659 0
M  V30 2970 C 274.268 -0.58004 -4.20115 0
M  V30 2971 N 274.659 -1.70203 -4.76303 0
M  V30 2972 C 272.957 -0.383974 -4.44344 0
M  V30 2973 C 273.658 -2.27167 -5.35509 0
M  V30 2974 N 272.634 -1.56068 -5.20715 0
M  V30 2975 H 276.436 -1.26299 -2.65378 0
M  V30 2976 H 273.95 -0.787408 -1.42034 0
M  V30 2977 H 275.947 0.729142 -4.10474 0
M  V30 2978 H 274.607 1.18868 -3.0216 0
M  V30 2979 H 275.618 -2.08433 -4.74106 0
M  V30 2980 H 272.295 0.428436 -4.15296 0
M  V30 2981 H 273.685 -3.21654 -5.89905 0
M  V30 2982 N 276.405 1.4127 -0.698611 0
M  V30 2983 C 277.335 2.33447 -0.049629 0
M  V30 2984 C 278.316 1.51982 0.763898 0
M  V30 2985 O 279.501 1.80509 0.716257 0
M  V30 2986 C 276.631 3.35828 0.885267 0
M  V30 2987 C 275.585 4.27627 0.178613 0
M  V30 2988 C 274.911 5.20406 1.22807 0
M  V30 2989 C 276.211 5.13459 -0.956933 0
M  V30 2990 H 277.905 2.87966 -0.81951 0
M  V30 2991 H 275.451 1.38461 -0.395538 0
M  V30 2992 H 277.404 3.9924 1.34854 0
M  V30 2993 H 276.128 2.79666 1.68685 0
M  V30 2994 H 274.787 3.65643 -0.26466 0
M  V30 2995 H 274.435 4.60558 2.02226 0
M  V30 2996 H 274.135 5.82661 0.760239 0
M  V30 2997 H 275.659 5.86695 1.69179 0
M  V30 2998 H 277.073 5.70421 -0.573805 0
M  V30 2999 H 275.47 5.8467 -1.35205 0
M  V30 3000 H 276.54 4.50443 -1.79524 0
M  V30 3001 N 277.883 0.443576 1.51229 0
M  V30 3002 C 279.108 -0.121648 2.07043 0
M  V30 3003 C 279.533 -1.35156 1.30823 0
M  V30 3004 O 278.891 -1.7793 0.347934 0
M  V30 3005 C 278.939 -0.41624 3.5819 0
M  V30 3006 O 278.043 -1.50163 3.8409 0
M  V30 3007 H 277.384 0.000871367 0.663999 0
M  V30 3008 H 279.914 0.626706 1.94765 0
M  V30 3009 H 279.924 -0.664867 4.02546 0
M  V30 3010 H 278.599 0.482653 4.1309 0
M  V30 3011 H 277.176 -1.24248 3.51592 0
M  V30 3012 N 279.361 -1.56624 0.175154 0
M  V30 3013 C 280.271 -2.21741 -0.766042 0
M  V30 3014 C 281.287 -1.21023 -1.25018 0
M  V30 3015 O 282.463 -1.53697 -1.3015 0
M  V30 3016 C 279.528 -2.84839 -1.97655 0
M  V30 3017 C 278.589 -4.00769 -1.53892 0
M  V30 3018 C 277.822 -4.60849 -2.69173 0
M  V30 3019 O 278.045 -4.19823 -3.86141 0
M  V30 3020 O 276.979 -5.50655 -2.43028 0
M  V30 3021 H 280.805 -3.02738 -0.241585 0
M  V30 3022 H 278.39 -1.49305 -0.053222 0
M  V30 3023 H 280.272 -3.24834 -2.68442 0
M  V30 3024 H 278.947 -2.06836 -2.48999 0
M  V30 3025 H 277.854 -3.65436 -0.80044 0
M  V30 3026 H 279.187 -4.80376 -1.07236 0
M  V30 3027 N 280.839 0.0985539 -1.57292 0
M  V30 3028 C 282.087 0.801092 -1.85545 0
M  V30 3029 C 282.408 1.79438 -0.763353 0
M  V30 3030 O 281.678 1.94763 0.21073 0
M  V30 3031 H 280.258 0.29884 -0.684619 0
M  V30 3032 H 282.92 0.0810064 -1.94732 0
M  V30 3033 H 282.016 1.3338 -2.82163 0
M  V30 3034 N 282.317 1.53212 0.369288 0
M  V30 3035 C 283.247 1.82365 1.45826 0
M  V30 3036 C 284.228 0.676907 1.56051 0
M  V30 3037 O 285.413 0.926401 1.70679 0
M  V30 3038 C 282.543 2.01023 2.83208 0
M  V30 3039 C 281.497 3.1678 2.8781 0
M  V30 3040 C 280.823 3.20724 4.27832 0
M  V30 3041 C 282.123 4.55447 2.55667 0
M  V30 3042 H 283.817 2.73559 1.21678 0
M  V30 3043 H 281.363 1.3163 0.583911 0
M  V30 3044 H 283.316 2.20001 3.59413 0
M  V30 3045 H 282.04 1.06536 3.08736 0
M  V30 3046 H 280.699 2.97616 2.14056 0
M  V30 3047 H 280.347 2.23882 4.50429 0
M  V30 3048 H 280.047 3.98496 4.31827 0
M  V30 3049 H 281.571 3.41881 5.05915 0
M  V30 3050 H 282.985 4.74611 3.21586 0
M  V30 3051 H 281.382 5.35432 2.70984 0
M  V30 3052 H 282.452 4.60812 1.5093 0
M  V30 3053 N 283.795 -0.628877 1.44509 0
M  V30 3054 C 285.041 -1.39045 1.47629 0
M  V30 3055 C 285.374 -1.93892 0.109343 0
M  V30 3056 O 284.649 -1.7379 -0.87334 0
M  V30 3057 C 284.932 -2.55408 2.53848 0
M  V30 3058 C 284.785 -2.05896 3.99909 0
M  V30 3059 C 286.104 -3.5759 2.56549 0
M  V30 3060 H 283.223 -0.504232 0.537512 0
M  V30 3061 H 285.865 -0.710854 1.76201 0
M  V30 3062 H 284.015 -3.13384 2.29615 0
M  V30 3063 H 285.687 -1.52734 4.35282 0
M  V30 3064 H 283.93 -1.37061 4.11578 0
M  V30 3065 H 284.601 -2.89681 4.69882 0
M  V30 3066 H 287.077 -3.09419 2.78207 0
M  V30 3067 H 285.953 -4.36527 3.32769 0
M  V30 3068 H 286.214 -4.11808 1.60832 0
M  V30 3069 N 285.273 -1.31445 -0.869486 0
M  V30 3070 C 286.501 -1.24122 -1.65534 0
M  V30 3071 C 286.916 0.193387 -1.87807 0
M  V30 3072 O 286.273 1.12557 -1.43656 0
M  V30 3073 C 286.324 -1.98229 -3.02304 0
M  V30 3074 O 286.045 -3.3609 -2.81026 0
M  V30 3075 C 287.546 -1.97751 -3.96749 0
M  V30 3076 H 284.766 -0.428868 -0.516055 0
M  V30 3077 H 287.31 -1.73328 -1.08525 0
M  V30 3078 H 285.465 -1.52782 -3.56001 0
M  V30 3079 H 285.879 -3.7383 -3.67902 0
M  V30 3080 H 287.353 -2.54114 -4.90031 0
M  V30 3081 H 287.83 -0.960137 -4.28577 0
M  V30 3082 H 288.436 -2.43079 -3.48988 0
M  V30 3083 N 286.751 1.08385 -1.14413 0
M  V30 3084 C 287.698 2.15311 -0.831265 0
M  V30 3085 C 288.668 1.64751 0.211292 0
M  V30 3086 O 289.853 1.90627 0.0811674 0
M  V30 3087 C 286.993 3.43658 -0.315143 0
M  V30 3088 C 286.106 4.08064 -1.41802 0
M  V30 3089 C 285.241 5.24207 -0.859126 0
M  V30 3090 C 284.28 5.80554 -1.93967 0
M  V30 3091 N 283.417 6.88042 -1.39793 0
M  V30 3092 H 288.257 2.41415 -1.74708 0
M  V30 3093 H 285.794 1.18474 -0.871909 0
M  V30 3094 H 287.752 4.172 0.00230884 0
M  V30 3095 H 286.382 3.17839 0.56378 0
M  V30 3096 H 285.434 3.3228 -1.85187 0
M  V30 3097 H 286.746 4.45962 -2.23427 0
M  V30 3098 H 285.9 6.04689 -0.49359 0
M  V30 3099 H 284.639 4.87699 -0.011932 0
M  V30 3100 H 283.644 4.98725 -2.31415 0
M  V30 3101 H 284.869 6.19121 -2.79046 0
M  V30 3102 H 282.815 6.53493 -0.572919 0
M  V30 3103 H 282.732 7.24767 -2.15054 0
M  V30 3104 H 284 7.72255 -1.0603 0
M  V30 3105 N 288.23 0.939286 1.26551 0
M  V30 3106 C 289.476 0.596234 1.94465 0
M  V30 3107 C 289.831 -0.855013 1.72358 0
M  V30 3108 O 289.124 -1.6034 1.04889 0
M  V30 3109 C 289.318 0.872106 3.46596 0
M  V30 3110 C 289.147 2.34862 3.83497 0
M  V30 3111 C 287.917 3.00344 4.06352 0
M  V30 3112 C 290.115 3.32697 3.92195 0
M  V30 3113 N 288.097 4.38027 4.30123 0
M  V30 3114 C 289.468 4.55631 4.20476 0
M  V30 3115 C 291.523 3.27747 3.74815 0
M  V30 3116 C 290.226 5.74233 4.33185 0
M  V30 3117 C 292.252 4.45672 3.88755 0
M  V30 3118 C 291.614 5.67388 4.17433 0
M  V30 3119 H 287.713 0.268515 0.734455 0
M  V30 3120 H 290.297 1.2083 1.5267 0
M  V30 3121 H 288.468 0.289102 3.87323 0
M  V30 3122 H 290.2 0.490513 4.01716 0
M  V30 3123 H 286.955 2.50969 4.01636 0
M  V30 3124 H 287.379 5.09288 4.46044 0
M  V30 3125 H 292.021 2.34703 3.51673 0
M  V30 3126 H 289.739 6.67731 4.55149 0
M  V30 3127 H 293.325 4.43372 3.76713 0
M  V30 3128 H 292.205 6.57115 4.27983 0
M  V30 3129 N 289.708 -1.40897 0.706093 0
M  V30 3130 C 290.938 -2.05075 0.250523 0
M  V30 3131 C 291.346 -1.53275 -1.10921 0
M  V30 3132 O 290.689 -0.680281 -1.7064 0
M  V30 3133 C 290.751 -3.59219 0.142178 0
M  V30 3134 C 290.415 -4.33864 1.43566 0
M  V30 3135 C 291.412 -4.62448 2.37566 0
M  V30 3136 C 289.097 -4.72946 1.69195 0
M  V30 3137 C 291.091 -5.29088 3.5545 0
M  V30 3138 C 288.778 -5.3932 2.87362 0
M  V30 3139 C 289.776 -5.6732 3.80312 0
M  V30 3140 O 289.464 -6.32325 4.96408 0
M  V30 3141 H 289.196 -0.666645 0.112074 0
M  V30 3142 H 291.75 -1.81467 0.962239 0
M  V30 3143 H 289.98 -3.81609 -0.6254 0
M  V30 3144 H 291.669 -4.0495 -0.277584 0
M  V30 3145 H 292.435 -4.32727 2.19027 0
M  V30 3146 H 288.314 -4.50527 0.977042 0
M  V30 3147 H 291.858 -5.50859 4.28018 0
M  V30 3148 H 287.755 -5.68461 3.05814 0
M  V30 3149 H 288.523 -6.50821 4.9636 0
M  V30 3150 N 291.186 -0.45159 -1.50991 0
M  V30 3151 C 292.602 -0.104647 -1.59257 0
M  V30 3152 C 292.802 1.38728 -1.4614 0
M  V30 3153 O 291.858 2.15866 -1.30989 0
M  V30 3154 C 293.171 -0.637468 -2.93865 0
M  V30 3155 C 294.719 -0.599166 -3.07212 0
M  V30 3156 C 295.194 -1.1092 -4.44366 0
M  V30 3157 N 296.685 -1.06778 -4.50725 0
M  V30 3158 C 297.42 -1.43314 -5.55201 0
M  V30 3159 N 296.916 -1.87204 -6.67028 0
M  V30 3160 N 298.709 -1.3504 -5.45638 0
M  V30 3161 H 290.86 -1.42214 -1.57762 0
M  V30 3162 H 293.123 -0.586921 -0.744465 0
M  V30 3163 H 292.829 -1.68187 -3.08879 0
M  V30 3164 H 292.703 -0.0702139 -3.77135 0
M  V30 3165 H 295.09 0.436277 -2.91857 0
M  V30 3166 H 295.171 -1.20299 -2.25747 0
M  V30 3167 H 294.815 -2.14318 -4.60467 0
M  V30 3168 H 294.745 -0.481773 -5.24392 0
M  V30 3169 H 297.236 -0.745643 -3.70471 0
M  V30 3170 H 297.549 -2.13282 -7.42786 0
M  V30 3171 H 295.894 -1.91142 -6.68199 0
M  V30 3172 H 299.085 -1.00607 -4.57161 0
M  V30 3173 H 299.258 -1.63841 -6.26945 0
M  V30 3174 N 292.664 1.56529 -0.183458 0
M  V30 3175 C 293.889 2.02064 0.467428 0
M  V30 3176 C 294.314 1.06282 1.55196 0
M  V30 3177 O 293.672 0.0443565 1.81246 0
M  V30 3178 C 293.72 3.46122 1.01153 0
M  V30 3179 O 292.824 3.53437 2.12499 0
M  V30 3180 H 292.165 0.654726 0.110588 0
M  V30 3181 H 294.695 2.02521 -0.290917 0
M  V30 3182 H 294.705 3.85676 1.33108 0
M  V30 3183 H 293.38 4.15331 0.217533 0
M  V30 3184 H 291.957 3.2575 1.81497 0
M  V30 3185 N 294.142 -0.090211 1.57342 0
M  V30 3186 C 295.553 -0.644173 1.75235 0
M  V30 3187 C 295.904 -1.78865 0.806335 0
M  V30 3188 O 295.029 -2.16395 -0.0140128 0
M  V30 3189 C 295.624 -1.17532 3.1776 0
M  V30 3190 C 294.183 -1.67531 3.37061 0
M  V30 3191 C 293.33 -0.58693 2.71017 0
M  V30 3192 H 296.281 0.135884 1.58117 0
M  V30 3193 H 296.302 -2.04455 3.20902 0
M  V30 3194 H 295.814 -0.342138 3.86589 0
M  V30 3195 H 293.915 -2.53234 2.73319 0
M  V30 3196 H 294.028 -1.76493 4.45406 0
M  V30 3197 H 292.392 -1.02756 2.33052 0
M  V30 3198 H 293.175 0.235758 3.4249 0
M  V30 3199 N 295.62 -1.53406 -0.361157 0
M  V30 3200 C 297.036 -1.43277 -0.703124 0
M  V30 3201 C 297.236 -0.575384 -1.9311 0
M  V30 3202 O 296.292 -0.0595362 -2.5243 0
M  V30 3203 C 297.605 -2.8653 -0.9122 0
M  V30 3204 C 299.153 -2.96191 -1.01193 0
M  V30 3205 C 299.628 -4.40514 -1.25345 0
M  V30 3206 N 301.119 -4.43962 -1.32105 0
M  V30 3207 C 301.854 -5.52746 -1.5251 0
M  V30 3208 N 301.35 -6.71567 -1.70203 0
M  V30 3209 N 303.143 -5.40331 -1.54916 0
M  V30 3210 H 295.294 -2.07654 0.446475 0
M  V30 3211 H 297.557 -0.937944 0.137715 0
M  V30 3212 H 297.263 -3.51605 -0.0816414 0
M  V30 3213 H 297.137 -3.30441 -1.81903 0
M  V30 3214 H 299.524 -2.31266 -1.83303 0
M  V30 3215 H 299.605 -2.55667 -0.0823929 0
M  V30 3216 H 299.249 -5.06014 -0.437346 0
M  V30 3217 H 299.179 -4.78614 -2.19627 0
M  V30 3218 H 301.67 -3.58332 -1.20028 0
M  V30 3219 H 301.983 -7.50241 -1.85359 0
M  V30 3220 H 300.328 -6.74545 -1.67373 0
M  V30 3221 H 303.519 -4.46465 -1.40663 0
M  V30 3222 H 303.692 -6.25173 -1.70477 0
M  V30 3223 N 297.098 0.621204 -1.44841 0
M  V30 3224 C 298.028 1.74366 -1.55303 0
M  V30 3225 C 299.009 1.65199 -0.405385 0
M  V30 3226 O 300.194 1.83807 -0.626787 0
M  V30 3227 C 297.324 3.12931 -1.50637 0
M  V30 3228 C 296.278 3.36896 -2.63979 0
M  V30 3229 C 295.604 4.75594 -2.44366 0
M  V30 3230 C 296.904 3.28483 -4.06074 0
M  V30 3231 H 298.598 1.65867 -2.49256 0
M  V30 3232 H 296.144 0.796558 -1.19962 0
M  V30 3233 H 298.097 3.9124 -1.56555 0
M  V30 3234 H 296.821 3.22237 -0.532057 0
M  V30 3235 H 295.48 2.60972 -2.57467 0
M  V30 3236 H 295.128 4.81616 -1.45105 0
M  V30 3237 H 294.828 4.92586 -3.20364 0
M  V30 3238 H 296.352 5.5612 -2.52117 0
M  V30 3239 H 297.766 3.96684 -4.13902 0
M  V30 3240 H 296.163 3.57008 -4.82354 0
M  V30 3241 H 297.233 2.26133 -4.28943 0
M  V30 3242 N 298.576 1.31904 0.862503 0
M  V30 3243 C 299.506 1.22782 1.98612 0
M  V30 3244 C 300.487 0.113362 1.69722 0
M  V30 3245 O 301.672 0.299218 1.91881 0
M  V30 3246 C 298.802 0.942058 3.34279 0
M  V30 3247 C 297.756 2.0169 3.77499 0
M  V30 3248 C 297.082 1.58369 5.10709 0
M  V30 3249 C 298.382 3.43096 3.93805 0
M  V30 3250 H 300.076 2.16788 2.06502 0
M  V30 3251 H 297.622 1.04366 0.992154 0
M  V30 3252 H 299.575 0.864818 4.1243 0
M  V30 3253 H 298.299 -0.0336603 3.26583 0
M  V30 3254 H 296.958 2.08416 3.01593 0
M  V30 3255 H 296.606 0.595628 4.99461 0
M  V30 3256 H 296.306 2.30279 5.40597 0
M  V30 3257 H 297.83 1.52067 5.91361 0
M  V30 3258 H 299.244 3.39003 4.62331 0
M  V30 3259 H 297.641 4.13288 4.35101 0
M  V30 3260 H 298.711 3.83334 2.96957 0
M  V30 3261 N 300.054 -1.07777 1.14986 0
M  V30 3262 C 300.984 -2.16865 0.865557 0
M  V30 3263 C 301.965 -1.69123 -0.182083 0
M  V30 3264 O 303.15 -1.94164 -0.0373815 0
M  V30 3265 C 300.28 -3.45539 0.349313 0
M  V30 3266 C 299.234 -4.06708 1.33313 0
M  V30 3267 C 298.56 -5.30411 0.675918 0
M  V30 3268 C 299.86 -4.47241 2.69764 0
M  V30 3269 H 301.554 -2.40905 1.77778 0
M  V30 3270 H 299.1 -1.15781 0.856203 0
M  V30 3271 H 301.053 -4.21174 0.137983 0
M  V30 3272 H 299.777 -3.21072 -0.598362 0
M  V30 3273 H 298.436 -3.33112 1.53075 0
M  V30 3274 H 298.084 -5.02232 -0.277767 0
M  V30 3275 H 297.784 -5.72293 1.33244 0
M  V30 3276 H 299.308 -6.08755 0.474262 0
M  V30 3277 H 300.722 -5.14025 2.53873 0
M  V30 3278 H 299.119 -5.00062 3.3175 0
M  V30 3279 H 300.189 -3.58818 3.26156 0
M  V30 3280 N 301.532 -0.945985 -1.26051 0
M  V30 3281 C 302.757 -0.612525 -1.98149 0
M  V30 3282 C 303.182 0.806623 -1.69927 0
M  V30 3283 O 302.54 1.54411 -0.950108 0
M  V30 3284 C 302.588 -0.866981 -3.50023 0
M  V30 3285 O 301.692 0.0585333 -4.12358 0
M  V30 3286 H 301.033 -0.23379 -0.621481 0
M  V30 3287 H 303.563 -1.27023 -1.60395 0
M  V30 3288 H 303.573 -0.789792 -4.00283 0
M  V30 3289 H 302.248 -1.90135 -3.69894 0
M  V30 3290 H 300.825 -0.0701241 -3.72834 0
M  V30 3291 N 303.011 1.40521 -0.713556 0
M  V30 3292 C 304.422 1.83853 -0.324807 0
M  V30 3293 C 304.773 1.59667 1.14021 0
M  V30 3294 O 303.898 1.07649 1.87725 0
M  V30 3295 C 304.493 3.33751 -0.582746 0
M  V30 3296 C 303.052 3.75584 -0.247727 0
M  V30 3297 C 302.199 2.63753 -0.856121 0
M  V30 3298 H 305.15 1.29817 -0.91286 0
M  V30 3299 H 305.171 3.80194 0.152682 0
M  V30 3300 H 304.683 3.51322 -1.64908 0
M  V30 3301 H 302.784 3.63608 0.813624 0
M  V30 3302 H 302.897 4.7373 -0.715307 0
M  V30 3303 H 301.261 2.53108 -0.28432 0
M  V30 3304 H 302.044 2.84137 -1.92668 0
M  V30 3305 N 304.489 0.459591 1.5075 0
M  V30 3306 C 305.437 -0.354678 2.2988 0
M  V30 3307 C 306.431 -1.00086 1.36672 0
M  V30 3308 O 307.637 -0.933277 1.53915 0
M  V30 3309 H 304.012 -0.13321 0.740107 0
M  V30 3310 H 305.983 0.333269 2.96533 0
M  V30 3311 C 304.732 -1.43073 3.169 0
M  V30 3312 H 304.055 -0.942882 3.88523 0
M  V30 3313 H 305.495 -1.97328 3.75284 0
M  V30 3314 C 303.954 -2.42633 2.33732 0
M  V30 3315 O 304.484 -3.47658 2.01238 0
M  V30 3316 N 302.69 -2.14066 1.9653 0
M  V30 3317 H 302.237 -1.28685 2.23155 0
M  V30 3318 H 302.195 -2.80917 1.41185 0
M  V30 3319 N 305.967 -1.56429 0.191757 0
M  V30 3320 C 306.915 -2.20273 -0.747174 0
M  V30 3321 C 307.909 -1.17288 -1.22229 0
M  V30 3322 O 309.115 -1.35441 -1.18557 0
M  V30 3323 H 305.49 -0.705885 -0.259289 0
M  V30 3324 H 307.461 -2.97826 -0.184963 0
M  V30 3325 C 306.21 -2.87356 -1.95759 0
M  V30 3326 H 305.533 -3.66341 -1.60106 0
M  V30 3327 H 306.973 -3.3547 -2.59299 0
M  V30 3328 C 305.432 -1.88213 -2.79423 0
M  V30 3329 O 305.962 -1.38033 -3.7724 0
M  V30 3330 N 304.168 -1.56516 -2.44849 0
M  V30 3331 H 303.715 -1.97516 -1.65364 0
M  V30 3332 H 303.673 -0.904369 -3.01112 0
M  V30 3333 N 307.445 0.0818655 -1.57387 0
M  V30 3334 C 308.675 0.794954 -1.90694 0
M  V30 3335 C 309.083 1.72147 -0.784982 0
M  V30 3336 O 308.426 1.81974 0.251196 0
M  V30 3337 C 308.488 1.65042 -3.19376 0
M  V30 3338 C 308.152 0.894337 -4.48164 0
M  V30 3339 C 309.149 0.21813 -5.19442 0
M  V30 3340 C 306.834 0.864495 -4.94805 0
M  V30 3341 C 308.828 -0.477802 -6.35607 0
M  V30 3342 C 306.515 0.164785 -6.10878 0
M  V30 3343 C 307.513 -0.505173 -6.81129 0
M  V30 3344 O 307.201 -1.19363 -7.94989 0
M  V30 3345 H 306.933 0.231779 -0.635023 0
M  V30 3346 H 309.487 0.059493 -2.05314 0
M  V30 3347 H 307.717 2.42844 -3.00938 0
M  V30 3348 H 309.406 2.24127 -3.38411 0
M  V30 3349 H 310.172 0.232558 -4.84442 0
M  V30 3350 H 306.051 1.37542 -4.40004 0
M  V30 3351 H 309.595 -1.00129 -6.90377 0
M  V30 3352 H 305.492 0.148249 -6.4533 0
M  V30 3353 H 306.26 -1.10188 -8.11049 0
M  V30 3354 N 308.923 1.53595 0.353017 0
M  V30 3355 C 310.151 1.74311 1.1146 0
M  V30 3356 C 310.566 0.477854 1.82653 0
M  V30 3357 O 309.923 -0.549977 1.74016 0
M  V30 3358 C 309.974 2.91694 2.13534 0
M  V30 3359 O 309.695 4.13325 1.45238 0
M  V30 3360 C 311.196 3.24384 3.02142 0
M  V30 3361 H 308.416 0.582669 0.332773 0
M  V30 3362 H 310.96 2.00386 0.408107 0
M  V30 3363 H 309.115 2.67977 2.79763 0
M  V30 3364 H 309.529 4.79148 2.13349 0
M  V30 3365 H 311.003 4.09893 3.69718 0
M  V30 3366 H 311.48 2.40282 3.67643 0
M  V30 3367 H 312.086 3.50073 2.41514 0
M  V30 3368 N 310.401 -0.613514 1.45168 0
M  V30 3369 C 311.348 -1.72456 1.53387 0
M  V30 3370 C 312.318 -1.6169 0.380191 0
M  V30 3371 O 313.503 -1.81356 0.592836 0
M  V30 3372 C 310.643 -3.10753 1.50088 0
M  V30 3373 C 309.756 -3.32368 2.75963 0
M  V30 3374 C 308.891 -4.60737 2.64376 0
M  V30 3375 C 307.93 -4.7559 3.85332 0
M  V30 3376 N 307.067 -5.95253 3.72315 0
M  V30 3377 H 311.907 -1.64768 2.48305 0
M  V30 3378 H 309.444 -0.803503 1.23216 0
M  V30 3379 H 311.402 -3.90758 1.46164 0
M  V30 3380 H 310.032 -3.17413 0.587243 0
M  V30 3381 H 309.084 -2.4618 2.89999 0
M  V30 3382 H 310.396 -3.39218 3.65695 0
M  V30 3383 H 309.55 -5.48928 2.58385 0
M  V30 3384 H 308.289 -4.56275 1.72233 0
M  V30 3385 H 307.294 -3.85824 3.91688 0
M  V30 3386 H 308.519 -4.81854 4.78533 0
M  V30 3387 H 306.465 -5.91847 2.82937 0
M  V30 3388 H 306.382 -6.03236 4.55677 0
M  V30 3389 H 307.65 -6.85958 3.70246 0
M  V30 3390 N 311.879 -1.3236 -0.855495 0
M  V30 3391 C 312.842 -1.21164 -1.94556 0
M  V30 3392 C 313.842 -0.134908 -1.60233 0
M  V30 3393 O 315.032 -0.385249 -1.69887 0
M  V30 3394 C 312.164 -0.863192 -3.29791 0
M  V30 3395 H 313.357 -2.18038 -2.05911 0
M  V30 3396 H 310.91 -1.16179 -1.04557 0
M  V30 3397 H 311.645 0.103769 -3.24134 0
M  V30 3398 H 311.43 -1.64166 -3.56078 0
M  V30 3399 H 312.92 -0.809156 -4.09686 0
M  V30 3400 N 313.357 1.07166 -1.15556 0
M  V30 3401 C 314.606 1.79181 -0.926132 0
M  V30 3402 C 314.919 1.87768 0.547967 0
M  V30 3403 O 316.125 2.56323 0.895036 0
M  V30 3404 C 314.581 3.22 -1.60761 0
M  V30 3405 C 314.189 3.21607 -3.11886 0
M  V30 3406 C 315.933 3.9861 -1.4598 0
M  V30 3407 C 313.84 4.59092 -3.72812 0
M  V30 3408 H 312.77 0.67154 -0.342856 0
M  V30 3409 H 315.421 1.2027 -1.3859 0
M  V30 3410 H 313.803 3.81115 -1.07553 0
M  V30 3411 H 314.977 2.72127 -3.71865 0
M  V30 3412 H 313.292 2.58495 -3.2645 0
M  V30 3413 H 315.889 5.00225 -1.88888 0
M  V30 3414 H 316.232 4.143 -0.407541 0
M  V30 3415 H 316.765 3.45996 -1.96295 0
M  V30 3416 H 313.504 4.48606 -4.77946 0
M  V30 3417 H 313.024 5.08803 -3.17616 0
M  V30 3418 H 314.703 5.28059 -3.73848 0
M  V30 3419 N 314.835 0.952656 1.25548 0
M  V30 3420 C 316.112 0.523818 1.88456 0
M  V30 3421 C 316.492 -0.998871 1.85973 0
M  V30 3422 O 315.84 -1.86381 1.3219 0
M  V30 3423 C 316.05 1.0982 3.31271 0
M  V30 3424 C 317.398 1.17385 4.08051 0
M  V30 3425 O 318.422 1.04961 3.40384 0
M  V30 3426 O 317.281 1.36852 5.29088 0
M  V30 3427 H 314.375 0.172485 0.808813 0
M  V30 3428 H 316.921 1.04596 1.33633 0
M  V30 3429 H 315.693 2.1415 3.27499 0
M  V30 3430 H 315.316 0.559191 3.93648 0
M  V30 3431 N 316.313 -1.40141 0.720998 0
M  V30 3432 C 317.246 -2.2819 0.020916 0
M  V30 3433 C 318.224 -1.43633 -0.762129 0
M  V30 3434 O 319.408 -1.7304 -0.747633 0
M  V30 3435 C 316.535 -3.24281 -0.977715 0
M  V30 3436 C 315.581 -4.25548 -0.284836 0
M  V30 3437 S 316.414 -5.26247 0.991169 0
M  V30 3438 C 317.57 -6.259 -0.0052214 0
M  V30 3439 H 317.803 -2.87218 0.767649 0
M  V30 3440 H 315.336 -1.45656 0.512233 0
M  V30 3441 H 317.294 -3.80167 -1.54865 0
M  V30 3442 H 315.955 -2.643 -1.69719 0
M  V30 3443 H 315.148 -4.93154 -1.03996 0
M  V30 3444 H 314.75 -3.73389 0.213684 0
M  V30 3445 H 317.042 -6.72143 -0.850279 0
M  V30 3446 H 317.985 -7.05224 0.637599 0
M  V30 3447 H 318.393 -5.63277 -0.371366 0
M  V30 3448 N 317.792 -0.46758 -1.50504 0
M  V30 3449 C 319.038 0.0808869 -2.03239 0
M  V30 3450 C 319.393 1.37721 -1.34353 0
M  V30 3451 O 318.686 1.86016 -0.459194 0
M  V30 3452 C 318.88 0.323995 -3.55928 0
M  V30 3453 C 318.709 -0.947215 -4.39611 0
M  V30 3454 C 317.479 -1.48951 -4.82848 0
M  V30 3455 C 319.677 -1.84166 -4.80195 0
M  V30 3456 N 317.659 -2.71011 -5.50842 0
M  V30 3457 C 319.03 -2.90815 -5.47564 0
M  V30 3458 C 321.085 -1.85246 -4.62156 0
M  V30 3459 C 319.788 -3.98529 -5.98805 0
M  V30 3460 C 321.814 -2.91914 -5.14335 0
M  V30 3461 C 321.176 -3.97282 -5.81676 0
M  V30 3462 H 317.275 -0.0103394 -0.781932 0
M  V30 3463 H 319.859 -0.635003 -1.84054 0
M  V30 3464 H 318.03 1.00892 -3.75067 0
M  V30 3465 H 319.762 0.866492 -3.95315 0
M  V30 3466 H 316.517 -1.03918 -4.62058 0
M  V30 3467 H 316.941 -3.32988 -5.89447 0
M  V30 3468 H 321.583 -1.05103 -4.09528 0
M  V30 3469 H 319.301 -4.79491 -6.50472 0
M  V30 3470 H 322.887 -2.93729 -5.0221 0
M  V30 3471 H 321.767 -4.78462 -6.21324 0
M  V30 3472 N 319.27 1.56325 -0.20005 0
M  V30 3473 C 320.233 2.18084 0.705132 0
M  V30 3474 C 321.233 1.13666 1.1374 0
M  V30 3475 O 322.423 1.39023 1.04968 0
M  V30 3476 C 319.555 2.78689 1.96329 0
M  V30 3477 H 320.748 2.99435 0.167023 0
M  V30 3478 H 318.301 1.56221 0.0495725 0
M  V30 3479 H 319.036 2.0115 2.5438 0
M  V30 3480 H 318.821 3.55133 1.66202 0
M  V30 3481 H 320.311 3.26096 2.60866 0
M  V30 3482 N 320.748 -0.0735177 1.57428 0
M  V30 3483 C 321.711 -1.07192 2.02589 0
M  V30 3484 C 322.711 -1.31695 0.922661 0
M  V30 3485 O 323.901 -1.27445 1.18758 0
M  V30 3486 C 321.033 -2.41599 2.40506 0
M  V30 3487 H 322.226 -0.682727 2.92025 0
M  V30 3488 H 319.779 -0.319193 1.53006 0
M  V30 3489 H 320.514 -2.85354 1.5409 0
M  V30 3490 H 320.299 -2.25156 3.21009 0
M  V30 3491 H 321.789 -3.13367 2.76027 0
M  V30 3492 N 322.226 -1.5378 -0.344866 0
M  V30 3493 C 323.474 -1.70625 -1.08311 0
M  V30 3494 C 323.795 -0.471447 -1.89215 0
M  V30 3495 O 323.065 0.514616 -1.8902 0
M  V30 3496 H 321.645 -0.629058 -0.402859 0
M  V30 3497 H 324.307 -1.9103 -0.386459 0
M  V30 3498 H 323.403 -2.57656 -1.76124 0
M  V30 3499 N 323.704 0.605807 -1.45491 0
M  V30 3500 C 324.944 1.37606 -1.51142 0
M  V30 3501 C 325.308 1.91413 -0.150075 0
M  V30 3502 O 326.509 2.68677 -0.0812828 0
M  V30 3503 C 324.78 2.49197 -2.56195 0
M  V30 3504 S 326.339 3.36953 -2.81083 0
M  V30 3505 H 323.157 0.469118 -0.534275 0
M  V30 3506 H 325.759 0.698845 -1.82583 0
M  V30 3507 H 324.463 2.0802 -3.53773 0
M  V30 3508 H 323.994 3.21717 -2.26411 0
M  V30 3509 H 326.009 4.47395 -2.14598 0
M  V30 3510 N 325.182 1.32811 0.848464 0
M  V30 3511 C 326.431 1.23075 1.59798 0
M  V30 3512 C 326.744 -0.204419 1.94529 0
M  V30 3513 O 327.95 -0.423701 2.68173 0
M  V30 3514 C 326.406 2.15594 2.88179 0
M  V30 3515 C 326.014 3.64228 2.60849 0
M  V30 3516 C 327.758 2.14709 3.66197 0
M  V30 3517 C 325.665 4.48689 3.85269 0
M  V30 3518 H 324.595 0.457091 0.599653 0
M  V30 3519 H 327.246 1.57813 0.936342 0
M  V30 3520 H 325.628 1.73778 3.55833 0
M  V30 3521 H 326.802 4.14424 2.01467 0
M  V30 3522 H 325.117 3.67306 1.96151 0
M  V30 3523 H 327.714 2.75046 4.58534 0
M  V30 3524 H 328.057 1.13966 4.00397 0
M  V30 3525 H 328.59 2.54837 3.05455 0
M  V30 3526 H 325.329 5.5027 3.56207 0
M  V30 3527 H 324.849 4.03241 4.44024 0
M  V30 3528 H 326.528 4.62006 4.52946 0
M  V30 3529 N 326.66 -1.06551 1.16123 0
M  V30 3530 C 327.907 -1.79302 0.941126 0
M  V30 3531 C 328.235 -1.87105 -0.531235 0
M  V30 3532 O 327.49 -1.35692 -1.41018 0
M  V30 3533 C 327.789 -3.23911 1.51052 0
M  V30 3534 C 327.455 -3.36193 3.00475 0
M  V30 3535 C 326.117 -3.39252 3.41265 0
M  V30 3536 C 328.469 -3.38326 3.96465 0
M  V30 3537 C 325.797 -3.42057 4.76669 0
M  V30 3538 C 328.149 -3.4267 5.31752 0
M  V30 3539 C 326.813 -3.4401 5.72026 0
M  V30 3540 H 326.083 -0.656111 0.344382 0
M  V30 3541 H 328.73 -1.25325 1.44796 0
M  V30 3542 H 327.035 -3.80723 0.925063 0
M  V30 3543 H 328.732 -3.78793 1.31593 0
M  V30 3544 H 325.322 -3.34516 2.6795 0
M  V30 3545 H 329.506 -3.35176 3.6602 0
M  V30 3546 H 324.762 -3.41398 5.07206 0
M  V30 3547 H 328.936 -3.43268 6.05921 0
M  V30 3548 H 326.563 -3.45937 6.76928 0
M  V30 3549 N 328.138 -0.959301 -1.25041 0
M  V30 3550 C 329.101 -0.487677 -2.23952 0
M  V30 3551 C 330.101 0.41119 -1.55454 0
M  V30 3552 O 331.291 0.207825 -1.72956 0
M  V30 3553 C 328.423 0.294807 -3.39623 0
M  V30 3554 H 329.616 -1.36198 -2.67189 0
M  V30 3555 H 327.169 -0.743042 -1.37508 0
M  V30 3556 H 327.904 1.18658 -3.01813 0
M  V30 3557 H 327.689 -0.35012 -3.90534 0
M  V30 3558 H 329.179 0.614089 -4.1306 0
M  V30 3559 N 329.616 1.39756 -0.72842 0
M  V30 3560 C 330.526 2.34444 -0.0855374 0
M  V30 3561 C 331.542 1.57976 0.729356 0
M  V30 3562 O 332.718 1.90301 0.659346 0
M  V30 3563 C 329.783 3.36965 0.815798 0
M  V30 3564 C 328.844 4.29299 -0.0105996 0
M  V30 3565 C 328.077 5.26923 0.84781 0
M  V30 3566 O 328.3 5.30859 2.08673 0
M  V30 3567 O 327.234 6.01249 0.279969 0
M  V30 3568 H 331.06 2.91065 -0.866892 0
M  V30 3569 H 328.645 1.4117 -0.48902 0
M  V30 3570 H 330.527 3.99804 1.33171 0
M  V30 3571 H 329.202 2.82739 1.57608 0
M  V30 3572 H 328.109 3.69703 -0.571877 0
M  V30 3573 H 329.442 4.86712 -0.73295 0
M  V30 3574 N 331.094 0.475555 1.50254 0
M  V30 3575 C 332.027 -0.362381 2.25304 0
M  V30 3576 C 333.005 -0.992393 1.28803 0
M  V30 3577 O 334.189 -1.02746 1.58036 0
M  V30 3578 C 331.316 -1.50813 3.03271 0
M  V30 3579 C 330.362 -0.995044 4.1473 0
M  V30 3580 S 331.195 0.0938436 5.35418 0
M  V30 3581 C 332.351 -1.05567 6.16933 0
M  V30 3582 H 332.584 0.274686 2.96028 0
M  V30 3583 H 330.117 0.260495 1.52187 0
M  V30 3584 H 332.075 -2.16476 3.48781 0
M  V30 3585 H 330.736 -2.11672 2.32064 0
M  V30 3586 H 329.929 -1.85293 4.68703 0
M  V30 3587 H 329.531 -0.416052 3.71679 0
M  V30 3588 H 331.823 -1.96636 6.48337 0
M  V30 3589 H 332.766 -0.555109 7.05921 0
M  V30 3590 H 333.174 -1.31151 5.49053 0
M  V30 3591 N 332.573 -1.56217 0.208337 0
M  V30 3592 C 333.503 -2.22694 -0.702116 0
M  V30 3593 C 334.484 -1.19432 -1.2112 0
M  V30 3594 O 335.669 -1.47978 -1.25762 0
M  V30 3595 C 332.799 -2.8966 -1.9161 0
M  V30 3596 C 331.753 -3.9928 -1.5414 0
M  V30 3597 C 331.079 -4.53476 -2.83308 0
M  V30 3598 C 332.379 -5.17012 -0.741339 0
M  V30 3599 H 334.073 -2.99034 -0.147898 0
M  V30 3600 H 331.619 -1.43831 -0.0696951 0
M  V30 3601 H 333.572 -3.34852 -2.55836 0
M  V30 3602 H 332.296 -2.10746 -2.49507 0
M  V30 3603 H 330.955 -3.54799 -0.922668 0
M  V30 3604 H 330.603 -3.71308 -3.39322 0
M  V30 3605 H 330.303 -5.27451 -2.58976 0
M  V30 3606 H 331.827 -5.01378 -3.485 0
M  V30 3607 H 333.241 -5.58667 -1.28699 0
M  V30 3608 H 331.638 -5.97137 -0.595627 0
M  V30 3609 H 332.708 -4.8423 0.254851 0
M  V30 3610 N 334.051 0.0651679 -1.57465 0
M  V30 3611 C 335.279 0.775808 -1.91804 0
M  V30 3612 C 335.694 1.70782 -0.804916 0
M  V30 3613 O 335.051 1.81153 0.221311 0
M  V30 3614 C 335.102 1.56381 -3.25925 0
M  V30 3615 O 334.823 0.669248 -4.32958 0
M  V30 3616 C 336.324 2.37485 -3.7432 0
M  V30 3617 H 333.544 0.2202 -0.63384 0
M  V30 3618 H 336.088 0.0334587 -2.04473 0
M  V30 3619 H 334.243 2.25837 -3.14764 0
M  V30 3620 H 334.657 1.21801 -5.10162 0
M  V30 3621 H 336.131 2.88223 -4.70778 0
M  V30 3622 H 336.608 3.17307 -3.03666 0
M  V30 3623 H 337.214 1.73173 -3.88447 0
M  V30 3624 N 335.529 1.53961 0.336706 0
M  V30 3625 C 336.777 1.71197 1.07405 0
M  V30 3626 C 337.098 0.481475 1.88962 0
M  V30 3627 O 336.368 -0.504585 1.8929 0
M  V30 3628 H 334.948 0.631185 0.399517 0
M  V30 3629 H 337.61 1.91232 0.376323 0
M  V30 3630 H 336.706 2.58587 1.74755 0
M  V30 3631 N 337.007 -0.598083 1.45811 0
M  V30 3632 C 337.954 -1.7082 1.55207 0
M  V30 3633 C 338.924 -1.61278 0.39732 0
M  V30 3634 O 340.109 -1.80717 0.612038 0
M  V30 3635 C 337.249 -3.09144 1.53376 0
M  V30 3636 C 336.362 -3.29423 2.79472 0
M  V30 3637 C 335.497 -4.57907 2.69248 0
M  V30 3638 C 334.536 -4.71476 3.90354 0
M  V30 3639 N 333.673 -5.9127 3.78608 0
M  V30 3640 H 338.513 -1.62125 2.50039 0
M  V30 3641 H 336.05 -0.790389 1.24062 0
M  V30 3642 H 338.008 -3.89186 1.50301 0
M  V30 3643 H 336.638 -3.16773 0.620876 0
M  V30 3644 H 335.69 -2.43091 2.92594 0
M  V30 3645 H 337.002 -3.3532 3.69272 0
M  V30 3646 H 336.156 -5.46157 2.64192 0
M  V30 3647 H 334.895 -4.54423 1.77063 0
M  V30 3648 H 333.9 -3.81648 3.95759 0
M  V30 3649 H 335.125 -4.76751 4.83617 0
M  V30 3650 H 333.071 -5.88813 2.89199 0
M  V30 3651 H 332.988 -5.98369 4.6205 0
M  V30 3652 H 334.256 -6.81992 3.77501 0
M  V30 3653 N 338.485 -1.33259 -0.841409 0
M  V30 3654 C 339.713 -1.27605 -1.62864 0
M  V30 3655 C 340.128 0.153507 -1.88175 0
M  V30 3656 O 339.485 1.09485 -1.46011 0
M  V30 3657 C 339.536 -2.04596 -2.98031 0
M  V30 3658 O 339.257 -3.41975 -2.73834 0
M  V30 3659 C 340.758 -2.06122 -3.92465 0
M  V30 3660 H 337.978 -0.439718 -0.506842 0
M  V30 3661 H 340.522 -1.75591 -1.04824 0
M  V30 3662 H 338.677 -1.60299 -3.5268 0
M  V30 3663 H 339.091 -3.81549 -3.59889 0
M  V30 3664 H 340.565 -2.64451 -4.84531 0
M  V30 3665 H 341.042 -1.05083 -4.26444 0
M  V30 3666 H 341.648 -2.50427 -3.43753 0
M  V30 3667 N 339.963 1.05934 -1.16686 0
M  V30 3668 C 340.893 2.1546 -0.899949 0
M  V30 3669 C 341.874 1.69391 0.155154 0
M  V30 3670 O 343.059 1.94199 0.00648693 0
M  V30 3671 C 340.189 3.44939 -0.404241 0
M  V30 3672 C 339.143 4.04536 -1.39767 0
M  V30 3673 C 338.469 5.29268 -0.760216 0
M  V30 3674 C 339.769 4.42893 -2.76845 0
M  V30 3675 H 341.463 2.38046 -1.81588 0
M  V30 3676 H 339.009 1.14404 -0.874514 0
M  V30 3677 H 340.962 4.20901 -0.204971 0
M  V30 3678 H 339.686 3.21983 0.547206 0
M  V30 3679 H 338.345 3.30635 -1.58355 0
M  V30 3680 H 337.993 5.02611 0.197831 0
M  V30 3681 H 337.693 5.70101 -1.42332 0
M  V30 3682 H 339.217 6.07924 -0.57105 0
M  V30 3683 H 340.631 5.09921 -2.62019 0
M  V30 3684 H 339.028 4.94721 -3.39663 0
M  V30 3685 H 340.098 3.53584 -3.31823 0
M  V30 3686 N 341.441 0.965919 1.2453 0
M  V30 3687 C 342.688 0.626831 1.92554 0
M  V30 3688 C 343.016 -0.837739 1.75534 0
M  V30 3689 O 342.271 -1.61793 1.10098 0
M  V30 3690 C 342.57 0.945428 3.44669 0
M  V30 3691 C 342.236 2.39785 3.81856 0
M  V30 3692 C 340.898 2.79483 3.91718 0
M  V30 3693 C 343.25 3.34055 4.00071 0
M  V30 3694 C 340.578 4.12496 4.1721 0
M  V30 3695 C 342.93 4.66694 4.27059 0
M  V30 3696 C 341.594 5.06172 4.3514 0
M  V30 3697 H 340.864 0.229374 0.704605 0
M  V30 3698 H 343.511 1.21707 1.4785 0
M  V30 3699 H 341.816 0.272926 3.90848 0
M  V30 3700 H 343.513 0.661484 3.95507 0
M  V30 3701 H 340.103 2.08003 3.74743 0
M  V30 3702 H 344.287 3.04571 3.91855 0
M  V30 3703 H 339.543 4.42709 4.21685 0
M  V30 3704 H 343.717 5.3971 4.40097 0
M  V30 3705 H 341.344 6.09262 4.54646 0
M  V30 3706 N 342.919 -1.39368 0.735821 0
M  V30 3707 C 343.882 -2.2896 0.104874 0
M  V30 3708 C 344.882 -1.46347 -0.666274 0
M  V30 3709 O 346.072 -1.67014 -0.49517 0
M  V30 3710 C 343.204 -3.29857 -0.860656 0
M  V30 3711 H 344.397 -2.86259 0.894205 0
M  V30 3712 H 341.95 -1.48029 0.501704 0
M  V30 3713 H 342.685 -2.77615 -1.67631 0
M  V30 3714 H 342.47 -3.9087 -0.310327 0
M  V30 3715 H 343.96 -3.96893 -1.29867 0
M  V30 3716 N 344.397 -0.483516 -1.5 0
M  V30 3717 C 345.645 0.067027 -2.01989 0
M  V30 3718 C 345.966 1.3909 -1.36671 0
M  V30 3719 O 345.236 1.88978 -0.516152 0
M  V30 3720 H 343.816 0.0277606 -0.746484 0
M  V30 3721 H 346.478 -0.636773 -1.84204 0
M  V30 3722 H 345.574 0.209484 -3.11396 0
M  V30 3723 N 345.875 1.56104 -0.216619 0
M  V30 3724 C 346.838 2.18819 0.681962 0
M  V30 3725 C 347.838 1.14866 1.12528 0
M  V30 3726 O 349.028 1.40128 1.03488 0
M  V30 3727 C 346.16 2.80756 1.93362 0
M  V30 3728 H 347.353 2.99595 0.135254 0
M  V30 3729 H 344.906 1.56265 0.0330003 0
M  V30 3730 H 345.641 2.03837 2.52232 0
M  V30 3731 H 345.426 3.56876 1.62426 0
M  V30 3732 H 346.916 3.28844 2.57393 0
M  V30 3733 N 347.353 -0.0568162 1.57498 0
M  V30 3734 C 348.303 -1.07315 2.01166 0
M  V30 3735 C 349.287 -1.33632 0.896171 0
M  V30 3736 O 350.479 -1.33682 1.16009 0
M  V30 3737 C 347.608 -2.38257 2.47161 0
M  V30 3738 C 346.694 -2.1515 3.65474 0
M  V30 3739 N 347.085 -1.62014 4.7915 0
M  V30 3740 C 345.383 -2.45559 3.72313 0
M  V30 3741 C 346.084 -1.54069 5.60926 0
M  V30 3742 N 345.06 -2.00652 5.05213 0
M  V30 3743 H 348.862 -0.655878 2.86488 0
M  V30 3744 H 346.376 -0.263635 1.60246 0
M  V30 3745 H 348.373 -3.11845 2.76691 0
M  V30 3746 H 347.033 -2.80687 1.63232 0
M  V30 3747 H 348.044 -1.30667 5.01145 0
M  V30 3748 H 344.721 -2.91253 2.99129 0
M  V30 3749 H 346.111 -1.13712 6.62208 0
M  V30 3750 N 348.832 -1.54138 -0.328536 0
M  V30 3751 C 349.742 -1.86192 -1.42723 0
M  V30 3752 C 350.758 -0.753382 -1.56844 0
M  V30 3753 O 351.934 -1.04718 -1.72035 0
M  V30 3754 C 348.999 -2.07824 -2.77507 0
M  V30 3755 C 348.06 -3.31641 -2.72603 0
M  V30 3756 C 347.293 -3.52232 -4.00959 0
M  V30 3757 O 347.516 -2.7636 -4.9898 0
M  V30 3758 O 346.45 -4.45699 -4.0452 0
M  V30 3759 H 350.276 -2.79608 -1.18547 0
M  V30 3760 H 347.861 -1.3998 -0.522104 0
M  V30 3761 H 349.743 -2.23411 -3.57303 0
M  V30 3762 H 348.418 -1.17596 -3.01584 0
M  V30 3763 H 347.325 -3.21444 -1.91376 0
M  V30 3764 H 348.658 -4.2191 -2.53481 0
M  V30 3765 N 350.31 0.590341 -1.46126 0
M  V30 3766 C 351.24 1.71032 -1.58966 0
M  V30 3767 C 352.221 1.64302 -0.440335 0
M  V30 3768 O 353.406 1.82436 -0.665634 0
M  V30 3769 C 350.536 3.09665 -1.57241 0
M  V30 3770 C 349.49 3.31221 -2.71066 0
M  V30 3771 C 348.816 4.70303 -2.54399 0
M  V30 3772 C 350.116 3.19796 -4.1295 0
M  V30 3773 H 351.81 1.60543 -2.52718 0
M  V30 3774 H 349.356 0.770933 -1.21625 0
M  V30 3775 H 351.309 3.87831 -1.64819 0
M  V30 3776 H 350.033 3.21036 -0.600289 0
M  V30 3777 H 348.692 2.55452 -2.62944 0
M  V30 3778 H 348.34 4.78429 -1.55288 0
M  V30 3779 H 348.04 4.85679 -3.30741 0
M  V30 3780 H 349.564 5.50647 -2.63857 0
M  V30 3781 H 350.978 3.87815 -4.22223 0
M  V30 3782 H 349.375 3.46696 -4.89818 0
M  V30 3783 H 350.445 2.16983 -4.33643 0
M  V30 3784 N 351.788 1.33704 0.83433 0
M  V30 3785 C 352.698 1.26382 1.97648 0
M  V30 3786 C 353.714 0.173548 1.73132 0
M  V30 3787 O 354.89 0.397962 1.97429 0
M  V30 3788 C 351.955 1.00769 3.31733 0
M  V30 3789 C 351.016 2.1884 3.69334 0
M  V30 3790 C 350.249 1.9444 4.9702 0
M  V30 3791 O 350.472 0.896961 5.63303 0
M  V30 3792 O 349.406 2.81093 5.32231 0
M  V30 3793 H 353.232 2.22444 2.06767 0
M  V30 3794 H 350.817 1.13795 0.968037 0
M  V30 3795 H 352.699 0.882186 4.12062 0
M  V30 3796 H 351.374 0.0773783 3.23608 0
M  V30 3797 H 350.281 2.36946 2.89495 0
M  V30 3798 H 351.614 3.10221 3.82131 0
M  V30 3799 N 353.266 -1.05314 1.17247 0
M  V30 3800 C 354.198 -2.13023 0.845812 0
M  V30 3801 C 355.211 -1.62096 -0.151246 0
M  V30 3802 O 356.4 -1.78343 0.0748818 0
M  V30 3803 C 353.5 -3.38047 0.240292 0
M  V30 3804 C 352.673 -4.18255 1.27991 0
M  V30 3805 C 351.732 -5.21625 0.692375 0
M  V30 3806 O 350.758 -5.52619 1.36385 0
M  V30 3807 N 351.96 -5.78201 -0.516178 0
M  V30 3808 H 354.725 -2.41642 1.77283 0
M  V30 3809 H 352.286 -1.21401 1.07115 0
M  V30 3810 H 354.278 -4.04359 -0.16603 0
M  V30 3811 H 352.848 -3.06972 -0.590487 0
M  V30 3812 H 352.068 -3.47451 1.86203 0
M  V30 3813 H 353.356 -4.68643 1.98119 0
M  V30 3814 H 352.754 -5.55301 -1.07969 0
M  V30 3815 H 351.311 -6.4604 -0.86458 0
M  V30 3816 N 354.744 -0.972509 -1.24016 0
M  V30 3817 C 355.677 -0.45117 -2.23696 0
M  V30 3818 C 356.655 0.477378 -1.55434 0
M  V30 3819 O 357.839 0.407647 -1.84039 0
M  V30 3820 C 354.966 0.34818 -3.36906 0
M  V30 3821 C 354.012 -0.523355 -4.23277 0
M  V30 3822 S 354.845 -1.96647 -4.98087 0
M  V30 3823 C 356.001 -1.17604 -6.14752 0
M  V30 3824 H 356.234 -1.29588 -2.67571 0
M  V30 3825 H 353.767 -0.777903 -1.33372 0
M  V30 3826 H 355.725 0.803387 -4.02562 0
M  V30 3827 H 354.386 1.16792 -2.91579 0
M  V30 3828 H 353.579 0.0906181 -5.03919 0
M  V30 3829 H 353.181 -0.914485 -3.62647 0
M  V30 3830 H 355.473 -0.433434 -6.76112 0
M  V30 3831 H 356.416 -1.95701 -6.8052 0
M  V30 3832 H 356.824 -0.698295 -5.60164 0
M  V30 3833 N 356.222 1.38976 -0.743202 0
M  V30 3834 C 357.154 2.29096 -0.0689228 0
M  V30 3835 C 358.167 1.47229 0.694791 0
M  V30 3836 O 359.356 1.70212 0.537597 0
M  V30 3837 C 356.456 3.25988 0.926548 0
M  V30 3838 C 355.629 4.36833 0.222647 0
M  V30 3839 C 354.688 5.13981 1.12739 0
M  V30 3840 O 353.714 5.6601 0.601795 0
M  V30 3841 N 354.916 5.25966 2.45641 0
M  V30 3842 H 357.681 2.87604 -0.842846 0
M  V30 3843 H 355.242 1.50645 -0.593109 0
M  V30 3844 H 357.234 3.74476 1.5346 0
M  V30 3845 H 355.804 2.68453 1.60162 0
M  V30 3846 H 355.024 3.90116 -0.565983 0
M  V30 3847 H 356.312 5.0811 -0.264841 0
M  V30 3848 H 355.71 4.85228 2.9081 0
M  V30 3849 H 354.267 5.77865 3.01522 0
M  V30 3850 N 357.7 0.491464 1.49741 0
M  V30 3851 C 358.63 -0.28154 2.31796 0
M  V30 3852 C 359.611 -0.971473 1.3963 0
M  V30 3853 O 360.796 -0.964719 1.68543 0
M  V30 3854 C 357.926 -1.35203 3.19902 0
M  V30 3855 C 356.88 -0.782529 4.20786 0
M  V30 3856 C 356.206 -1.95283 4.97764 0
M  V30 3857 C 357.506 0.21999 5.21837 0
M  V30 3858 H 359.2 0.403355 2.96671 0
M  V30 3859 H 356.746 0.195425 1.42668 0
M  V30 3860 H 358.699 -1.90045 3.76113 0
M  V30 3861 H 357.423 -2.06598 2.52953 0
M  V30 3862 H 356.082 -0.255928 3.65706 0
M  V30 3863 H 355.73 -2.65423 4.2727 0
M  V30 3864 H 355.43 -1.57789 5.66018 0
M  V30 3865 H 356.954 -2.50577 5.56816 0
M  V30 3866 H 358.368 -0.23996 5.72798 0
M  V30 3867 H 356.765 0.51026 5.97927 0
M  V30 3868 H 357.835 1.13911 4.7133 0
M  V30 3869 N 359.178 -1.55987 0.224894 0
M  V30 3870 C 360.427 -1.97566 -0.406273 0
M  V30 3871 C 360.74 -1.11569 -1.6066 0
M  V30 3872 O 361.946 -1.43062 -2.3075 0
M  V30 3873 C 360.402 -3.51474 -0.774207 0
M  V30 3874 C 360.01 -4.46179 0.403496 0
M  V30 3875 C 361.754 -4.01758 -1.37079 0
M  V30 3876 C 359.661 -5.91399 0.0129412 0
M  V30 3877 H 358.591 -0.737777 -0.155565 0
M  V30 3878 H 361.242 -1.80659 0.321635 0
M  V30 3879 H 359.624 -3.63994 -1.55963 0
M  V30 3880 H 360.798 -4.45409 1.18101 0
M  V30 3881 H 359.113 -4.06255 0.913536 0
M  V30 3882 H 361.71 -5.07756 -1.67596 0
M  V30 3883 H 362.053 -3.47805 -2.28773 0
M  V30 3884 H 362.586 -3.92475 -0.648733 0
M  V30 3885 H 359.325 -6.49341 0.896451 0
M  V30 3886 H 358.845 -5.95356 -0.728821 0
M  V30 3887 H 360.524 -6.45683 -0.412582 0
M  V30 3888 N 360.656 0.0484629 -1.57525 0
M  V30 3889 C 361.586 1.0549 -2.08313 0
M  V30 3890 C 362.567 1.38929 -0.981463 0
M  V30 3891 O 363.752 1.48151 -1.25558 0
M  V30 3892 C 360.882 2.36162 -2.54646 0
M  V30 3893 C 359.836 2.17016 -3.68901 0
M  V30 3894 C 359.162 3.53278 -4.01371 0
M  V30 3895 C 360.462 1.57219 -4.98076 0
M  V30 3896 H 362.156 0.632195 -2.92649 0
M  V30 3897 H 359.702 0.302654 -1.40784 0
M  V30 3898 H 361.655 3.06882 -2.88793 0
M  V30 3899 H 360.379 2.80456 -1.67368 0
M  V30 3900 H 359.038 1.48733 -3.35073 0
M  V30 3901 H 358.686 3.95185 -3.11188 0
M  V30 3902 H 358.386 3.41299 -4.78318 0
M  V30 3903 H 359.91 4.25391 -4.38035 0
M  V30 3904 H 361.324 2.17832 -5.30304 0
M  V30 3905 H 359.721 1.55871 -5.79503 0
M  V30 3906 H 360.791 0.535956 -4.81929 0
M  V30 3907 N 362.134 1.5431 0.320358 0
M  V30 3908 C 363.044 1.86946 1.41734 0
M  V30 3909 C 364.06 0.761689 1.56443 0
M  V30 3910 O 365.236 1.05629 1.71477 0
M  V30 3911 C 362.301 2.09293 2.76401 0
M  V30 3912 C 361.362 3.33082 2.70841 0
M  V30 3913 C 360.595 3.54353 3.99086 0
M  V30 3914 O 360.818 2.79002 4.97508 0
M  V30 3915 O 359.752 4.47838 4.0215 0
M  V30 3916 H 363.578 2.80232 1.17062 0
M  V30 3917 H 361.163 1.40255 0.514673 0
M  V30 3918 H 363.045 2.25303 3.56113 0
M  V30 3919 H 361.72 1.19194 3.00956 0
M  V30 3920 H 360.627 3.22454 1.89668 0
M  V30 3921 H 361.96 4.23249 2.5124 0
M  V30 3922 N 363.613 -0.582584 1.46437 0
M  V30 3923 C 364.838 -1.37168 1.55563 0
M  V30 3924 C 365.263 -1.87061 0.19743 0
M  V30 3925 O 364.621 -1.61572 -0.822451 0
M  V30 3926 C 364.669 -2.53511 2.56446 0
M  V30 3927 O 363.773 -3.54953 2.09958 0
M  V30 3928 H 363.114 -0.408494 0.523477 0
M  V30 3929 H 365.644 -0.706646 1.9201 0
M  V30 3930 H 365.654 -3.00426 2.76058 0
M  V30 3931 H 364.329 -2.16549 3.55076 0
M  V30 3932 H 362.906 -3.14516 2.00334 0
M  V30 3933 N 365.091 -1.34144 -0.827227 0
M  V30 3934 C 366.34 -1.25602 -1.5782 0
M  V30 3935 C 366.653 0.173445 -1.94829 0
M  V30 3936 O 367.859 0.380984 -2.68814 0
M  V30 3937 C 366.315 -2.20151 -2.84713 0
M  V30 3938 C 365.923 -3.68331 -2.55021 0
M  V30 3939 C 367.667 -2.20508 -3.62735 0
M  V30 3940 C 365.574 -4.54762 -3.78082 0
M  V30 3941 H 364.504 -0.466573 -0.592306 0
M  V30 3942 H 367.155 -1.59283 -0.911116 0
M  V30 3943 H 365.537 -1.79417 -3.53023 0
M  V30 3944 H 366.711 -4.17577 -1.94849 0
M  V30 3945 H 365.026 -3.7038 -1.90283 0
M  V30 3946 H 367.623 -2.82306 -4.54101 0
M  V30 3947 H 367.966 -1.20322 -3.98533 0
M  V30 3948 H 368.499 -2.59664 -3.01362 0
M  V30 3949 H 365.238 -5.55867 -3.47407 0
M  V30 3950 H 364.758 -4.10254 -4.37552 0
M  V30 3951 H 366.437 -4.69153 -4.45538 0
M  V30 3952 N 366.569 1.04691 -1.17803 0
M  V30 3953 C 367.98 1.59238 -0.974689 0
M  V30 3954 C 368.331 1.90306 0.477292 0
M  V30 3955 O 367.456 1.68846 1.35352 0
M  V30 3956 C 368.051 2.89318 -1.76296 0
M  V30 3957 C 366.61 3.40506 -1.60414 0
M  V30 3958 C 365.757 2.14172 -1.76141 0
M  V30 3959 H 368.708 0.874395 -1.32439 0
M  V30 3960 H 368.729 3.5944 -1.24833 0
M  V30 3961 H 368.241 2.66675 -2.81968 0
M  V30 3962 H 366.342 3.68175 -0.572519 0
M  V30 3963 H 366.455 4.14753 -2.39827 0
M  V30 3964 H 364.819 2.25176 -1.19028 0
M  V30 3965 H 365.602 1.93992 -2.83235 0
M  V30 3966 N 368.047 0.979072 1.23499 0
M  V30 3967 C 369.293 0.648178 1.92163 0
M  V30 3968 C 369.626 -0.816049 1.76222 0
M  V30 3969 O 368.901 -1.58849 1.12237 0
M  V30 3970 C 369.184 1.03773 3.44824 0
M  V30 3971 C 369.037 2.55948 3.69879 0
M  V30 3972 C 370.356 0.580653 4.36253 0
M  V30 3973 H 367.475 0.236952 0.69787 0
M  V30 3974 H 370.117 1.22012 1.45647 0
M  V30 3975 H 368.267 0.551058 3.84572 0
M  V30 3976 H 369.939 3.12179 3.3962 0
M  V30 3977 H 368.182 2.98641 3.14636 0
M  V30 3978 H 368.853 2.78255 4.76737 0
M  V30 3979 H 371.329 0.998465 4.03943 0
M  V30 3980 H 370.205 0.881663 5.41773 0
M  V30 3981 H 370.466 -0.519052 4.39042 0
M  V30 3982 N 369.525 -1.3858 0.750561 0
M  V30 3983 C 370.771 -2.00481 0.305825 0
M  V30 3984 C 371.104 -1.5944 -1.10872 0
M  V30 3985 O 370.379 -0.83052 -1.75877 0
M  V30 3986 C 370.662 -3.5758 0.425287 0
M  V30 3987 C 370.515 -4.08594 1.88072 0
M  V30 3988 C 371.834 -4.39719 -0.183122 0
M  V30 3989 H 368.953 -0.728348 0.112598 0
M  V30 3990 H 371.595 -1.64566 0.949638 0
M  V30 3991 H 369.745 -3.88306 -0.122828 0
M  V30 3992 H 371.417 -3.88523 2.48691 0
M  V30 3993 H 369.66 -3.61574 2.39681 0
M  V30 3994 H 370.331 -5.177 1.91548 0
M  V30 3995 H 372.807 -4.15128 0.284303 0
M  V30 3996 H 371.683 -5.48856 -0.0692757 0
M  V30 3997 H 371.944 -4.23434 -1.27106 0
M  V30 3998 N 371.003 -0.499398 -1.49478 0
M  V30 3999 C 371.953 0.299103 -2.2603 0
M  V30 4000 C 372.937 0.936934 -1.30807 0
M  V30 4001 O 374.129 0.844798 -1.55538 0
M  V30 4002 C 371.258 1.36391 -3.15044 0
M  V30 4003 C 370.344 0.732398 -4.17728 0
M  V30 4004 N 370.735 -0.164028 -5.05534 0
M  V30 4005 C 369.033 0.993162 -4.34801 0
M  V30 4006 C 369.734 -0.525345 -5.79323 0
M  V30 4007 N 368.71 0.106348 -5.43496 0
M  V30 4008 H 372.512 -0.391003 -2.91287 0
M  V30 4009 H 370.026 -0.31537 -1.59308 0
M  V30 4010 H 372.023 1.94939 -3.68516 0
M  V30 4011 H 370.683 2.05571 -2.51338 0
M  V30 4012 H 371.694 -0.534736 -5.15132 0
M  V30 4013 H 368.371 1.67783 -3.82302 0
M  V30 4014 H 369.761 -1.25862 -6.60006 0
M  V30 4015 N 372.481 1.55866 -0.233164 0
M  V30 4016 C 373.391 2.24431 0.683217 0
M  V30 4017 C 374.407 1.2558 1.2044 0
M  V30 4018 O 375.583 1.58422 1.24356 0
M  V30 4019 C 372.648 2.91979 1.86947 0
M  V30 4020 C 371.709 4.06204 1.38912 0
M  V30 4021 C 370.942 4.70522 2.51883 0
M  V30 4022 O 371.165 4.33865 3.70293 0
M  V30 4023 O 370.099 5.59296 2.22423 0
M  V30 4024 H 373.925 3.03426 0.129059 0
M  V30 4025 H 371.51 1.494 -0.0022283 0
M  V30 4026 H 373.392 3.34573 2.56201 0
M  V30 4027 H 372.067 2.15935 2.41151 0
M  V30 4028 H 370.974 3.68155 0.664259 0
M  V30 4029 H 372.307 4.84025 0.893328 0
M  V30 4030 N 373.959 -0.0401083 1.57549 0
M  V30 4031 C 374.869 -1.06133 2.0922 0
M  V30 4032 C 375.885 -1.40356 1.0284 0
M  V30 4033 O 377.061 -1.49897 1.34509 0
M  V30 4034 C 374.126 -2.34658 2.55218 0
M  V30 4035 C 373.187 -2.07117 3.76033 0
M  V30 4036 C 372.42 -3.29514 4.19829 0
M  V30 4037 O 372.643 -4.39794 3.63232 0
M  V30 4038 O 371.577 -3.15863 5.12362 0
M  V30 4039 H 375.403 -0.652244 2.96613 0
M  V30 4040 H 372.988 -0.256368 1.47184 0
M  V30 4041 H 374.87 -3.10239 2.85184 0
M  V30 4042 H 373.545 -2.74883 1.70941 0
M  V30 4043 H 372.452 -1.29139 3.51104 0
M  V30 4044 H 373.785 -1.71754 4.61261 0
M  V30 4045 N 375.437 -1.54477 -0.31217 0
M  V30 4046 C 376.714 -1.63891 -1.06767 0
M  V30 4047 C 377.094 -0.480028 -2.0557 0
M  V30 4048 O 376.442 0.524487 -2.22399 0
M  V30 4049 C 376.652 -3.01402 -1.75948 0
M  V30 4050 C 378 -3.57838 -2.28554 0
M  V30 4051 O 379.024 -3.03782 -1.85998 0
M  V30 4052 O 377.883 -4.52462 -3.06497 0
M  V30 4053 H 374.977 -0.664125 -0.492816 0
M  V30 4054 H 377.523 -1.66823 -0.311149 0
M  V30 4055 H 376.295 -3.77187 -1.04144 0
M  V30 4056 H 375.918 -3.02199 -2.58383 0
M  V30 4057 N 376.915 0.57481 -1.46744 0
M  V30 4058 C 378.331 0.898981 -1.31873 0
M  V30 4059 C 378.531 1.99313 -0.29605 0
M  V30 4060 O 377.587 2.50728 0.298621 0
M  V30 4061 C 378.9 1.30886 -2.7072 0
M  V30 4062 C 380.448 1.42127 -2.78871 0
M  V30 4063 C 380.923 1.86478 -4.18318 0
M  V30 4064 N 382.414 1.93658 -4.20774 0
M  V30 4065 C 383.149 2.29267 -5.2557 0
M  V30 4066 N 382.645 2.63612 -6.40688 0
M  V30 4067 N 384.438 2.29889 -5.1294 0
M  V30 4068 H 376.589 -0.147839 -2.11885 0
M  V30 4069 H 378.852 -0.00347013 -0.947994 0
M  V30 4070 H 378.558 0.578853 -3.46904 0
M  V30 4071 H 378.432 2.26874 -3.01343 0
M  V30 4072 H 380.819 2.14213 -2.0297 0
M  V30 4073 H 380.9 0.443705 -2.51922 0
M  V30 4074 H 380.544 1.14968 -4.94717 0
M  V30 4075 H 380.474 2.85207 -4.42679 0
M  V30 4076 H 382.965 1.69574 -3.37718 0
M  V30 4077 H 383.278 2.89759 -7.16421 0
M  V30 4078 H 381.623 2.61232 -6.44036 0
M  V30 4079 H 384.814 2.02485 -4.22039 0
M  V30 4080 H 384.987 2.57312 -5.94722 0
M  V30 4081 N 378.394 1.34581 0.820102 0
M  V30 4082 C 379.326 1.22236 1.93884 0
M  V30 4083 C 380.339 0.148776 1.62119 0
M  V30 4084 O 381.528 0.400877 1.7394 0
M  V30 4085 C 378.628 0.856542 3.27897 0
M  V30 4086 C 377.801 2.02569 3.87666 0
M  V30 4087 C 376.86 1.63782 5.00062 0
M  V30 4088 O 375.886 2.35477 5.18208 0
M  V30 4089 N 377.088 0.553611 5.77854 0
M  V30 4090 H 379.853 2.18615 2.05006 0
M  V30 4091 H 377.414 1.27573 0.99683 0
M  V30 4092 H 379.406 0.578806 4.0054 0
M  V30 4093 H 377.976 -0.0171518 3.12595 0
M  V30 4094 H 377.196 2.468 3.07382 0
M  V30 4095 H 378.484 2.80752 4.24329 0
M  V30 4096 H 377.882 -0.0423528 5.65684 0
M  V30 4097 H 376.439 0.335614 6.50935 0
M  V30 4098 N 379.872 -1.04064 1.18357 0
M  V30 4099 C 380.782 -2.15569 0.925596 0
M  V30 4100 C 381.798 -1.7365 -0.110295 0
M  V30 4101 O 382.974 -2.01273 0.0716218 0
M  V30 4102 C 380.039 -3.43704 0.454836 0
M  V30 4103 C 379.1 -4.00004 1.55869 0
M  V30 4104 C 378.333 -5.22023 1.1103 0
M  V30 4105 O 378.556 -5.70392 -0.0309756 0
M  V30 4106 O 377.49 -5.70856 1.90805 0
M  V30 4107 H 381.316 -2.40187 1.8586 0
M  V30 4108 H 378.901 -1.1402 0.965394 0
M  V30 4109 H 380.783 -4.20923 0.200382 0
M  V30 4110 H 379.458 -3.20559 -0.449876 0
M  V30 4111 H 378.365 -3.24172 1.86716 0
M  V30 4112 H 379.698 -4.2749 2.43953 0
M  V30 4113 N 381.35 -0.985608 -1.22978 0
M  V30 4114 C 382.28 -0.549649 -2.26939 0
M  V30 4115 C 383.261 0.419803 -1.64838 0
M  V30 4116 O 384.446 0.31203 -1.91677 0
M  V30 4117 C 381.576 0.143652 -3.47003 0
M  V30 4118 C 380.53 -0.743606 -4.21491 0
M  V30 4119 C 379.856 0.0822027 -5.34637 0
M  V30 4120 C 381.156 -2.03694 -4.80943 0
M  V30 4121 H 382.85 -1.41862 -2.63658 0
M  V30 4122 H 380.396 -0.683571 -1.26741 0
M  V30 4123 H 382.349 0.459985 -4.18882 0
M  V30 4124 H 381.073 1.04711 -3.09359 0
M  V30 4125 H 379.732 -1.04347 -3.51436 0
M  V30 4126 H 379.38 0.986359 -4.93234 0
M  V30 4127 H 379.08 -0.508377 -5.85397 0
M  V30 4128 H 380.604 0.392797 -6.09335 0
M  V30 4129 H 382.018 -1.78504 -5.44802 0
M  V30 4130 H 380.415 -2.57573 -5.42011 0
M  V30 4131 H 381.485 -2.72042 -4.01399 0
M  V30 4132 N 382.828 1.3818 -0.7579 0
M  V30 4133 C 383.758 2.33027 -0.148597 0
M  V30 4134 C 384.739 1.55085 0.69875 0
M  V30 4135 O 385.924 1.83384 0.639053 0
M  V30 4136 C 383.054 3.3928 0.742034 0
M  V30 4137 C 382.008 4.28 -0.00291946 0
M  V30 4138 C 381.334 5.25146 1.00625 0
M  V30 4139 C 382.634 5.08938 -1.17385 0
M  V30 4140 H 384.328 2.84231 -0.940909 0
M  V30 4141 H 381.874 1.36659 -0.453908 0
M  V30 4142 H 383.827 4.046 1.17799 0
M  V30 4143 H 382.551 2.86569 1.56671 0
M  V30 4144 H 381.21 3.64192 -0.419504 0
M  V30 4145 H 380.858 4.68721 1.8251 0
M  V30 4146 H 380.558 5.85361 0.512428 0
M  V30 4147 H 382.082 5.93342 1.44143 0
M  V30 4148 H 383.496 5.67474 -0.815224 0
M  V30 4149 H 381.893 5.7841 -1.59882 0
M  V30 4150 H 382.963 4.42424 -1.98468 0
M  V30 4151 N 384.306 0.507319 1.49211 0
M  V30 4152 C 385.531 -0.033725 2.07373 0
M  V30 4153 C 385.956 -1.29485 1.36437 0
M  V30 4154 O 385.314 -1.76294 0.423087 0
M  V30 4155 C 385.362 -0.263945 3.59633 0
M  V30 4156 O 384.466 -1.33737 3.90113 0
M  V30 4157 H 383.807 0.0290331 0.663365 0
M  V30 4158 H 386.337 0.708749 1.91932 0
M  V30 4159 H 386.347 -0.493536 4.05004 0
M  V30 4160 H 385.022 0.657424 4.10671 0
M  V30 4161 H 383.599 -1.09224 3.56545 0
M  V30 4162 N 385.784 -1.5574 0.241426 0
M  V30 4163 C 387.03 -1.99104 -0.385406 0
M  V30 4164 C 387.363 -1.1293 -1.57988 0
M  V30 4165 O 386.638 -0.191449 -1.93555 0
M  V30 4166 C 386.921 -3.51087 -0.800616 0
M  V30 4167 C 386.774 -4.48028 0.398874 0
M  V30 4168 C 388.093 -4.08015 -1.64959 0
M  V30 4169 H 385.212 -0.723848 -0.138614 0
M  V30 4170 H 387.854 -1.86903 0.341642 0
M  V30 4171 H 386.004 -3.61615 -1.4201 0
M  V30 4172 H 387.676 -4.49487 1.03726 0
M  V30 4173 H 385.919 -4.21077 1.04293 0
M  V30 4174 H 386.59 -5.51962 0.0651056 0
M  V30 4175 H 389.066 -4.00555 -1.12672 0
M  V30 4176 H 387.942 -5.14635 -1.90898 0
M  V30 4177 H 388.203 -3.56131 -2.61961 0
M  V30 4178 N 387.262 0.0317525 -1.57568 0
M  V30 4179 C 388.511 0.722131 -1.8833 0
M  V30 4180 C 388.824 1.76664 -0.839587 0
M  V30 4181 O 390.03 2.50942 -1.03635 0
M  V30 4182 C 388.486 1.33544 -3.34207 0
M  V30 4183 C 388.094 0.327415 -4.46802 0
M  V30 4184 C 389.838 2.00585 -3.7412 0
M  V30 4185 C 387.745 0.948915 -5.83738 0
M  V30 4186 H 386.675 0.273466 -0.702661 0
M  V30 4187 H 389.326 -0.0235811 -1.83485 0
M  V30 4188 H 387.708 2.13077 -3.33788 0
M  V30 4189 H 388.882 -0.441006 -4.58685 0
M  V30 4190 H 387.197 -0.240758 -4.15703 0
M  V30 4191 H 389.794 2.47932 -4.73744 0
M  V30 4192 H 390.137 2.82285 -3.05975 0
M  V30 4193 H 390.67 1.27831 -3.76702 0
M  V30 4194 H 387.409 0.171387 -6.55276 0
M  V30 4195 H 386.929 1.68724 -5.7558 0
M  V30 4196 H 388.608 1.45705 -6.3038 0
M  V30 4197 N 388.74 1.54641 0.303973 0
M  V30 4198 C 390.151 1.64811 0.877163 0
M  V30 4199 C 390.502 0.554838 1.88191 0
M  V30 4200 O 389.627 -0.309033 2.14182 0
M  V30 4201 C 390.222 2.9876 1.59775 0
M  V30 4202 C 388.781 3.11061 2.11938 0
M  V30 4203 C 387.928 2.60479 0.951097 0
M  V30 4204 H 390.879 1.58493 0.0810486 0
M  V30 4205 H 390.9 2.90017 2.46314 0
M  V30 4206 H 390.412 3.7831 0.866226 0
M  V30 4207 H 388.513 2.36225 2.88146 0
M  V30 4208 H 388.626 4.17171 2.35595 0
M  V30 4209 H 386.99 2.16859 1.33583 0
M  V30 4210 H 387.773 3.42504 0.233581 0
M  V30 4211 N 390.218 -0.567019 1.47046 0
M  V30 4212 C 391.464 -1.32658 1.53394 0
M  V30 4213 C 391.797 -1.93254 0.19148 0
M  V30 4214 O 391.072 -1.77338 -0.798844 0
M  V30 4215 C 391.355 -2.44412 2.64452 0
M  V30 4216 C 391.208 -1.88749 4.08282 0
M  V30 4217 C 392.527 -3.46387 2.71485 0
M  V30 4218 H 389.646 -0.48098 0.558415 0
M  V30 4219 H 392.288 -0.635481 1.79058 0
M  V30 4220 H 390.438 -3.03363 2.427 0
M  V30 4221 H 392.11 -1.34134 4.41368 0
M  V30 4222 H 390.353 -1.19481 4.17021 0
M  V30 4223 H 391.024 -2.69491 4.81745 0
M  V30 4224 H 393.5 -2.9734 2.91081 0
M  V30 4225 H 392.376 -4.2202 3.50985 0
M  V30 4226 H 392.637 -4.04616 1.78153 0
M  V30 4227 N 391.696 -1.35014 -0.812953 0
M  V30 4228 C 392.926 -1.30841 -1.59888 0
M  V30 4229 C 393.334 0.117576 -1.88834 0
M  V30 4230 O 392.677 1.07807 -1.48739 0
M  V30 4231 C 392.739 -2.0412 -2.95931 0
M  V30 4232 C 392.403 -3.53336 -2.89832 0
M  V30 4233 C 393.4 -4.48052 -2.63714 0
M  V30 4234 C 391.085 -3.95894 -3.0915 0
M  V30 4235 C 393.079 -5.833 -2.56982 0
M  V30 4236 C 390.766 -5.31239 -3.0204 0
M  V30 4237 C 391.764 -6.24754 -2.75991 0
M  V30 4238 O 391.452 -7.57617 -2.68833 0
M  V30 4239 H 391.184 -0.451215 -0.50337 0
M  V30 4240 H 393.738 -1.78354 -1.01877 0
M  V30 4241 H 391.968 -1.51235 -3.559 0
M  V30 4242 H 393.657 -1.93107 -3.57022 0
M  V30 4243 H 394.423 -4.16492 -2.48515 0
M  V30 4244 H 390.302 -3.23495 -3.28438 0
M  V30 4245 H 393.846 -6.56263 -2.36569 0
M  V30 4246 H 389.743 -5.62415 -3.16796 0
M  V30 4247 H 390.511 -7.67469 -2.84487 0
M  V30 4248 N 393.175 1.03435 -1.18907 0
M  V30 4249 C 394.424 1.76143 -0.982669 0
M  V30 4250 C 394.737 1.89416 0.487953 0
M  V30 4251 O 395.943 2.59041 0.813036 0
M  V30 4252 C 394.399 3.16722 -1.70924 0
M  V30 4253 C 394.007 3.11522 -3.21959 0
M  V30 4254 C 395.751 3.93764 -1.58588 0
M  V30 4255 C 393.658 4.46999 -3.87228 0
M  V30 4256 H 392.588 0.660292 -0.364047 0
M  V30 4257 H 395.239 1.158 -1.42347 0
M  V30 4258 H 393.621 3.775 -1.19623 0
M  V30 4259 H 394.795 2.60158 -3.80335 0
M  V30 4260 H 393.11 2.47978 -3.34508 0
M  V30 4261 H 395.707 4.93963 -2.04707 0
M  V30 4262 H 396.05 4.12794 -0.539142 0
M  V30 4263 H 396.583 3.39576 -2.07203 0
M  V30 4264 H 393.322 4.33174 -4.91976 0
M  V30 4265 H 392.842 4.98441 -3.33642 0
M  V30 4266 H 394.521 5.15898 -3.90459 0
M  V30 4267 N 394.653 0.992116 1.22453 0
M  V30 4268 C 396.069 0.702713 1.43297 0
M  V30 4269 C 396.269 -0.726909 1.87932 0
M  V30 4270 O 395.325 -1.49792 2.0327 0
M  V30 4271 C 396.638 1.70762 2.47509 0
M  V30 4272 C 398.186 1.72298 2.61309 0
M  V30 4273 C 398.661 2.71649 3.68742 0
M  V30 4274 N 400.152 2.70239 3.76199 0
M  V30 4275 C 400.887 3.43778 4.58917 0
M  V30 4276 N 400.383 4.26914 5.45633 0
M  V30 4277 N 402.176 3.32487 4.5322 0
M  V30 4278 H 394.327 1.91543 0.917871 0
M  V30 4279 H 396.59 0.826031 0.465162 0
M  V30 4280 H 396.296 2.73059 2.21657 0
M  V30 4281 H 396.17 1.49985 3.46099 0
M  V30 4282 H 398.557 0.706989 2.86506 0
M  V30 4283 H 398.638 1.97143 1.62997 0
M  V30 4284 H 398.282 3.73397 3.44292 0
M  V30 4285 H 398.212 2.44074 4.66622 0
M  V30 4286 H 400.703 2.09912 3.14237 0
M  V30 4287 H 401.016 4.79855 6.05771 0
M  V30 4288 H 399.361 4.31002 5.45218 0
M  V30 4289 H 402.552 2.6698 3.84499 0
M  V30 4290 H 402.725 3.90058 5.17454 0
M  V30 4291 N 396.131 -1.37776 0.765217 0
M  V30 4292 C 397.079 -2.32209 0.134798 0
M  V30 4293 C 398.073 -1.54607 -0.692315 0
M  V30 4294 O 399.279 -1.70052 -0.590109 0
M  V30 4295 H 395.654 -0.751591 0.0248005 0
M  V30 4296 H 397.625 -2.8297 0.947119 0
M  V30 4297 C 396.374 -3.39841 -0.735063 0
M  V30 4298 H 395.697 -3.99654 -0.107991 0
M  V30 4299 H 397.137 -4.08296 -1.14326 0
M  V30 4300 C 395.596 -2.79378 -1.88281 0
M  V30 4301 O 396.126 -2.69608 -2.97783 0
M  V30 4302 N 394.332 -2.37016 -1.68142 0
M  V30 4303 H 393.879 -2.45162 -0.790772 0
M  V30 4304 H 393.837 -1.96905 -2.45104 0
M  V30 4305 N 397.609 -0.515225 -1.4894 0
M  V30 4306 C 398.886 0.0879088 -1.95402 0
M  V30 4307 C 399.266 1.52745 -1.45712 0
M  V30 4308 O 398.614 2.18238 -0.677093 0
M  V30 4309 C 398.824 -0.0141055 -3.48997 0
M  V30 4310 C 400.172 0.152646 -4.24326 0
M  V30 4311 O 401.196 0.0604025 -3.56149 0
M  V30 4312 O 400.055 0.34384 -5.45417 0
M  V30 4313 H 397.149 0.0874636 -0.822362 0
M  V30 4314 H 399.695 -0.578775 -1.59525 0
M  V30 4315 H 398.467 -1.01745 -3.77841 0
M  V30 4316 H 398.09 0.692091 -3.9153 0
M  V30 4317 N 399.087 1.5561 -0.249682 0
M  V30 4318 C 400.02 2.17537 0.689408 0
M  V30 4319 C 400.998 1.12829 1.17083 0
M  V30 4320 O 402.182 1.41229 1.24846 0
M  V30 4321 C 399.309 2.77828 1.93725 0
M  V30 4322 C 398.355 3.95615 1.59346 0
M  V30 4323 S 399.188 5.30988 0.69367 0
M  V30 4324 C 400.344 5.94734 1.95046 0
M  V30 4325 H 400.577 2.96852 0.163142 0
M  V30 4326 H 398.11 1.54362 -0.0341166 0
M  V30 4327 H 400.068 3.13199 2.65361 0
M  V30 4328 H 398.729 1.98454 2.43465 0
M  V30 4329 H 397.922 4.364 2.52132 0
M  V30 4330 H 397.524 3.61535 0.957512 0
M  V30 4331 H 399.816 6.12419 2.89739 0
M  V30 4332 H 400.759 6.90109 1.58604 0
M  V30 4333 H 401.167 5.23832 2.10381 0
M  V30 4334 N 400.565 -0.0233959 1.57583 0
M  V30 4335 C 401.793 -0.724682 1.93794 0
M  V30 4336 C 402.208 -1.68588 0.849912 0
M  V30 4337 O 401.565 -1.81676 -0.173204 0
M  V30 4338 C 401.616 -1.47684 3.29957 0
M  V30 4339 O 401.337 -0.554222 4.3458 0
M  V30 4340 C 402.838 -2.27477 3.80485 0
M  V30 4341 H 400.058 -0.203317 0.639455 0
M  V30 4342 H 402.602 0.0207653 2.04489 0
M  V30 4343 H 400.757 -2.17412 3.20641 0
M  V30 4344 H 401.171 -1.08232 5.13212 0
M  V30 4345 H 402.645 -2.7564 4.78254 0
M  V30 4346 H 403.122 -3.09144 3.11972 0
M  V30 4347 H 403.728 -1.62813 3.92902 0
M  V30 4348 N 402.043 -1.548 -0.295768 0
M  V30 4349 C 402.953 -1.89177 -1.38742 0
M  V30 4350 C 403.969 -0.786481 -1.55211 0
M  V30 4351 O 405.145 -1.08344 -1.69775 0
M  V30 4352 C 402.21 -2.13663 -2.73036 0
M  V30 4353 C 401.271 -3.37349 -2.65508 0
M  V30 4354 C 400.504 -3.60658 -3.93398 0
M  V30 4355 O 400.727 -2.86882 -4.93006 0
M  V30 4356 O 399.661 -4.54179 -3.94975 0
M  V30 4357 H 403.487 -2.82059 -1.12589 0
M  V30 4358 H 401.072 -1.41056 -0.492295 0
M  V30 4359 H 402.954 -2.3094 -3.52484 0
M  V30 4360 H 401.629 -1.23967 -2.99022 0
M  V30 4361 H 400.536 -3.25431 -1.84514 0
M  V30 4362 H 401.869 -4.27192 -2.44474 0
M  V30 4363 N 403.521 0.559213 -1.47345 0
M  V30 4364 C 404.932 1.14134 -1.47751 0
M  V30 4365 C 405.283 1.94834 -0.231103 0
M  V30 4366 O 404.408 2.05957 0.664137 0
M  V30 4367 C 405.003 2.07653 -2.67705 0
M  V30 4368 C 403.562 2.61141 -2.71076 0
M  V30 4369 C 402.709 1.3748 -2.40821 0
M  V30 4370 H 405.66 0.345917 -1.54884 0
M  V30 4371 H 405.681 2.91497 -2.44561 0
M  V30 4372 H 405.193 1.4889 -3.58404 0
M  V30 4373 H 403.294 3.23707 -1.84511 0
M  V30 4374 H 403.407 3.02272 -3.7171 0
M  V30 4375 H 401.771 1.68086 -1.91362 0
M  V30 4376 H 402.554 0.805135 -3.33725 0
M  V30 4377 N 404.999 1.35443 0.805782 0
M  V30 4378 C 405.949 1.24972 1.90699 0
M  V30 4379 C 406.933 0.144806 1.60247 0
M  V30 4380 O 408.125 0.376102 1.72958 0
M  V30 4381 C 405.254 1.02475 3.27649 0
M  V30 4382 C 404.34 2.17361 3.64164 0
M  V30 4383 N 404.731 3.42591 3.72109 0
M  V30 4384 C 403.029 2.08765 3.94123 0
M  V30 4385 C 403.73 4.18144 4.04389 0
M  V30 4386 N 402.706 3.4691 4.18515 0
M  V30 4387 H 406.508 2.19852 1.95044 0
M  V30 4388 H 404.022 1.27928 1.00041 0
M  V30 4389 H 406.019 0.930617 4.06381 0
M  V30 4390 H 404.679 0.0848009 3.24589 0
M  V30 4391 H 405.69 3.76932 3.55166 0
M  V30 4392 H 402.367 1.22629 3.99084 0
M  V30 4393 H 403.757 5.26367 4.17597 0
M  V30 4394 N 406.477 -1.02803 1.19454 0
M  V30 4395 C 407.424 -2.11099 0.933046 0
M  V30 4396 C 408.394 -1.65571 -0.132447 0
M  V30 4397 O 409.579 -1.90797 0.00987576 0
M  V30 4398 C 406.719 -3.41763 0.478747 0
M  V30 4399 C 405.832 -4.00833 1.6111 0
M  V30 4400 C 404.967 -5.19511 1.10825 0
M  V30 4401 C 404.006 -5.70639 2.21445 0
M  V30 4402 N 403.143 -6.80589 1.72461 0
M  V30 4403 H 407.983 -2.32804 1.86028 0
M  V30 4404 H 405.52 -1.14179 0.927441 0
M  V30 4405 H 407.478 -4.16736 0.196745 0
M  V30 4406 H 406.108 -3.20166 -0.411493 0
M  V30 4407 H 405.16 -3.23066 2.00829 0
M  V30 4408 H 406.472 -4.34794 2.4445 0
M  V30 4409 H 405.626 -6.01645 0.781533 0
M  V30 4410 H 404.365 -4.87086 0.244606 0
M  V30 4411 H 403.37 -4.87116 2.54947 0
M  V30 4412 H 404.595 -6.05102 3.08267 0
M  V30 4413 H 402.541 -6.50016 0.884056 0
M  V30 4414 H 402.458 -7.13681 2.49389 0
M  V30 4415 H 403.726 -7.66317 1.42755 0
M  V30 4416 N 407.956 -0.998596 -1.21925 0
M  V30 4417 C 409.367 -0.711939 -1.72593 0
M  V30 4418 C 409.718 0.770842 -1.80423 0
M  V30 4419 O 408.843 1.60237 -1.4544 0
M  V30 4420 C 409.438 -1.28567 -3.13458 0
M  V30 4421 C 407.997 -1.04828 -3.61508 0
M  V30 4422 C 407.144 -1.4024 -2.39224 0
M  V30 4423 H 410.095 -1.17027 -1.07193 0
M  V30 4424 H 410.116 -0.667098 -3.74607 0
M  V30 4425 H 409.628 -2.36486 -3.07727 0
M  V30 4426 H 407.729 0.0140383 -3.72597 0
M  V30 4427 H 407.842 -1.71566 -4.47328 0
M  V30 4428 H 406.206 -0.821077 -2.41103 0
M  V30 4429 H 406.989 -2.49176 -2.36149 0
M  V30 4430 N 409.434 1.37368 -0.772513 0
M  V30 4431 C 410.364 2.32856 -0.173304 0
M  V30 4432 C 411.345 1.55818 0.682262 0
M  V30 4433 O 412.53 1.84052 0.619566 0
M  V30 4434 C 409.66 3.40048 0.706007 0
M  V30 4435 C 408.614 4.27973 -0.0483144 0
M  V30 4436 C 407.94 5.26184 0.950491 0
M  V30 4437 C 409.24 5.07665 -1.22776 0
M  V30 4438 H 410.934 2.83217 -0.971002 0
M  V30 4439 H 408.48 1.3617 -0.468377 0
M  V30 4440 H 410.433 4.05827 1.13501 0
M  V30 4441 H 409.157 2.88214 1.53623 0
M  V30 4442 H 407.816 3.63726 -0.458107 0
M  V30 4443 H 407.464 4.7063 1.77529 0
M  V30 4444 H 407.164 5.85872 0.450314 0
M  V30 4445 H 408.688 5.94838 1.37842 0
M  V30 4446 H 410.102 5.66578 -0.875366 0
M  V30 4447 H 408.499 5.76681 -1.66007 0
M  V30 4448 H 409.569 4.40294 -2.03149 0
M  V30 4449 N 410.912 0.523116 1.48665 0
M  V30 4450 C 412.14 -0.0096312 2.06898 0
M  V30 4451 C 412.555 -1.28784 1.38059 0
M  V30 4452 O 411.912 -1.76453 0.465893 0
M  V30 4453 C 411.963 -0.244386 3.60673 0
M  V30 4454 O 411.684 0.983172 4.26925 0
M  V30 4455 C 413.185 -0.818289 4.35682 0
M  V30 4456 H 410.405 0.0304161 0.67031 0
M  V30 4457 H 412.949 0.726799 1.91149 0
M  V30 4458 H 411.104 -0.930847 3.76051 0
M  V30 4459 H 411.518 0.759653 5.1897 0
M  V30 4460 H 412.992 -0.93201 5.44075 0
M  V30 4461 H 413.469 -1.82153 3.99646 0
M  V30 4462 H 414.075 -0.168609 4.24966 0
M  V30 4463 N 412.39 -1.55475 0.257931 0
M  V30 4464 C 413.322 -2.19192 -0.669881 0
M  V30 4465 C 414.335 -1.17148 -1.1305 0
M  V30 4466 O 415.524 -1.43959 -1.05537 0
M  V30 4467 C 412.624 -2.79016 -1.92363 0
M  V30 4468 C 411.797 -4.06586 -1.61265 0
M  V30 4469 C 410.856 -4.50622 -2.7171 0
M  V30 4470 O 409.882 -5.16765 -2.38627 0
M  V30 4471 N 411.084 -4.19325 -4.01431 0
M  V30 4472 H 413.849 -2.99441 -0.124635 0
M  V30 4473 H 411.41 -1.6171 0.0783311 0
M  V30 4474 H 413.402 -3.05427 -2.65511 0
M  V30 4475 H 411.972 -2.0286 -2.37837 0
M  V30 4476 H 411.192 -3.87646 -0.715811 0
M  V30 4477 H 412.48 -4.89737 -1.37967 0
M  V30 4478 H 411.878 -3.66247 -4.31138 0
M  V30 4479 H 410.435 -4.50547 -4.7101 0
M  V30 4480 N 413.868 0.0150385 -1.57593 0
M  V30 4481 C 414.798 1.01047 -2.10503 0
M  V30 4482 C 415.779 1.36816 -1.01071 0
M  V30 4483 O 416.964 1.45455 -1.28672 0
M  V30 4484 C 414.094 2.30708 -2.59598 0
M  V30 4485 C 413.048 2.09142 -3.73421 0
M  V30 4486 C 412.374 3.44685 -4.08774 0
M  V30 4487 C 413.674 1.46619 -5.01298 0
M  V30 4488 H 415.368 0.569978 -2.93925 0
M  V30 4489 H 412.914 0.272724 -1.41394 0
M  V30 4490 H 414.867 3.00687 -2.95238 0
M  V30 4491 H 413.591 2.76843 -1.73279 0
M  V30 4492 H 412.25 1.41592 -3.38153 0
M  V30 4493 H 411.898 3.88495 -3.195 0
M  V30 4494 H 411.598 3.31077 -4.8545 0
M  V30 4495 H 413.122 4.16004 -4.4696 0
M  V30 4496 H 414.536 2.06535 -5.34805 0
M  V30 4497 H 412.933 1.43544 -5.82679 0
M  V30 4498 H 414.003 0.433611 -4.82957 0
M  V30 4499 N 415.346 1.54954 0.287554 0
M  V30 4500 C 416.276 1.89839 1.35954 0
M  V30 4501 C 417.257 0.758675 1.52244 0
M  V30 4502 O 418.442 1.01557 1.65529 0
M  V30 4503 C 415.572 2.15753 2.72154 0
M  V30 4504 C 414.526 3.3159 2.70614 0
M  V30 4505 C 413.852 3.42952 4.10229 0
M  V30 4506 C 415.152 4.68359 2.31165 0
M  V30 4507 H 416.846 2.79625 1.07007 0
M  V30 4508 H 414.392 1.3454 0.513316 0
M  V30 4509 H 416.345 2.38743 3.47246 0
M  V30 4510 H 415.069 1.22752 3.02654 0
M  V30 4511 H 413.728 3.08545 1.97979 0
M  V30 4512 H 413.376 2.47443 4.37928 0
M  V30 4513 H 413.076 4.20826 4.10097 0
M  V30 4514 H 414.6 3.68218 4.87081 0
M  V30 4515 H 416.014 4.9099 2.95976 0
M  V30 4516 H 414.411 5.49044 2.42221 0
M  V30 4517 H 415.481 4.68165 1.26291 0
M  V30 4518 N 416.824 -0.551391 1.4764 0
M  V30 4519 C 418.235 -1.13349 1.48354 0
M  V30 4520 C 418.586 -1.94709 0.241432 0
M  V30 4521 O 417.711 -2.06306 -0.653205 0
M  V30 4522 C 418.306 -2.0623 2.68802 0
M  V30 4523 C 416.865 -2.597 2.72457 0
M  V30 4524 C 416.012 -1.36201 2.41546 0
M  V30 4525 H 418.963 -0.337698 1.55065 0
M  V30 4526 H 418.984 -2.90196 2.46103 0
M  V30 4527 H 418.496 -1.46987 3.59188 0
M  V30 4528 H 416.597 -3.22724 1.86225 0
M  V30 4529 H 416.71 -3.00296 3.73308 0
M  V30 4530 H 415.074 -1.67068 1.9225 0
M  V30 4531 H 415.857 -0.787425 3.34147 0
M  V30 4532 N 418.302 -1.35869 -0.798587 0
M  V30 4533 C 419.55 -1.29332 -1.55298 0
M  V30 4534 C 419.871 0.129729 -1.94568 0
M  V30 4535 O 419.141 1.06796 -1.6423 0
M  V30 4536 H 417.721 -0.475737 -0.57592 0
M  V30 4537 H 420.383 -1.70062 -0.952093 0
M  V30 4538 H 419.479 -1.91458 -2.46476 0
M  V30 4539 N 419.78 1.02168 -1.19998 0
M  V30 4540 C 421.029 1.75091 -1.0013 0
M  V30 4541 C 421.342 1.89923 0.467835 0
M  V30 4542 O 422.548 2.59888 0.785515 0
M  V30 4543 C 421.004 3.14892 -1.74273 0
M  V30 4544 C 420.612 3.0809 -3.25245 0
M  V30 4545 C 422.356 3.9206 -1.62755 0
M  V30 4546 C 420.263 4.42867 -3.91948 0
M  V30 4547 H 419.193 0.656394 -0.37103 0
M  V30 4548 H 421.844 1.14284 -1.43567 0
M  V30 4549 H 420.226 3.7621 -1.2362 0
M  V30 4550 H 421.4 2.5611 -3.83072 0
M  V30 4551 H 419.715 2.44416 -3.3712 0
M  V30 4552 H 422.312 4.91764 -2.09934 0
M  V30 4553 H 422.655 4.12199 -0.582894 0
M  V30 4554 H 423.188 3.37359 -2.10793 0
M  V30 4555 H 419.927 4.27931 -4.96543 0
M  V30 4556 H 419.447 4.94874 -3.3891 0
M  V30 4557 H 421.126 5.11728 -3.95909 0
M  V30 4558 N 421.258 1.00505 1.21394 0
M  V30 4559 C 422.483 0.706367 1.95001 0
M  V30 4560 C 422.908 -0.72463 1.73582 0
M  V30 4561 O 422.266 -1.49702 1.0227 0
M  V30 4562 C 422.314 1.03299 3.45487 0
M  V30 4563 O 421.418 0.138275 4.12168 0
M  V30 4564 H 420.759 0.263175 0.609619 0
M  V30 4565 H 423.289 1.34531 1.54151 0
M  V30 4566 H 423.299 0.979872 3.96059 0
M  V30 4567 H 421.974 2.07567 3.60401 0
M  V30 4568 H 420.551 0.247928 3.72075 0
M  V30 4569 N 422.737 -1.36956 0.779787 0
M  V30 4570 C 424.153 -1.52817 0.460342 0
M  V30 4571 C 424.353 -1.7361 -1.02283 0
M  V30 4572 O 423.409 -1.76207 -1.80852 0
M  V30 4573 C 424.722 -2.71983 1.28241 0
M  V30 4574 C 426.27 -2.85849 1.27512 0
M  V30 4575 C 426.745 -4.08008 2.08072 0
M  V30 4576 N 428.236 -4.15135 2.05467 0
M  V30 4577 C 428.971 -5.08711 2.64577 0
M  V30 4578 N 428.467 -6.07792 3.32506 0
M  V30 4579 N 430.26 -5.01254 2.54363 0
M  V30 4580 H 422.411 -1.21713 1.74068 0
M  V30 4581 H 424.674 -0.593294 0.739396 0
M  V30 4582 H 424.38 -2.63109 2.33381 0
M  V30 4583 H 424.254 -3.65882 0.917088 0
M  V30 4584 H 426.641 -2.94189 0.231686 0
M  V30 4585 H 426.722 -1.92886 1.68014 0
M  V30 4586 H 426.366 -4.00429 3.12441 0
M  V30 4587 H 426.296 -5.001 1.64947 0
M  V30 4588 H 428.787 -3.44189 1.5602 0
M  V30 4589 H 429.1 -6.75739 3.74963 0
M  V30 4590 H 427.445 -6.08047 3.36606 0
M  V30 4591 H 430.636 -4.22795 2.00902 0
M  V30 4592 H 430.809 -5.73995 3.00722 0
M  V30 4593 N 424.215 -0.530993 -1.48385 0
M  V30 4594 C 425.125 0.23503 -2.3342 0
M  V30 4595 C 426.141 0.93801 -1.46552 0
M  V30 4596 O 427.317 0.912745 -1.7953 0
M  V30 4597 C 424.382 1.26778 -3.22689 0
M  V30 4598 C 423.443 0.575038 -4.25431 0
M  V30 4599 C 422.676 1.55858 -5.10435 0
M  V30 4600 O 422.899 2.79129 -4.97437 0
M  V30 4601 O 421.833 1.09742 -5.91811 0
M  V30 4602 H 425.659 -0.461794 -3.00169 0
M  V30 4603 H 423.244 -0.291903 -1.46521 0
M  V30 4604 H 425.126 1.86457 -3.77904 0
M  V30 4605 H 423.801 1.94699 -2.586 0
M  V30 4606 H 422.708 -0.0622782 -3.74048 0
M  V30 4607 H 424.041 -0.062253 -4.92161 0
M  V30 4608 N 425.693 1.55336 -0.266172 0
M  V30 4609 C 426.656 2.20878 0.612001 0
M  V30 4610 C 427.656 1.18388 1.08816 0
M  V30 4611 O 428.846 1.4335 0.989774 0
M  V30 4612 C 425.978 2.86765 1.84332 0
M  V30 4613 H 427.171 2.99873 0.0398718 0
M  V30 4614 H 424.724 1.56291 -0.0167309 0
M  V30 4615 H 425.459 2.11759 2.45619 0
M  V30 4616 H 425.244 3.61862 1.5099 0
M  V30 4617 H 426.734 3.36867 2.46801 0
M  V30 4618 N 427.171 -0.0066808 1.57599 0
M  V30 4619 C 428.101 -0.999296 2.11036 0
M  V30 4620 C 429.082 -1.36278 1.01795 0
M  V30 4621 O 430.267 -1.4477 1.29442 0
M  V30 4622 C 427.397 -2.29328 2.60818 0
M  V30 4623 C 426.351 -2.07159 3.74525 0
M  V30 4624 C 425.677 -3.42512 4.10596 0
M  V30 4625 C 426.977 -1.43959 5.02069 0
M  V30 4626 H 428.671 -0.554382 2.94223 0
M  V30 4627 H 426.217 -0.265221 1.41536 0
M  V30 4628 H 428.17 -2.99117 2.96828 0
M  V30 4629 H 426.894 -2.7592 1.74745 0
M  V30 4630 H 425.553 -1.39797 3.38899 0
M  V30 4631 H 425.201 -3.86795 3.21556 0
M  V30 4632 H 424.901 -3.28498 4.87199 0
M  V30 4633 H 426.425 -4.13628 4.4916 0
M  V30 4634 H 427.839 -2.03696 5.35893 0
M  V30 4635 H 426.236 -1.40452 5.83432 0
M  V30 4636 H 427.306 -0.407992 4.83181 0
M  V30 4637 N 428.649 -1.55105 -0.279332 0
M  V30 4638 C 429.926 -1.66119 -1.03267 0
M  V30 4639 C 430.306 -0.523525 -2.04505 0
M  V30 4640 O 429.654 0.477194 -2.23462 0
M  V30 4641 C 429.864 -3.05067 -1.69515 0
M  V30 4642 C 431.212 -3.62606 -2.20912 0
M  V30 4643 O 432.236 -3.07659 -1.79512 0
M  V30 4644 O 431.095 -4.58861 -2.96831 0
M  V30 4645 H 428.189 -0.674429 -0.478618 0
M  V30 4646 H 430.735 -1.67446 -0.275694 0
M  V30 4647 H 429.507 -3.79311 -0.9612 0
M  V30 4648 H 429.13 -3.07611 -2.51915 0
M  V30 4649 N 430.127 0.543554 -1.4793 0
M  V30 4650 C 431.374 1.30008 -1.55255 0
M  V30 4651 C 431.702 1.93245 -0.220612 0
M  V30 4652 O 430.957 1.79141 0.787843 0
M  V30 4653 C 431.256 2.42078 -2.62932 0
M  V30 4654 C 430.922 1.96583 -4.0579 0
M  V30 4655 C 429.584 1.83893 -4.44676 0
M  V30 4656 C 431.936 1.62034 -4.95373 0
M  V30 4657 C 429.264 1.34969 -5.70964 0
M  V30 4658 C 431.616 1.14577 -6.22137 0
M  V30 4659 C 430.28 1.00493 -6.59892 0
M  V30 4660 H 429.55 0.475735 -0.568117 0
M  V30 4661 H 432.197 0.608075 -1.81589 0
M  V30 4662 H 430.502 3.16892 -2.30406 0
M  V30 4663 H 432.199 3.00236 -2.65818 0
M  V30 4664 H 428.789 2.07407 -3.75074 0
M  V30 4665 H 432.973 1.70705 -4.66019 0
M  V30 4666 H 428.229 1.2274 -5.98953 0
M  V30 4667 H 432.403 0.869109 -6.90955 0
M  V30 4668 H 430.03 0.623624 -7.57638 0
M  V30 4669 N 431.605 1.3629 0.791371 0
M  V30 4670 C 432.535 1.33137 1.91825 0
M  V30 4671 C 433.516 0.203168 1.68882 0
M  V30 4672 O 434.701 0.400509 1.90025 0
M  V30 4673 C 431.831 1.11793 3.28816 0
M  V30 4674 C 430.785 2.21417 3.66277 0
M  V30 4675 C 430.111 1.85218 5.01596 0
M  V30 4676 C 431.411 3.63489 3.75064 0
M  V30 4677 H 433.105 2.2743 1.9472 0
M  V30 4678 H 430.651 1.09479 0.935437 0
M  V30 4679 H 432.604 1.08222 4.07266 0
M  V30 4680 H 431.328 0.139501 3.26302 0
M  V30 4681 H 429.987 2.2411 2.90121 0
M  V30 4682 H 429.635 0.859544 4.95602 0
M  V30 4683 H 429.335 2.58611 5.27631 0
M  V30 4684 H 430.859 1.832 5.82469 0
M  V30 4685 H 432.273 3.63034 4.43711 0
M  V30 4686 H 430.67 4.35771 4.12582 0
M  V30 4687 H 431.74 3.98536 2.76219 0
M  V30 4688 N 433.083 -1.0153 1.20538 0
M  V30 4689 C 433.993 -2.13557 0.971113 0
M  V30 4690 C 435.009 -1.73845 -0.0734366 0
M  V30 4691 O 436.185 -2.01075 0.114299 0
M  V30 4692 C 433.25 -3.42661 0.527639 0
M  V30 4693 C 432.311 -3.96608 1.64319 0
M  V30 4694 C 431.544 -5.1955 1.22078 0
M  V30 4695 O 431.767 -5.70329 0.0900198 0
M  V30 4696 O 430.701 -5.66681 2.02871 0
M  V30 4697 H 434.527 -2.3619 1.90913 0
M  V30 4698 H 432.112 -1.11946 0.989362 0
M  V30 4699 H 433.994 -4.20404 0.289621 0
M  V30 4700 H 432.669 -3.21441 -0.381779 0
M  V30 4701 H 431.576 -3.20139 1.93551 0
M  V30 4702 H 432.909 -4.22219 2.52966 0
M  V30 4703 N 434.561 -1.01147 -1.20859 0
M  V30 4704 C 435.493 -0.535546 -2.22855 0
M  V30 4705 C 436.506 0.379323 -1.58319 0
M  V30 4706 O 437.695 0.178489 -1.77605 0
M  V30 4707 C 434.795 0.240962 -3.38042 0
M  V30 4708 C 433.968 -0.674562 -4.32167 0
M  V30 4709 C 433.027 0.053467 -5.26173 0
M  V30 4710 O 432.053 -0.567339 -5.66366 0
M  V30 4711 N 433.255 1.32997 -5.65059 0
M  V30 4712 H 436.02 -1.41268 -2.64317 0
M  V30 4713 H 433.581 -0.888386 -1.35349 0
M  V30 4714 H 435.573 0.737115 -3.97931 0
M  V30 4715 H 434.143 1.01935 -2.95513 0
M  V30 4716 H 433.363 -1.35111 -3.70322 0
M  V30 4717 H 434.651 -1.2974 -4.91981 0
M  V30 4718 H 434.049 1.85536 -5.34409 0
M  V30 4719 H 432.606 1.77095 -6.2728 0
M  V30 4720 N 436.039 1.36541 -0.78704 0
M  V30 4721 C 437.288 1.98552 -0.35494 0
M  V30 4722 C 437.601 1.63171 1.07864 0
M  V30 4723 O 438.807 2.18399 1.61289 0
M  V30 4724 C 437.263 3.55136 -0.583671 0
M  V30 4725 C 436.871 3.99444 -2.02851 0
M  V30 4726 C 438.615 4.2395 -0.215957 0
M  V30 4727 C 436.522 5.48796 -2.20403 0
M  V30 4728 H 435.452 0.742888 -0.128972 0
M  V30 4729 H 438.103 1.5587 -0.968337 0
M  V30 4730 H 436.485 3.95875 0.0994046 0
M  V30 4731 H 437.659 3.6991 -2.74779 0
M  V30 4732 H 435.974 3.43459 -2.35425 0
M  V30 4733 H 438.571 5.33709 -0.325405 0
M  V30 4734 H 438.914 4.07827 0.835646 0
M  V30 4735 H 439.447 3.88565 -0.852175 0
M  V30 4736 H 436.186 5.69864 -3.23937 0
M  V30 4737 H 435.706 5.79964 -1.52977 0
M  V30 4738 H 437.385 6.14986 -2.01002 0
M  V30 4739 N 437.518 0.538854 1.48102 0
M  V30 4740 C 438.448 -0.207654 2.32575 0
M  V30 4741 C 439.429 -0.926559 1.4265 0
M  V30 4742 O 440.614 -0.91061 1.71527 0
M  V30 4743 C 437.744 -1.24957 3.24042 0
M  V30 4744 C 436.698 -0.648263 4.23062 0
M  V30 4745 C 436.024 -1.79348 5.03725 0
M  V30 4746 C 437.324 0.385897 5.20872 0
M  V30 4747 H 439.018 0.497534 2.95237 0
M  V30 4748 H 436.564 0.240715 1.41974 0
M  V30 4749 H 438.517 -1.77983 3.81969 0
M  V30 4750 H 437.241 -1.98446 2.59397 0
M  V30 4751 H 435.9 -0.139452 3.66335 0
M  V30 4752 H 435.548 -2.51696 4.35498 0
M  V30 4753 H 435.248 -1.39702 5.70751 0
M  V30 4754 H 436.772 -2.32735 5.64506 0
M  V30 4755 H 438.186 -0.057607 5.73271 0
M  V30 4756 H 436.583 0.700227 5.96001 0
M  V30 4757 H 437.653 1.28848 4.67468 0
M  V30 4758 N 438.996 -1.55193 0.274407 0
M  V30 4759 C 440.224 -2.03987 -0.345943 0
M  V30 4760 C 440.639 -1.15279 -1.4952 0
M  V30 4761 O 439.996 -0.172759 -1.8168 0
M  V30 4762 C 440.047 -3.51898 -0.827631 0
M  V30 4763 O 439.768 -4.37231 0.275855 0
M  V30 4764 C 441.269 -4.16577 -1.51587 0
M  V30 4765 H 438.489 -0.666335 -0.0789892 0
M  V30 4766 H 441.033 -2.00423 0.406294 0
M  V30 4767 H 439.188 -3.55909 -1.52996 0
M  V30 4768 H 439.602 -5.24415 -0.0943638 0
M  V30 4769 H 441.076 -5.21678 -1.80433 0
M  V30 4770 H 441.553 -3.64707 -2.44716 0
M  V30 4771 H 442.159 -4.16568 -0.857409 0
M  V30 4772 N 440.474 -0.00167713 -1.576 0
M  V30 4773 C 441.721 0.68282 -1.90641 0
M  V30 4774 C 442.049 1.73686 -0.875415 0
M  V30 4775 O 441.304 1.95334 0.119575 0
M  V30 4776 C 441.603 1.36189 -3.30435 0
M  V30 4777 C 441.269 0.440887 -4.48739 0
M  V30 4778 C 439.931 0.187312 -4.80835 0
M  V30 4779 C 442.283 -0.193134 -5.20842 0
M  V30 4780 C 439.611 -0.70855 -5.82406 0
M  V30 4781 C 441.963 -1.07688 -6.23367 0
M  V30 4782 C 440.627 -1.33962 -6.53919 0
M  V30 4783 H 439.897 0.249862 -0.697603 0
M  V30 4784 H 442.544 -0.0575642 -1.91413 0
M  V30 4785 H 440.849 2.17636 -3.25794 0
M  V30 4786 H 442.546 1.89759 -3.5326 0
M  V30 4787 H 439.136 0.648694 -4.23663 0
M  V30 4788 H 443.32 -0.0102445 -4.96299 0
M  V30 4789 H 438.576 -0.920097 -6.04437 0
M  V30 4790 H 442.75 -1.57451 -6.78367 0
M  V30 4791 H 440.377 -2.03549 -7.32442 0
M  V30 4792 N 441.952 1.55251 0.271103 0
M  V30 4793 C 443.177 1.80306 1.02491 0
M  V30 4794 C 443.602 0.575457 1.79081 0
M  V30 4795 O 442.96 -0.474987 1.74967 0
M  V30 4796 C 443.008 3.02832 1.95768 0
M  V30 4797 O 442.112 2.78051 3.04568 0
M  V30 4798 H 441.453 0.595896 0.292923 0
M  V30 4799 H 443.983 2.02397 0.299436 0
M  V30 4800 H 443.993 3.31616 2.37686 0
M  V30 4801 H 442.668 3.9183 1.39434 0
M  V30 4802 H 441.245 2.60369 2.66951 0
M  V30 4803 N 443.43 -0.535701 1.48216 0
M  V30 4804 C 444.841 -1.11769 1.49548 0
M  V30 4805 C 445.192 -1.94442 0.26207 0
M  V30 4806 O 444.317 -2.06987 -0.631287 0
M  V30 4807 C 444.912 -2.03367 2.70975 0
M  V30 4808 C 443.471 -2.56795 2.75196 0
M  V30 4809 C 442.618 -1.33631 2.42977 0
M  V30 4810 H 445.569 -0.321232 1.55415 0
M  V30 4811 H 445.59 -2.87569 2.49167 0
M  V30 4812 H 445.102 -1.43169 3.60727 0
M  V30 4813 H 443.203 -3.20731 1.89638 0
M  V30 4814 H 443.316 -2.9632 3.76472 0
M  V30 4815 H 441.68 -1.6502 1.94012 0
M  V30 4816 H 442.463 -0.75194 3.34964 0
M  V30 4817 N 444.908 -1.36708 -0.784132 0
M  V30 4818 C 445.841 -1.25827 -1.90375 0
M  V30 4819 C 446.819 -0.141331 -1.61985 0
M  V30 4820 O 448.003 -0.313389 -1.85877 0
M  V30 4821 C 445.13 -0.942621 -3.25319 0
M  V30 4822 C 444.176 -2.07474 -3.72635 0
M  V30 4823 S 445.009 -3.69317 -3.8777 0
M  V30 4824 C 446.165 -3.39876 -5.25581 0
M  V30 4825 H 446.398 -2.20593 -1.99314 0
M  V30 4826 H 443.931 -1.22186 -0.943926 0
M  V30 4827 H 445.889 -0.767321 -4.03265 0
M  V30 4828 H 444.55 -0.0126566 -3.14097 0
M  V30 4829 H 443.743 -1.80858 -4.70432 0
M  V30 4830 H 443.345 -2.20953 -3.01754 0
M  V30 4831 H 445.637 -2.94097 -6.10339 0
M  V30 4832 H 446.58 -4.36956 -5.57203 0
M  V30 4833 H 446.988 -2.75098 -4.92931 0
M  V30 4834 N 446.386 1.0089 -1.21074 0
M  V30 4835 C 447.663 1.71834 -0.934469 0
M  V30 4836 C 448.043 2.0368 0.554753 0
M  V30 4837 O 447.391 1.70742 1.51854 0
M  V30 4838 C 447.601 2.98061 -1.8155 0
M  V30 4839 C 448.949 3.7117 -2.06199 0
M  V30 4840 O 449.973 3.08034 -1.78867 0
M  V30 4841 O 448.832 4.84721 -2.52404 0
M  V30 4842 H 445.926 0.749253 -0.35007 0
M  V30 4843 H 448.472 1.06668 -1.31985 0
M  V30 4844 H 447.244 2.70908 -2.82355 0
M  V30 4845 H 446.867 3.70968 -1.43068 0
M  V30 4846 N 447.864 1.01787 1.20321 0
M  V30 4847 C 449.28 0.732951 1.41774 0
M  V30 4848 C 449.48 -0.686883 1.89431 0
M  V30 4849 O 448.536 -1.45446 2.06402 0
M  V30 4850 C 449.849 1.75973 2.43832 0
M  V30 4851 C 451.397 1.77802 2.57596 0
M  V30 4852 C 451.872 2.7941 3.62897 0
M  V30 4853 N 453.363 2.78157 3.70382 0
M  V30 4854 C 454.098 3.53434 4.51521 0
M  V30 4855 N 453.594 4.38392 5.36455 0
M  V30 4856 N 455.387 3.42026 4.46066 0
M  V30 4857 H 447.538 1.93447 0.877035 0
M  V30 4858 H 449.801 0.835712 0.447536 0
M  V30 4859 H 449.507 2.77699 2.15815 0
M  V30 4860 H 449.381 1.57292 3.4284 0
M  V30 4861 H 451.768 0.767602 2.84942 0
M  V30 4862 H 451.849 2.00557 1.58779 0
M  V30 4863 H 451.493 3.80616 3.36295 0
M  V30 4864 H 451.423 2.53916 4.61339 0
M  V30 4865 H 453.914 2.16531 3.09714 0
M  V30 4866 H 454.227 4.92596 5.95457 0
M  V30 4867 H 452.572 4.4247 5.35953 0
M  V30 4868 H 455.763 2.75075 3.78749 0
M  V30 4869 H 455.936 4.00946 5.09064 0
M  V30 4870 N 449.342 -1.36122 0.79427 0
M  V30 4871 C 450.272 -2.32551 0.210328 0
M  V30 4872 C 451.253 -1.56884 -0.657386 0
M  V30 4873 O 452.438 -1.85014 -0.590207 0
M  V30 4874 C 449.568 -3.41128 -0.651819 0
M  V30 4875 C 448.522 -4.27842 0.116395 0
M  V30 4876 C 447.848 -5.2763 -0.86666 0
M  V30 4877 C 449.148 -5.05647 1.30837 0
M  V30 4878 H 450.842 -2.81636 1.01594 0
M  V30 4879 H 448.388 -1.35407 0.489981 0
M  V30 4880 H 450.341 -4.07581 -1.07031 0
M  V30 4881 H 449.065 -2.90622 -1.49019 0
M  V30 4882 H 447.724 -3.62952 0.515915 0
M  V30 4883 H 447.372 -4.73395 -1.70019 0
M  V30 4884 H 447.072 -5.86514 -0.35705 0
M  V30 4885 H 448.596 -5.96955 -1.28361 0
M  V30 4886 H 450.01 -5.65113 0.965393 0
M  V30 4887 H 448.407 -5.73967 1.75161 0
M  V30 4888 H 449.477 -4.37006 2.10128 0
M  V30 4889 N 450.82 -0.546701 -1.47814 0
M  V30 4890 C 452.048 -0.0232857 -2.06887 0
M  V30 4891 C 452.463 1.26571 -1.4009 0
M  V30 4892 O 451.82 1.7569 -0.493906 0
M  V30 4893 C 451.871 0.186975 -3.61016 0
M  V30 4894 O 451.592 -1.05097 -4.25307 0
M  V30 4895 C 453.093 0.748872 -4.36929 0
M  V30 4896 H 450.313 -0.0410763 -0.669742 0
M  V30 4897 H 452.857 -0.757117 -1.89968 0
M  V30 4898 H 451.012 0.870903 -3.77484 0
M  V30 4899 H 451.426 -0.842121 -5.17695 0
M  V30 4900 H 452.9 0.845334 -5.45489 0
M  V30 4901 H 453.377 1.75772 -4.02493 0
M  V30 4902 H 453.983 0.100979 -4.2518 0
M  V30 4903 N 452.299 1.55045 -0.282633 0
M  V30 4904 C 453.262 2.21515 0.588539 0
M  V30 4905 C 454.262 1.19535 1.07554 0
M  V30 4906 O 455.452 1.44391 0.974514 0
M  V30 4907 C 452.584 2.88704 1.8128 0
M  V30 4908 H 453.777 2.99899 0.00806397 0
M  V30 4909 H 451.33 1.56265 -0.0333067 0
M  V30 4910 H 452.065 2.14352 2.43359 0
M  V30 4911 H 451.85 3.63443 1.47144 0
M  V30 4912 H 453.34 3.39465 2.43214 0
M  V30 4913 N 453.777 0.010035 1.57597 0
M  V30 4914 C 454.687 -0.994226 2.12491 0
M  V30 4915 C 455.703 -1.37013 1.07254 0
M  V30 4916 O 456.879 -1.45542 1.3921 0
M  V30 4917 C 453.944 -2.2642 2.62555 0
M  V30 4918 C 453.005 -1.95049 3.82432 0
M  V30 4919 C 452.238 -3.15991 4.30099 0
M  V30 4920 O 452.461 -4.28015 3.7704 0
M  V30 4921 O 451.395 -2.99403 5.22151 0
M  V30 4922 H 455.221 -0.557549 2.98538 0
M  V30 4923 H 452.806 -0.209413 1.47925 0
M  V30 4924 H 454.688 -3.01009 2.9491 0
M  V30 4925 H 453.363 -2.69306 1.796 0
M  V30 4926 H 452.27 -1.17904 3.55034 0
M  V30 4927 H 453.603 -1.56992 4.66491 0
M  V30 4928 N 455.255 -1.55392 -0.262866 0
M  V30 4929 C 456.165 -1.92077 -1.34698 0
M  V30 4930 C 457.181 -0.819227 -1.53508 0
M  V30 4931 O 458.357 -1.11921 -1.67439 0
M  V30 4932 C 455.422 -2.19407 -2.68443 0
M  V30 4933 C 454.483 -3.42905 -2.58292 0
M  V30 4934 C 453.716 -3.68921 -3.85659 0
M  V30 4935 O 453.939 -2.97275 -4.8681 0
M  V30 4936 O 452.873 -4.62455 -3.85252 0
M  V30 4937 H 456.699 -2.84384 -1.06581 0
M  V30 4938 H 454.284 -1.42069 -0.462264 0
M  V30 4939 H 456.166 -2.38365 -3.47506 0
M  V30 4940 H 454.841 -1.30282 -2.96325 0
M  V30 4941 H 453.748 -3.29272 -1.7757 0
M  V30 4942 H 455.081 -4.32282 -2.35358 0
M  V30 4943 N 456.733 0.527833 -1.48498 0
M  V30 4944 C 457.696 1.61439 -1.62696 0
M  V30 4945 C 458.696 1.52824 -0.500136 0
M  V30 4946 O 459.886 1.56456 -0.765976 0
M  V30 4947 C 457.018 3.01063 -1.59918 0
M  V30 4948 H 458.211 1.50189 -2.59583 0
M  V30 4949 H 455.764 0.750055 -1.37127 0
M  V30 4950 H 456.499 3.17818 -0.645163 0
M  V30 4951 H 456.284 3.08725 -2.41726 0
M  V30 4952 H 457.774 3.80057 -1.73051 0
M  V30 4953 N 458.211 1.37122 0.776871 0
M  V30 4954 C 459.141 1.35164 1.90402 0
M  V30 4955 C 460.122 0.221069 1.68657 0
M  V30 4956 O 461.307 0.420642 1.8959 0
M  V30 4957 C 458.437 1.15274 3.27611 0
M  V30 4958 C 457.391 2.25289 3.63908 0
M  V30 4959 C 456.717 1.90527 4.99603 0
M  V30 4960 C 458.017 3.67446 3.71188 0
M  V30 4961 H 459.711 2.29482 1.92297 0
M  V30 4962 H 457.257 1.10465 0.923773 0
M  V30 4963 H 459.21 1.12536 4.06096 0
M  V30 4964 H 457.934 0.174102 3.26136 0
M  V30 4965 H 456.593 2.27174 2.87728 0
M  V30 4966 H 456.241 0.91206 4.94662 0
M  V30 4967 H 455.941 2.64193 5.24858 0
M  V30 4968 H 457.465 1.89367 5.80493 0
M  V30 4969 H 458.879 3.67719 4.39836 0
M  V30 4970 H 457.276 4.40123 4.07936 0
M  V30 4971 H 458.346 4.01443 2.71977 0
M  V30 4972 N 459.689 -1.00246 1.21608 0
M  V30 4973 C 460.914 -1.78167 1.06167 0
M  V30 4974 C 461.339 -1.84138 -0.384035 0
M  V30 4975 O 460.697 -1.28683 -1.27712 0
M  V30 4976 C 460.745 -3.19786 1.66642 0
M  V30 4977 O 459.849 -4.02153 0.913613 0
M  V30 4978 H 459.19 -0.549 0.37349 0
M  V30 4979 H 461.72 -1.25994 1.61204 0
M  V30 4980 H 461.73 -3.70451 1.70969 0
M  V30 4981 H 460.405 -3.14754 2.7185 0
M  V30 4982 H 458.982 -3.60711 0.945635 0
M  V30 4983 N 461.167 -1.02423 -1.1978 0
M  V30 4984 C 462.117 -0.571689 -2.20716 0
M  V30 4985 C 463.101 0.377077 -1.56419 0
M  V30 4986 O 464.293 0.198801 -1.7588 0
M  V30 4987 C 461.422 0.0808555 -3.43205 0
M  V30 4988 C 460.508 -0.890073 -4.14655 0
M  V30 4989 N 460.899 -2.05065 -4.62366 0
M  V30 4990 C 459.197 -0.71252 -4.40272 0
M  V30 4991 C 459.898 -2.66264 -5.17183 0
M  V30 4992 N 458.874 -1.94264 -5.07703 0
M  V30 4993 H 462.676 -1.45636 -2.55279 0
M  V30 4994 H 460.19 -0.890596 -1.35802 0
M  V30 4995 H 462.187 0.422654 -4.14752 0
M  V30 4996 H 460.847 0.961274 -3.10144 0
M  V30 4997 H 461.858 -2.43026 -4.57339 0
M  V30 4998 H 458.535 0.119199 -4.1733 0
M  V30 4999 H 459.925 -3.64526 -5.64421 0
M  V30 5000 N 462.645 1.35699 -0.801477 0
M  V30 5001 C 464.056 1.81415 -0.441073 0
M  V30 5002 C 464.407 1.66595 1.03636 0
M  V30 5003 O 463.532 1.19369 1.80499 0
M  V30 5004 C 464.127 3.29369 -0.793819 0
M  V30 5005 C 462.686 3.73248 -0.486083 0
M  V30 5006 C 461.833 2.57775 -1.02213 0
M  V30 5007 H 464.784 1.23749 -0.993572 0
M  V30 5008 H 464.805 3.80395 -0.0894158 0
M  V30 5009 H 464.317 3.40123 -1.86917 0
M  V30 5010 H 462.418 3.68046 0.580735 0
M  V30 5011 H 462.531 4.68222 -1.01513 0
M  V30 5012 H 460.895 2.50788 -0.444712 0
M  V30 5013 H 461.678 2.71309 -2.10348 0
M  V30 5014 N 464.123 0.554532 1.47522 0
M  V30 5015 C 465.353 0.0342074 2.06572 0
M  V30 5016 C 465.761 -1.26375 1.40805 0
M  V30 5017 O 465.104 -1.7683 0.49769 0
M  V30 5018 C 465.166 -0.235096 3.5873 0
M  V30 5019 C 464.83 0.973024 4.46521 0
M  V30 5020 C 465.827 1.8779 4.848 0
M  V30 5021 C 463.512 1.18694 4.88075 0
M  V30 5022 C 465.506 2.98039 5.63428 0
M  V30 5023 C 463.193 2.29254 5.66468 0
M  V30 5024 C 464.191 3.18757 6.04055 0
M  V30 5025 O 463.879 4.27401 6.8087 0
M  V30 5026 H 463.611 0.041587 0.67472 0
M  V30 5027 H 466.165 0.766748 1.90552 0
M  V30 5028 H 464.395 -1.02191 3.72953 0
M  V30 5029 H 466.084 -0.700477 3.9981 0
M  V30 5030 H 466.85 1.72467 4.53299 0
M  V30 5031 H 462.729 0.49947 4.58286 0
M  V30 5032 H 466.273 3.67926 5.92685 0
M  V30 5033 H 462.17 2.4455 5.97382 0
M  V30 5034 H 462.938 4.25415 6.9926 0
M  V30 5035 N 465.601 -1.54893 0.290851 0
M  V30 5036 C 466.534 -2.19289 -0.631489 0
M  V30 5037 C 467.512 -1.15893 -1.14051 0
M  V30 5038 O 468.696 -1.4449 -1.21058 0
M  V30 5039 C 465.823 -2.82866 -1.86291 0
M  V30 5040 C 464.869 -3.997 -1.48801 0
M  V30 5041 S 465.702 -5.32641 -0.552644 0
M  V30 5042 C 466.858 -5.99696 -1.79209 0
M  V30 5043 H 467.091 -2.9718 -0.0843791 0
M  V30 5044 H 464.624 -1.54218 0.075031 0
M  V30 5045 H 466.582 -3.20124 -2.56964 0
M  V30 5046 H 465.243 -2.04839 -2.38117 0
M  V30 5047 H 464.436 -4.42932 -2.40473 0
M  V30 5048 H 464.038 -3.63947 -0.861321 0
M  V30 5049 H 466.33 -6.19886 -2.734 0
M  V30 5050 H 467.273 -6.94071 -1.40251 0
M  V30 5051 H 467.681 -5.29226 -1.96419 0
M  V30 5052 N 467.08 -0.0183926 -1.57589 0
M  V30 5053 C 468.305 0.676634 -1.96052 0
M  V30 5054 C 468.73 1.6548 -0.894307 0
M  V30 5055 O 468.088 1.80712 0.145849 0
M  V30 5056 C 468.136 1.36872 -3.33614 0
M  V30 5057 O 467.24 2.48372 -3.29219 0
M  V30 5058 H 466.581 0.1786 -0.63953 0
M  V30 5059 H 469.111 -0.077056 -2.04455 0
M  V30 5060 H 469.121 1.72797 -3.69601 0
M  V30 5061 H 467.796 0.651636 -4.10763 0
M  V30 5062 H 466.373 2.14639 -3.04934 0
M  V30 5063 N 468.558 1.5553 0.254621 0
M  V30 5064 C 469.807 1.76202 0.981612 0
M  V30 5065 C 470.12 0.580883 1.86776 0
M  V30 5066 O 471.326 0.670448 2.63092 0
M  V30 5067 C 469.782 3.11921 1.79537 0
M  V30 5068 C 469.39 4.37659 0.956991 0
M  V30 5069 C 471.134 3.41936 2.51555 0
M  V30 5070 C 469.041 5.64411 1.76619 0
M  V30 5071 H 467.971 0.656841 0.370237 0
M  V30 5072 H 470.622 1.81969 0.236556 0
M  V30 5073 H 469.004 3.00241 2.58208 0
M  V30 5074 H 470.178 4.60307 0.21315 0
M  V30 5075 H 468.493 4.14922 0.350497 0
M  V30 5076 H 471.09 4.33849 3.12536 0
M  V30 5077 H 471.433 2.62905 3.22779 0
M  V30 5078 H 471.966 3.54797 1.799 0
M  V30 5079 H 468.705 6.46241 1.09783 0
M  V30 5080 H 468.225 5.45877 2.48551 0
M  V30 5081 H 469.904 6.03386 2.33527 0
M  V30 5082 N 470.036 -0.519951 1.48776 0
M  V30 5083 C 471.266 -1.29783 1.60748 0
M  V30 5084 C 471.674 -1.87253 0.27072 0
M  V30 5085 O 471.017 -1.67628 -0.751438 0
M  V30 5086 C 471.079 -2.47984 2.60277 0
M  V30 5087 C 470.743 -2.11526 4.051 0
M  V30 5088 C 471.74 -1.66608 4.92481 0
M  V30 5089 C 469.425 -2.21742 4.50706 0
M  V30 5090 C 471.419 -1.32384 6.23501 0
M  V30 5091 C 469.106 -1.87129 5.81744 0
M  V30 5092 C 470.104 -1.42523 6.67964 0
M  V30 5093 O 469.792 -1.0837 7.96562 0
M  V30 5094 H 469.524 -0.400562 0.544542 0
M  V30 5095 H 472.078 -0.632879 1.95407 0
M  V30 5096 H 470.308 -3.17493 2.2076 0
M  V30 5097 H 471.997 -3.10036 2.61978 0
M  V30 5098 H 472.763 -1.58178 4.58481 0
M  V30 5099 H 468.642 -2.55415 3.83776 0
M  V30 5100 H 472.186 -0.974949 6.90754 0
M  V30 5101 H 468.083 -1.95204 6.15277 0
M  V30 5102 H 468.851 -1.21681 8.09405 0
M  V30 5103 N 471.514 -1.37532 -0.769588 0
M  V30 5104 C 472.739 -1.36231 -1.56384 0
M  V30 5105 C 473.164 0.0495849 -1.88035 0
M  V30 5106 O 472.522 1.02723 -1.49391 0
M  V30 5107 C 472.57 -2.20986 -2.84952 0
M  V30 5108 O 471.674 -1.61597 -3.79421 0
M  V30 5109 H 471.015 -0.465387 -0.473615 0
M  V30 5110 H 473.545 -1.81085 -0.952342 0
M  V30 5111 H 473.555 -2.34277 -3.34034 0
M  V30 5112 H 472.23 -3.23612 -2.61243 0
M  V30 5113 H 470.807 -1.57359 -3.38072 0
M  V30 5114 N 472.992 0.995999 -1.22138 0
M  V30 5115 C 474.239 1.7351 -1.04406 0
M  V30 5116 C 474.567 1.89884 0.421244 0
M  V30 5117 O 473.822 1.43683 1.32867 0
M  V30 5118 C 474.121 3.14553 -1.6968 0
M  V30 5119 C 473.787 3.18102 -3.19565 0
M  V30 5120 C 472.449 3.18778 -3.60464 0
M  V30 5121 C 474.801 3.14636 -4.15516 0
M  V30 5122 C 472.129 3.13684 -4.95801 0
M  V30 5123 C 474.481 3.11084 -5.50826 0
M  V30 5124 C 473.145 3.10074 -5.91109 0
M  V30 5125 H 472.415 0.634916 -0.38205 0
M  V30 5126 H 475.062 1.1667 -1.51857 0
M  V30 5127 H 473.367 3.74682 -1.14546 0
M  V30 5128 H 475.064 3.70477 -1.53454 0
M  V30 5129 H 471.654 3.18324 -2.86998 0
M  V30 5130 H 475.838 3.13266 -3.84939 0
M  V30 5131 H 471.094 3.11245 -5.26247 0
M  V30 5132 H 475.268 3.07357 -6.24904 0
M  V30 5133 H 472.895 3.05882 -6.95946 0
M  V30 5134 N 474.47 1.03057 1.19235 0
M  V30 5135 C 475.881 0.757449 1.70645 0
M  V30 5136 C 476.232 -0.722735 1.82403 0
M  V30 5137 O 475.357 -1.56325 1.49638 0
M  V30 5138 C 475.952 1.36833 3.09939 0
M  V30 5139 C 474.511 1.14375 3.58602 0
M  V30 5140 C 473.658 1.46533 2.35422 0
M  V30 5141 H 476.609 1.19828 1.04052 0
M  V30 5142 H 476.63 0.766184 3.72706 0
M  V30 5143 H 476.142 2.44562 3.01349 0
M  V30 5144 H 474.243 0.0847542 3.72504 0
M  V30 5145 H 474.356 1.83366 4.42622 0
M  V30 5146 H 472.72 0.884712 2.38841 0
M  V30 5147 H 473.503 2.55349 2.2946 0
M  V30 5148 N 475.948 -1.35272 0.808662 0
M  V30 5149 C 476.881 -2.27595 0.165994 0
M  V30 5150 C 477.859 -1.48189 -0.669241 0
M  V30 5151 O 479.043 -1.77444 -0.636073 0
M  V30 5152 C 476.17 -3.29843 -0.769505 0
M  V30 5153 C 475.216 -4.26498 -0.0136267 0
M  V30 5154 S 476.049 -5.18878 1.32384 0
M  V30 5155 C 477.205 -6.24666 0.392838 0
M  V30 5156 H 477.438 -2.81755 0.948756 0
M  V30 5157 H 474.971 -1.42103 0.603828 0
M  V30 5158 H 476.929 -3.89247 -1.30374 0
M  V30 5159 H 475.59 -2.74558 -1.52567 0
M  V30 5160 H 474.783 -4.98769 -0.724227 0
M  V30 5161 H 474.385 -3.71274 0.450713 0
M  V30 5162 H 476.677 -6.7619 -0.4211 0
M  V30 5163 H 477.62 -6.99741 1.0848 0
M  V30 5164 H 478.028 -5.64499 -0.0123908 0
M  V30 5165 N 477.426 -0.562348 -1.47226 0
M  V30 5166 C 478.703 0.0256985 -1.95583 0
M  V30 5167 C 479.083 1.48032 -1.50498 0
M  V30 5168 O 478.431 2.15973 -0.746181 0
M  V30 5169 C 478.641 -0.125129 -3.48776 0
M  V30 5170 C 479.989 0.0175728 -4.24596 0
M  V30 5171 O 481.013 -0.0529341 -3.56161 0
M  V30 5172 O 479.872 0.170145 -5.46235 0
M  V30 5173 H 476.966 0.0612565 -0.824728 0
M  V30 5174 H 479.512 -0.629233 -1.57603 0
M  V30 5175 H 478.284 -1.13715 -3.74412 0
M  V30 5176 H 477.907 0.567178 -3.93534 0
M  V30 5177 N 478.904 1.54736 -0.299062 0
M  V30 5178 C 479.814 2.27127 0.587413 0
M  V30 5179 C 480.83 1.30575 1.15005 0
M  V30 5180 O 482.006 1.63554 1.17525 0
M  V30 5181 C 479.071 2.99645 1.74395 0
M  V30 5182 C 478.132 4.11731 1.21559 0
M  V30 5183 C 477.365 4.80781 2.317 0
M  V30 5184 O 477.588 4.4918 3.51558 0
M  V30 5185 O 476.522 5.68226 1.98501 0
M  V30 5186 H 480.348 3.037 0.000250109 0
M  V30 5187 H 477.933 1.49256 -0.0655919 0
M  V30 5188 H 479.815 3.45138 2.4178 0
M  V30 5189 H 478.49 2.25969 2.31775 0
M  V30 5190 H 477.397 3.70641 0.507514 0
M  V30 5191 H 478.73 4.87379 0.687233 0
M  V30 5192 N 480.382 0.0267497 1.57577 0
M  V30 5193 C 481.793 -0.512413 1.79531 0
M  V30 5194 C 482.144 -1.72391 0.936791 0
M  V30 5195 O 481.269 -2.15903 0.146543 0
M  V30 5196 C 481.864 -0.936378 3.25603 0
M  V30 5197 C 480.423 -1.42067 3.4856 0
M  V30 5198 C 479.57 -0.384278 2.74624 0
M  V30 5199 H 482.521 0.252797 1.56674 0
M  V30 5200 H 482.542 -1.80088 3.35184 0
M  V30 5201 H 482.054 -0.0544332 3.88062 0
M  V30 5202 H 480.155 -2.32262 2.9135 0
M  V30 5203 H 480.268 -1.42968 4.57271 0
M  V30 5204 H 478.632 -0.851855 2.40032 0
M  V30 5205 H 479.415 0.489159 3.39797 0
M  V30 5206 N 481.861 -1.55662 -0.24637 0
M  V30 5207 C 483.11 -1.7672 -0.972254 0
M  V30 5208 C 483.423 -0.59078 -1.86465 0
M  V30 5209 O 484.629 -0.684391 -2.62732 0
M  V30 5210 C 483.085 -3.12869 -1.7788 0
M  V30 5211 C 482.693 -4.38161 -0.933768 0
M  V30 5212 C 484.437 -3.43265 -2.49738 0
M  V30 5213 C 482.344 -5.6534 -1.73623 0
M  V30 5214 H 481.274 -0.658795 -0.366749 0
M  V30 5215 H 483.925 -1.82092 -0.226902 0
M  V30 5216 H 482.307 -3.01606 -2.56612 0
M  V30 5217 H 483.481 -4.60413 -0.188736 0
M  V30 5218 H 481.796 -4.15102 -0.328488 0
M  V30 5219 H 484.393 -4.35501 -3.10231 0
M  V30 5220 H 484.736 -2.64614 -3.2138 0
M  V30 5221 H 485.269 -3.55746 -1.78016 0
M  V30 5222 H 482.008 -6.46814 -1.06354 0
M  V30 5223 H 481.528 -5.47188 -2.45653 0
M  V30 5224 H 483.207 -6.04616 -2.30323 0
M  V30 5225 N 483.339 0.512053 -1.4905 0
M  V30 5226 C 484.564 1.2959 -1.6193 0
M  V30 5227 C 484.989 1.85906 -0.286454 0
M  V30 5228 O 484.347 1.65312 0.744426 0
M  V30 5229 C 484.395 2.40987 -2.68249 0
M  V30 5230 O 483.499 3.44531 -2.26654 0
M  V30 5231 H 482.84 0.383053 -0.542371 0
M  V30 5232 H 485.37 0.614231 -1.95162 0
M  V30 5233 H 485.38 2.86913 -2.90078 0
M  V30 5234 H 484.055 1.99361 -3.65004 0
M  V30 5235 H 482.632 3.046 -2.15112 0
M  V30 5236 N 484.817 1.37938 0.762283 0
M  V30 5237 C 486.042 1.37059 1.55659 0
M  V30 5238 C 486.467 -0.0396123 1.88058 0
M  V30 5239 O 485.825 -1.01929 1.49934 0
M  V30 5240 C 485.873 2.22494 2.83776 0
M  V30 5241 O 484.977 1.63607 3.78559 0
M  V30 5242 H 484.318 0.467892 0.47114 0
M  V30 5243 H 486.848 1.81587 0.942725 0
M  V30 5244 H 486.858 2.36045 3.32786 0
M  V30 5245 H 485.533 3.24993 2.59524 0
M  V30 5246 H 484.11 1.5915 3.37233 0
M  V30 5247 N 486.295 -0.989507 1.22664 0
M  V30 5248 C 487.245 -2.06478 0.967005 0
M  V30 5249 C 488.229 -1.60682 -0.0836374 0
M  V30 5250 O 489.421 -1.76541 0.127322 0
M  V30 5251 C 486.55 -3.38861 0.550313 0
M  V30 5252 C 485.636 -3.9128 1.63587 0
M  V30 5253 N 486.027 -4.16884 2.86429 0
M  V30 5254 C 484.325 -4.1972 1.50834 0
M  V30 5255 C 485.026 -4.5954 3.56648 0
M  V30 5256 N 484.002 -4.63434 2.84131 0
M  V30 5257 H 487.804 -2.24219 1.90008 0
M  V30 5258 H 485.318 -1.17153 1.12467 0
M  V30 5259 H 487.315 -4.15465 0.345612 0
M  V30 5260 H 485.975 -3.22518 -0.375822 0
M  V30 5261 H 486.986 -4.04976 3.22823 0
M  V30 5262 H 483.663 -4.1243 0.648643 0
M  V30 5263 H 485.053 -4.87944 4.61909 0
M  V30 5264 N 487.773 -1.03688 -1.18687 0
M  V30 5265 C 489.184 -0.766488 -1.70241 0
M  V30 5266 C 489.535 0.713052 -1.82784 0
M  V30 5267 O 488.66 1.55529 -1.50465 0
M  V30 5268 C 489.255 -1.38475 -3.09209 0
M  V30 5269 C 487.814 -1.16276 -3.5799 0
M  V30 5270 C 486.961 -1.4778 -2.34641 0
M  V30 5271 H 489.912 -1.20378 -1.03415 0
M  V30 5272 H 489.933 -0.785939 -3.72295 0
M  V30 5273 H 489.445 -2.46157 -3.00048 0
M  V30 5274 H 487.546 -0.104508 -3.72453 0
M  V30 5275 H 487.659 -1.8571 -4.41643 0
M  V30 5276 H 486.023 -0.897366 -2.38368 0
M  V30 5277 H 486.806 -2.56562 -2.28102 0
M  V30 5278 N 489.251 1.34841 -0.815825 0
M  V30 5279 C 490.498 1.98499 -0.400535 0
M  V30 5280 C 490.826 1.64699 1.03463 0
M  V30 5281 O 490.081 0.907006 1.73412 0
M  V30 5282 C 490.38 3.53273 -0.541541 0
M  V30 5283 C 490.046 4.06966 -1.94138 0
M  V30 5284 C 488.708 4.21341 -2.32433 0
M  V30 5285 C 491.06 4.35933 -2.85677 0
M  V30 5286 C 488.388 4.62007 -3.61617 0
M  V30 5287 C 490.74 4.78042 -4.14317 0
M  V30 5288 C 489.404 4.90622 -4.52599 0
M  V30 5289 H 488.674 0.72636 -0.146566 0
M  V30 5290 H 491.321 1.60902 -1.0384 0
M  V30 5291 H 489.626 3.91387 0.179741 0
M  V30 5292 H 491.323 4.00497 -0.20085 0
M  V30 5293 H 487.913 3.96235 -1.63388 0
M  V30 5294 H 492.097 4.24372 -2.57337 0
M  V30 5295 H 487.353 4.69937 -3.91113 0
M  V30 5296 H 491.527 4.99415 -4.85342 0
M  V30 5297 H 489.154 5.2189 -5.52752 0
M  V30 5298 N 490.729 0.570148 1.46925 0
M  V30 5299 C 491.679 -0.190921 2.27199 0
M  V30 5300 C 492.663 -0.873457 1.35128 0
M  V30 5301 O 493.855 -0.769627 1.59392 0
M  V30 5302 C 490.984 -1.21204 3.21192 0
M  V30 5303 C 490.07 -0.532261 4.20747 0
M  V30 5304 N 490.461 0.405038 5.04176 0
M  V30 5305 C 488.759 -0.784582 4.39045 0
M  V30 5306 C 489.46 0.801149 5.76157 0
M  V30 5307 N 488.436 0.153082 5.43384 0
M  V30 5308 H 492.238 0.529535 2.8909 0
M  V30 5309 H 489.752 0.391019 1.57622 0
M  V30 5310 H 491.749 -1.77135 3.77398 0
M  V30 5311 H 490.409 -1.93345 2.6086 0
M  V30 5312 H 491.42 0.779903 5.11994 0
M  V30 5313 H 488.097 -1.49352 3.89872 0
M  V30 5314 H 489.487 1.57208 6.5325 0
M  V30 5315 N 492.207 -1.54576 0.307264 0
M  V30 5316 C 493.456 -1.99442 -0.300976 0
M  V30 5317 C 493.769 -1.19928 -1.5452 0
M  V30 5318 O 494.975 -1.55092 -2.22842 0
M  V30 5319 C 493.431 -3.55084 -0.586809 0
M  V30 5320 C 493.039 -4.43413 0.639438 0
M  V30 5321 C 494.783 -4.0846 -1.1559 0
M  V30 5322 C 492.69 -5.90499 0.326411 0
M  V30 5323 H 491.62 -0.744986 -0.116238 0
M  V30 5324 H 494.271 -1.787 0.416947 0
M  V30 5325 H 492.653 -3.71749 -1.36449 0
M  V30 5326 H 493.827 -4.38522 1.41545 0
M  V30 5327 H 492.142 -4.00842 1.1276 0
M  V30 5328 H 494.739 -5.15926 -1.40445 0
M  V30 5329 H 495.082 -3.59443 -2.10015 0
M  V30 5330 H 495.615 -3.95362 -0.439778 0
M  V30 5331 H 492.354 -6.43676 1.23939 0
M  V30 5332 H 491.874 -5.98382 -0.412212 0
M  V30 5333 H 493.553 -6.46962 -0.0697393 0
M  V30 5334 N 493.685 -0.035106 -1.57561 0
M  V30 5335 C 494.595 0.960295 -2.14046 0
M  V30 5336 C 495.611 1.3529 -1.0942 0
M  V30 5337 O 496.787 1.43309 -1.41508 0
M  V30 5338 C 493.852 2.22214 -2.66124 0
M  V30 5339 C 492.913 1.8894 -3.85487 0
M  V30 5340 C 492.146 3.09109 -4.35072 0
M  V30 5341 O 492.369 4.21963 -3.83802 0
M  V30 5342 O 491.303 2.91058 -5.26848 0
M  V30 5343 H 495.129 0.509983 -2.99387 0
M  V30 5344 H 492.714 0.185853 -1.48239 0
M  V30 5345 H 494.596 2.96279 -2.99661 0
M  V30 5346 H 493.271 2.66414 -1.83862 0
M  V30 5347 H 492.178 1.12241 -3.56865 0
M  V30 5348 H 493.511 1.49551 -4.6893 0
M  V30 5349 N 495.163 1.55791 0.238111 0
M  V30 5350 C 496.44 1.68798 0.98826 0
M  V30 5351 C 496.82 0.577562 2.03045 0
M  V30 5352 O 496.168 -0.41778 2.24648 0
M  V30 5353 C 496.378 3.09454 1.61367 0
M  V30 5354 C 497.726 3.68335 2.11221 0
M  V30 5355 O 498.75 3.1231 1.71292 0
M  V30 5356 O 497.609 4.6657 2.84561 0
M  V30 5357 H 494.703 0.686881 0.460568 0
M  V30 5358 H 497.249 1.68118 0.231202 0
M  V30 5359 H 496.021 3.81726 0.860295 0
M  V30 5360 H 495.644 3.14182 2.4367 0
M  V30 5361 N 496.642 -0.504142 1.49319 0
M  V30 5362 C 497.552 -1.63248 1.68486 0
M  V30 5363 C 498.568 -1.64488 0.567432 0
M  V30 5364 O 499.744 -1.82966 0.841749 0
M  V30 5365 C 496.809 -2.99627 1.74426 0
M  V30 5366 C 495.87 -3.09039 2.97982 0
M  V30 5367 C 495.103 -4.38913 3.0363 0
M  V30 5368 O 495.326 -5.27528 2.16958 0
M  V30 5369 O 494.26 -4.53231 3.96062 0
M  V30 5370 H 498.086 -1.50008 2.64067 0
M  V30 5371 H 495.671 -0.680086 1.33023 0
M  V30 5372 H 497.553 -3.80689 1.80705 0
M  V30 5373 H 496.228 -3.13136 0.820233 0
M  V30 5374 H 495.135 -2.27177 2.97223 0
M  V30 5375 H 496.468 -3.00456 3.89855 0
M  V30 5376 N 498.12 -1.38341 -0.754957 0
M  V30 5377 C 499.366 -1.34672 -1.51628 0
M  V30 5378 C 499.699 0.0636036 -1.94096 0
M  V30 5379 O 498.974 1.0245 -1.6533 0
M  V30 5380 C 499.257 -2.30116 -2.76981 0
M  V30 5381 C 499.11 -3.80003 -2.4066 0
M  V30 5382 C 500.429 -2.23715 -3.78998 0
M  V30 5383 H 497.548 -0.490517 -0.550056 0
M  V30 5384 H 500.19 -1.69178 -0.864807 0
M  V30 5385 H 498.34 -2.00821 -3.3257 0
M  V30 5386 H 500.012 -4.19966 -1.90856 0
M  V30 5387 H 498.255 -3.97751 -1.73137 0
M  V30 5388 H 498.926 -4.42244 -3.30339 0
M  V30 5389 H 501.402 -2.49574 -3.32945 0
M  V30 5390 H 500.278 -2.9261 -4.64403 0
M  V30 5391 H 500.539 -1.23554 -4.24484 0
M  V30 5392 N 499.598 0.982988 -1.23187 0
M  V30 5393 C 500.875 1.69814 -0.970707 0
M  V30 5394 C 501.255 2.04811 0.511424 0
M  V30 5395 O 500.603 1.73924 1.48198 0
M  V30 5396 C 500.813 2.94143 -1.87831 0
M  V30 5397 C 502.161 3.66712 -2.14026 0
M  V30 5398 O 503.185 3.04171 -1.8536 0
M  V30 5399 O 502.044 4.79258 -2.62629 0
M  V30 5400 H 499.138 0.741659 -0.365884 0
M  V30 5401 H 501.684 1.03844 -1.34218 0
M  V30 5402 H 500.456 2.64858 -2.88038 0
M  V30 5403 H 500.079 3.6785 -1.50905 0
M  V30 5404 N 501.076 1.04316 1.18135 0
M  V30 5405 C 502.353 0.662166 1.84051 0
M  V30 5406 C 502.733 -0.858169 1.9287 0
M  V30 5407 O 502.081 -1.76062 1.45652 0
M  V30 5408 C 502.291 1.3409 3.22212 0
M  V30 5409 C 503.639 1.4733 3.9822 0
M  V30 5410 O 504.663 1.29921 3.31661 0
M  V30 5411 O 503.522 1.75722 5.17479 0
M  V30 5412 H 500.616 0.232005 0.79379 0
M  V30 5413 H 503.162 1.1422 1.25506 0
M  V30 5414 H 501.934 2.37853 3.10711 0
M  V30 5415 H 501.557 0.849649 3.88416 0
M  V30 5416 N 502.554 -1.34406 0.822964 0
M  V30 5417 C 503.803 -1.97542 0.407458 0
M  V30 5418 C 504.116 -1.65973 -1.035 0
M  V30 5419 O 505.322 -2.22598 -1.55442 0
M  V30 5420 C 503.778 -3.53463 0.677623 0
M  V30 5421 C 503.386 -3.93925 2.1337 0
M  V30 5422 C 505.13 -4.23229 0.328284 0
M  V30 5423 C 503.037 -5.42759 2.34876 0
M  V30 5424 H 501.967 -0.739207 0.148623 0
M  V30 5425 H 504.618 -1.53248 1.00932 0
M  V30 5426 H 503 -3.96 0.00558965 0
M  V30 5427 H 504.174 -3.62494 2.8449 0
M  V30 5428 H 502.489 -3.37097 2.44448 0
M  V30 5429 H 505.086 -5.32659 0.466794 0
M  V30 5430 H 505.429 -4.09899 -0.727224 0
M  V30 5431 H 505.962 -3.86169 0.954896 0
M  V30 5432 H 502.701 -5.61075 3.38932 0
M  V30 5433 H 502.221 -5.75704 1.68299 0
M  V30 5434 H 503.9 -6.0944 2.17236 0
M  V30 5435 N 504.032 -0.577932 -1.46621 0
M  V30 5436 C 504.962 0.145917 -2.33044 0
M  V30 5437 C 505.943 0.888412 -1.45056 0
M  V30 5438 O 507.128 0.864812 -1.73881 0
M  V30 5439 C 504.258 1.16322 -3.27241 0
M  V30 5440 C 503.212 0.535868 -4.24632 0
M  V30 5441 C 502.538 1.65929 -5.08303 0
M  V30 5442 C 503.838 -0.523861 -5.19666 0
M  V30 5443 H 505.532 -0.575636 -2.93814 0
M  V30 5444 H 503.078 -0.278272 -1.41286 0
M  V30 5445 H 505.031 1.67793 -3.86553 0
M  V30 5446 H 503.755 1.91498 -2.64567 0
M  V30 5447 H 502.414 0.0422759 -3.66576 0
M  V30 5448 H 502.062 2.40061 -4.42018 0
M  V30 5449 H 501.762 1.2452 -5.74255 0
M  V30 5450 H 503.286 2.17686 -5.70478 0
M  V30 5451 H 504.7 -0.0944059 -5.73222 0
M  V30 5452 H 503.097 -0.858 -5.93935 0
M  V30 5453 H 504.167 -1.41197 -4.63887 0
M  V30 5454 N 505.51 1.54411 -0.315457 0
M  V30 5455 C 506.44 2.27002 0.547039 0
M  V30 5456 C 507.421 1.27492 1.12605 0
M  V30 5457 O 508.606 1.5629 1.15269 0
M  V30 5458 C 505.736 3.02171 1.71201 0
M  V30 5459 C 504.69 4.0895 1.26268 0
M  V30 5460 C 504.016 4.71915 2.51396 0
M  V30 5461 C 505.316 5.20891 0.383419 0
M  V30 5462 H 507.01 2.99343 -0.0584517 0
M  V30 5463 H 504.556 1.4397 -0.0295527 0
M  V30 5464 H 506.509 3.51681 2.32161 0
M  V30 5465 H 505.233 2.27433 2.34397 0
M  V30 5466 H 503.892 3.60312 0.676062 0
M  V30 5467 H 503.54 3.93801 3.12937 0
M  V30 5468 H 503.24 5.44039 2.22026 0
M  V30 5469 H 504.764 5.24195 3.13133 0
M  V30 5470 H 506.178 5.66206 0.899082 0
M  V30 5471 H 504.575 5.99821 0.182857 0
M  V30 5472 H 505.645 4.81324 -0.587821 0
M  V30 5473 N 506.988 0.0434614 1.5754 0
M  V30 5474 C 507.921 -0.968729 2.06618 0
M  V30 5475 C 508.899 -1.30868 0.965 0
M  V30 5476 O 510.083 -1.42288 1.23638 0
M  V30 5477 C 507.21 -2.28486 2.50023 0
M  V30 5478 C 506.256 -2.09851 3.71302 0
M  V30 5479 S 507.089 -1.38401 5.17306 0
M  V30 5480 C 508.245 -2.71354 5.64019 0
M  V30 5481 H 508.478 -0.551021 2.92149 0
M  V30 5482 H 506.011 -0.168607 1.53477 0
M  V30 5483 H 507.969 -3.04142 2.75695 0
M  V30 5484 H 506.63 -2.67387 1.64812 0
M  V30 5485 H 505.823 -3.07184 3.99567 0
M  V30 5486 H 505.425 -1.42336 3.45856 0
M  V30 5487 H 507.717 -3.67549 5.69134 0
M  V30 5488 H 508.66 -2.47734 6.6335 0
M  V30 5489 H 509.068 -2.77259 4.91719 0
M  V30 5490 N 508.466 -1.55915 -0.229846 0
M  V30 5491 C 509.743 -1.6932 -0.979295 0
M  V30 5492 C 510.123 -0.588321 -2.02736 0
M  V30 5493 O 509.471 0.40586 -2.24867 0
M  V30 5494 C 509.681 -3.10305 -1.59724 0
M  V30 5495 C 511.029 -3.6945 -2.09264 0
M  V30 5496 O 512.053 -3.13214 -1.69633 0
M  V30 5497 O 510.912 -4.68072 -2.82082 0
M  V30 5498 H 508.006 -0.689314 -0.456919 0
M  V30 5499 H 510.552 -1.68238 -0.222283 0
M  V30 5500 H 509.324 -3.82177 -0.840039 0
M  V30 5501 H 508.947 -3.1547 -2.42001 0
M  V30 5502 N 509.944 0.496216 -1.49584 0
M  V30 5503 C 510.854 1.62352 -1.69349 0
M  V30 5504 C 511.87 1.64184 -0.576147 0
M  V30 5505 O 513.046 1.82517 -0.85144 0
M  V30 5506 C 510.111 2.98698 -1.76013 0
M  V30 5507 C 509.172 3.07454 -2.99617 0
M  V30 5508 C 508.405 4.37296 -3.05953 0
M  V30 5509 O 508.628 5.2637 -2.19752 0
M  V30 5510 O 507.562 4.51124 -3.9846 0
M  V30 5511 H 511.388 1.48606 -2.64859 0
M  V30 5512 H 508.973 0.673022 -1.33382 0
M  V30 5513 H 510.855 3.79725 -1.82721 0
M  V30 5514 H 509.53 3.12696 -0.836828 0
M  V30 5515 H 508.437 2.25597 -2.98424 0
M  V30 5516 H 509.77 2.98385 -3.91443 0
M  V30 5517 N 511.423 1.38739 0.74761 0
M  V30 5518 C 512.651 1.38521 1.53686 0
M  V30 5519 C 513.066 -0.0235129 1.88785 0
M  V30 5520 O 512.423 -0.991662 1.53207 0
M  V30 5521 C 512.474 2.24641 2.83229 0
M  V30 5522 O 512.195 3.60026 2.49625 0
M  V30 5523 C 513.696 2.32669 3.77333 0
M  V30 5524 H 510.916 0.473589 0.475347 0
M  V30 5525 H 513.46 1.82395 0.924786 0
M  V30 5526 H 511.615 1.84213 3.40799 0
M  V30 5527 H 512.029 4.05435 3.3275 0
M  V30 5528 H 513.503 2.97201 4.65162 0
M  V30 5529 H 513.98 1.3421 4.18192 0
M  V30 5530 H 514.586 2.73512 3.25685 0
M  V30 5531 N 512.901 -0.976442 1.23707 0
M  V30 5532 C 513.851 -2.0544 0.988851 0
M  V30 5533 C 514.835 -1.60762 -0.0665901 0
M  V30 5534 O 516.027 -1.76396 0.14604 0
M  V30 5535 C 513.156 -3.38258 0.586223 0
M  V30 5536 C 512.242 -3.89523 1.67728 0
M  V30 5537 N 512.633 -4.13823 2.90834 0
M  V30 5538 C 510.931 -4.18097 1.55277 0
M  V30 5539 C 511.632 -4.55731 3.61502 0
M  V30 5540 N 510.608 -4.60394 2.8903 0
M  V30 5541 H 514.41 -2.22191 1.92376 0
M  V30 5542 H 511.924 -1.15954 1.13704 0
M  V30 5543 H 513.921 -4.15075 0.389658 0
M  V30 5544 H 512.581 -3.22898 -0.341594 0
M  V30 5545 H 513.592 -4.01529 3.271 0
M  V30 5546 H 510.269 -4.11719 0.692351 0
M  V30 5547 H 511.659 -4.83018 4.67059 0
M  V30 5548 N 514.379 -1.04941 -1.1758 0
M  V30 5549 C 515.604 -0.778253 -1.92245 0
M  V30 5550 C 516.029 0.659707 -1.76152 0
M  V30 5551 O 515.387 1.45803 -1.07755 0
M  V30 5552 C 515.435 -1.16051 -3.41416 0
M  V30 5553 O 514.539 -0.291153 -4.11371 0
M  V30 5554 H 513.88 -0.285619 -0.599431 0
M  V30 5555 H 516.41 -1.40159 -1.49052 0
M  V30 5556 H 516.42 -1.12619 -3.92149 0
M  V30 5557 H 515.095 -2.208 -3.52449 0
M  V30 5558 H 513.672 -0.385851 -3.70898 0
M  V30 5559 N 515.857 1.33968 -0.830081 0
M  V30 5560 C 516.807 2.26845 -0.229242 0
M  V30 5561 C 517.791 1.48862 0.610659 0
M  V30 5562 O 518.983 1.70808 0.464067 0
M  V30 5563 C 516.112 3.3798 0.602057 0
M  V30 5564 C 515.198 4.23369 -0.248866 0
M  V30 5565 N 515.589 4.88182 -1.32334 0
M  V30 5566 C 513.887 4.45987 -0.0344077 0
M  V30 5567 C 514.588 5.51671 -1.84482 0
M  V30 5568 N 513.564 5.31348 -1.14762 0
M  V30 5569 H 517.366 2.74464 -1.05104 0
M  V30 5570 H 514.88 1.4777 -0.673623 0
M  V30 5571 H 516.877 4.03494 1.04873 0
M  V30 5572 H 515.537 2.9191 1.42193 0
M  V30 5573 H 516.548 4.88988 -1.70619 0
M  V30 5574 H 513.225 4.10658 0.752727 0
M  V30 5575 H 514.615 6.13308 -2.74413 0
M  V30 5576 N 517.335 0.585699 1.46312 0
M  V30 5577 C 518.584 0.0701192 2.01578 0
M  V30 5578 C 518.897 -1.29889 1.46247 0
M  V30 5579 O 520.103 -1.90598 1.93351 0
M  V30 5580 C 518.559 0.0747499 3.59822 0
M  V30 5581 C 518.167 1.44226 4.24149 0
M  V30 5582 C 519.911 -0.38673 4.22735 0
M  V30 5583 C 517.818 1.40446 5.74481 0
M  V30 5584 H 516.748 0.0224441 0.753666 0
M  V30 5585 H 519.399 0.737789 1.68015 0
M  V30 5586 H 517.781 -0.659144 3.90476 0
M  V30 5587 H 518.955 2.19612 4.05101 0
M  V30 5588 H 517.27 1.84401 3.73343 0
M  V30 5589 H 519.867 -0.433853 5.32937 0
M  V30 5590 H 520.21 -1.40489 3.91878 0
M  V30 5591 H 520.743 0.293195 3.96718 0
M  V30 5592 H 517.482 2.39952 6.10003 0
M  V30 5593 H 517.002 0.692845 5.95785 0
M  V30 5594 H 518.681 1.11865 6.37256 0
M  V30 5595 N 518.813 -1.54241 0.323641 0
M  V30 5596 C 520.043 -2.04687 -0.280464 0
M  V30 5597 C 520.451 -1.19939 -1.46326 0
M  V30 5598 O 519.794 -0.222872 -1.82343 0
M  V30 5599 C 519.856 -3.50978 -0.778123 0
M  V30 5600 C 519.52 -4.56127 0.282371 0
M  V30 5601 C 520.517 -5.07726 1.11847 0
M  V30 5602 C 518.202 -5.00451 0.430582 0
M  V30 5603 C 520.196 -6.02212 2.08851 0
M  V30 5604 C 517.883 -5.94752 1.40404 0
M  V30 5605 C 518.881 -6.45519 2.23147 0
M  V30 5606 O 518.569 -7.37968 3.1884 0
M  V30 5607 H 518.301 -0.673192 -0.0615473 0
M  V30 5608 H 520.855 -1.99999 0.467921 0
M  V30 5609 H 519.085 -3.53064 -1.57742 0
M  V30 5610 H 520.774 -3.84499 -1.30058 0
M  V30 5611 H 521.54 -4.74261 1.01496 0
M  V30 5612 H 517.419 -4.6055 -0.203569 0
M  V30 5613 H 520.963 -6.41761 2.73474 0
M  V30 5614 H 516.86 -6.27633 1.5082 0
M  V30 5615 H 517.628 -7.55841 3.14079 0
M  V30 5616 N 520.291 -0.0518155 -1.57515 0
M  V30 5617 C 521.239 0.940195 -2.12751 0
M  V30 5618 C 522.233 1.3218 -1.05948 0
M  V30 5619 O 523.439 1.30138 -1.24355 0
M  V30 5620 H 519.814 0.321066 -0.680015 0
M  V30 5621 H 521.785 0.449217 -2.94999 0
M  V30 5622 C 520.534 2.2055 -2.68799 0
M  V30 5623 H 519.857 1.92066 -3.50643 0
M  V30 5624 H 521.297 2.88119 -3.11068 0
M  V30 5625 C 519.756 2.95061 -1.62605 0
M  V30 5626 O 520.286 3.88025 -1.03921 0
M  V30 5627 N 518.492 2.57804 -1.34111 0
M  V30 5628 H 518.039 1.82281 -1.8202 0
M  V30 5629 H 517.997 3.07964 -0.632872 0
M  V30 5630 N 521.769 1.56035 0.221574 0
M  V30 5631 C 523.015 1.80221 0.942973 0
M  V30 5632 C 523.37 0.624799 1.81973 0
M  V30 5633 O 522.663 -0.381145 1.87771 0
M  V30 5634 C 522.857 3.07813 1.8162 0
M  V30 5635 C 522.686 4.37852 1.02548 0
M  V30 5636 C 521.456 5.00138 0.720418 0
M  V30 5637 C 523.654 5.12813 0.390799 0
M  V30 5638 N 521.636 6.13831 -0.0917139 0
M  V30 5639 C 523.007 6.19346 -0.284728 0
M  V30 5640 C 525.062 4.96972 0.303828 0
M  V30 5641 C 523.765 7.11758 -1.03891 0
M  V30 5642 C 525.791 5.89784 -0.436883 0
M  V30 5643 C 525.153 6.95743 -1.10095 0
M  V30 5644 H 521.252 0.711117 0.325325 0
M  V30 5645 H 523.836 1.93522 0.213854 0
M  V30 5646 H 522.007 2.95795 2.51714 0
M  V30 5647 H 523.739 3.20191 2.47508 0
M  V30 5648 H 520.494 4.62075 1.03843 0
M  V30 5649 H 520.918 6.75249 -0.486615 0
M  V30 5650 H 525.56 4.15107 0.802896 0
M  V30 5651 H 523.278 7.93105 -1.54949 0
M  V30 5652 H 526.864 5.79603 -0.505181 0
M  V30 5653 H 525.744 7.66322 -1.66495 0
M  V30 5654 N 523.247 -0.488276 1.49845 0
M  V30 5655 C 524.157 -1.61451 1.70207 0
M  V30 5656 C 525.173 -1.63877 0.584846 0
M  V30 5657 O 526.349 -1.82063 0.861107 0
M  V30 5658 C 523.414 -2.9776 1.77594 0
M  V30 5659 C 522.475 -3.05861 3.01243 0
M  V30 5660 C 521.708 -4.35668 3.08268 0
M  V30 5661 O 521.931 -5.25197 2.22541 0
M  V30 5662 O 520.865 -4.49005 4.00847 0
M  V30 5663 H 524.691 -1.47199 2.65643 0
M  V30 5664 H 522.276 -0.665939 1.33737 0
M  V30 5665 H 524.158 -3.7875 1.84732 0
M  V30 5666 H 522.833 -3.12248 0.8534 0
M  V30 5667 H 521.74 -2.24012 2.99616 0
M  V30 5668 H 523.073 -2.96304 3.9302 0
M  V30 5669 N 524.725 -1.39134 -0.740242 0
M  V30 5670 C 526.141 -1.20623 -1.0451 0
M  V30 5671 C 526.341 -0.0641651 -2.01398 0
M  V30 5672 O 525.397 0.585843 -2.4561 0
M  V30 5673 C 526.71 -2.53815 -1.6124 0
M  V30 5674 C 528.258 -2.60615 -1.73346 0
M  V30 5675 C 528.733 -3.94015 -2.33486 0
M  V30 5676 N 530.224 -3.95627 -2.40902 0
M  V30 5677 C 530.959 -4.95616 -2.88361 0
M  V30 5678 N 530.455 -6.06003 -3.35756 0
M  V30 5679 N 532.248 -4.82998 -2.87523 0
M  V30 5680 H 524.399 -2.12176 -0.0975576 0
M  V30 5681 H 526.662 -0.942066 -0.105904 0
M  V30 5682 H 526.368 -3.37911 -0.975144 0
M  V30 5683 H 526.242 -2.73162 -2.6012 0
M  V30 5684 H 528.629 -1.76906 -2.36195 0
M  V30 5685 H 528.71 -2.45123 -0.731336 0
M  V30 5686 H 528.354 -4.78153 -1.71267 0
M  V30 5687 H 528.284 -4.06825 -3.34366 0
M  V30 5688 H 530.775 -3.15903 -2.07398 0
M  V30 5689 H 531.088 -6.78215 -3.70464 0
M  V30 5690 H 529.433 -6.09604 -3.33778 0
M  V30 5691 H 532.624 -3.95866 -2.49816 0
M  V30 5692 H 532.797 -5.61072 -3.24196 0
M  V30 5693 N 526.204 0.969867 -1.24223 0
M  V30 5694 C 527.434 1.74502 -1.106 0
M  V30 5695 C 527.842 1.86038 0.344483 0
M  V30 5696 O 527.185 1.3465 1.24961 0
M  V30 5697 C 527.247 3.18391 -1.66935 0
M  V30 5698 C 526.911 3.30334 -3.15798 0
M  V30 5699 C 527.908 3.15832 -4.12973 0
M  V30 5700 C 525.593 3.54644 -3.55715 0
M  V30 5701 C 527.587 3.25461 -5.48045 0
M  V30 5702 C 525.274 3.63912 -4.90929 0
M  V30 5703 C 526.272 3.49332 -5.86904 0
M  V30 5704 O 525.96 3.58251 -7.1966 0
M  V30 5705 H 525.692 0.554119 -0.387206 0
M  V30 5706 H 528.246 1.22646 -1.64764 0
M  V30 5707 H 526.476 3.71543 -1.07203 0
M  V30 5708 H 528.165 3.77707 -1.48634 0
M  V30 5709 H 528.931 2.96937 -3.83476 0
M  V30 5710 H 524.81 3.65059 -2.81519 0
M  V30 5711 H 528.354 3.13998 -6.22937 0
M  V30 5712 H 524.251 3.82319 -5.20098 0
M  V30 5713 H 525.019 3.7498 -7.27552 0
M  V30 5714 N 527.682 1.05563 1.17022 0
M  V30 5715 C 528.632 0.630007 2.19123 0
M  V30 5716 C 529.616 -0.335472 1.57364 0
M  V30 5717 O 530.808 -0.1521 1.76345 0
M  V30 5718 C 527.937 0.0101676 3.43298 0
M  V30 5719 C 527.023 0.999698 4.12149 0
M  V30 5720 N 527.414 2.17251 4.56766 0
M  V30 5721 C 525.712 0.829 4.38228 0
M  V30 5722 C 526.413 2.79883 5.09942 0
M  V30 5723 N 525.389 2.07656 5.02374 0
M  V30 5724 H 529.191 1.52353 2.51328 0
M  V30 5725 H 526.705 0.926288 1.33393 0
M  V30 5726 H 528.702 -0.312541 4.15727 0
M  V30 5727 H 527.362 -0.878707 3.12584 0
M  V30 5728 H 528.373 2.55067 4.50734 0
M  V30 5729 H 525.05 -0.00850974 4.17499 0
M  V30 5730 H 526.44 3.79362 5.54558 0
M  V30 5731 N 529.16 -1.33526 0.837174 0
M  V30 5732 C 530.437 -1.92369 0.354065 0
M  V30 5733 C 530.817 -1.76348 -1.16038 0
M  V30 5734 O 530.165 -1.15083 -1.97403 0
M  V30 5735 C 530.375 -3.39728 0.799101 0
M  V30 5736 C 531.723 -4.16877 0.806139 0
M  V30 5737 O 532.747 -3.48373 0.742597 0
M  V30 5738 O 531.606 -5.39166 0.892345 0
M  V30 5739 H 528.7 -0.820952 0.0998378 0
M  V30 5740 H 531.246 -1.42409 0.922913 0
M  V30 5741 H 530.018 -3.45254 1.84162 0
M  V30 5742 H 529.641 -3.97062 0.206731 0
M  V30 5743 N 530.638 -0.59345 -1.46 0
M  V30 5744 C 531.878 -0.0859747 -2.04219 0
M  V30 5745 C 532.242 1.25432 -1.45364 0
M  V30 5746 O 533.443 1.85168 -1.9485 0
M  V30 5747 C 531.714 -0.0324314 -3.57385 0
M  V30 5748 S 533.273 0.415908 -4.36824 0
M  V30 5749 H 530.091 -0.0426872 -0.709717 0
M  V30 5750 H 532.693 -0.788369 -1.78899 0
M  V30 5751 H 531.397 -1.01166 -3.97735 0
M  V30 5752 H 530.928 0.6924 -3.87259 0
M  V30 5753 H 532.943 1.66844 -4.67309 0
M  V30 5754 N 532.116 1.54067 -0.331816 0
M  V30 5755 C 533.048 2.22139 0.564538 0
M  V30 5756 C 534.061 1.22408 1.07332 0
M  V30 5757 O 535.25 1.4883 0.985481 0
M  V30 5758 C 532.35 2.87876 1.78831 0
M  V30 5759 C 531.523 4.13817 1.41682 0
M  V30 5760 C 530.582 4.63072 2.49901 0
M  V30 5761 O 529.608 5.27562 2.13699 0
M  V30 5762 N 530.81 4.38001 3.80967 0
M  V30 5763 H 533.575 2.99694 -0.0183736 0
M  V30 5764 H 531.136 1.61153 -0.155396 0
M  V30 5765 H 533.128 3.17747 2.50637 0
M  V30 5766 H 531.698 2.13977 2.27887 0
M  V30 5767 H 530.918 3.9062 0.530044 0
M  V30 5768 H 532.206 4.95762 1.14443 0
M  V30 5769 H 531.604 3.864 4.13173 0
M  V30 5770 H 530.161 4.72507 4.48977 0
M  V30 5771 N 533.594 0.0601682 1.57485 0
M  V30 5772 C 534.841 -0.611594 1.93043 0
M  V30 5773 C 535.169 -1.70317 0.939274 0
M  V30 5774 O 534.424 -1.95644 -0.046996 0
M  V30 5775 C 534.723 -1.23831 3.35262 0
M  V30 5776 C 534.389 -0.274037 4.50066 0
M  V30 5777 C 533.051 -0.00872394 4.81199 0
M  V30 5778 C 535.403 0.386308 5.19766 0
M  V30 5779 C 532.731 0.924218 5.79375 0
M  V30 5780 C 535.083 1.3075 6.1894 0
M  V30 5781 C 533.747 1.58139 6.48497 0
M  V30 5782 H 533.017 -0.223798 0.706396 0
M  V30 5783 H 535.664 0.128566 1.91068 0
M  V30 5784 H 533.969 -2.05394 3.33647 0
M  V30 5785 H 535.666 -1.76517 3.60059 0
M  V30 5786 H 532.256 -0.491008 4.25778 0
M  V30 5787 H 536.44 0.194436 4.95919 0
M  V30 5788 H 531.696 1.1438 6.00606 0
M  V30 5789 H 535.87 1.82519 6.72056 0
M  V30 5790 H 533.497 2.30593 7.24383 0
M  V30 5791 N 535.072 -1.5615 -0.213296 0
M  V30 5792 C 536.297 -1.83986 -0.957282 0
M  V30 5793 C 536.722 -0.641526 -1.76822 0
M  V30 5794 O 536.08 0.409722 -1.7661 0
M  V30 5795 C 536.128 -3.09889 -1.84393 0
M  V30 5796 O 535.232 -2.89163 -2.94038 0
M  V30 5797 H 534.573 -0.606357 -0.270605 0
M  V30 5798 H 537.103 -2.03369 -0.224111 0
M  V30 5799 H 537.113 -3.40209 -2.25215 0
M  V30 5800 H 535.788 -3.96735 -1.24795 0
M  V30 5801 H 534.365 -2.70097 -2.57103 0
M  V30 5802 N 536.55 0.480323 -1.50102 0
M  V30 5803 C 537.46 1.60547 -1.71061 0
M  V30 5804 C 538.476 1.63564 -0.593529 0
M  V30 5805 O 539.652 1.81604 -0.870751 0
M  V30 5806 C 536.717 2.96814 -1.79171 0
M  V30 5807 C 535.778 3.04259 -3.02861 0
M  V30 5808 C 535.011 4.34027 -3.10574 0
M  V30 5809 O 535.234 5.24009 -2.25323 0
M  V30 5810 O 534.168 4.46873 -4.03223 0
M  V30 5811 H 537.994 1.45788 -2.6642 0
M  V30 5812 H 535.579 0.658838 -1.34088 0
M  V30 5813 H 537.461 3.77765 -1.86738 0
M  V30 5814 H 536.136 3.11791 -0.869947 0
M  V30 5815 H 535.043 2.22419 -3.008 0
M  V30 5816 H 536.376 2.94216 -3.94586 0
M  V30 5817 N 538.028 1.39524 0.732853 0
M  V30 5818 C 538.978 1.34905 1.83806 0
M  V30 5819 C 539.962 0.229546 1.59254 0
M  V30 5820 O 541.154 0.467255 1.70721 0
M  V30 5821 C 538.283 1.19699 3.21756 0
M  V30 5822 C 537.369 2.36359 3.5213 0
M  V30 5823 N 537.76 3.61834 3.53426 0
M  V30 5824 C 536.058 2.29363 3.82503 0
M  V30 5825 C 536.759 4.38992 3.81655 0
M  V30 5826 N 535.735 3.68606 3.99538 0
M  V30 5827 H 539.537 2.29882 1.83116 0
M  V30 5828 H 537.051 1.33051 0.931194 0
M  V30 5829 H 539.048 1.14472 4.00876 0
M  V30 5830 H 537.708 0.256739 3.23683 0
M  V30 5831 H 538.719 3.95228 3.34686 0
M  V30 5832 H 535.396 1.43612 3.92023 0
M  V30 5833 H 536.786 5.47763 3.89108 0
M  V30 5834 N 539.506 -0.963266 1.24736 0
M  V30 5835 C 540.783 -1.68248 0.9976 0
M  V30 5836 C 541.163 -2.05599 -0.478776 0
M  V30 5837 O 540.511 -1.7626 -1.45412 0
M  V30 5838 C 540.721 -2.91118 1.92487 0
M  V30 5839 C 542.069 -3.63261 2.19833 0
M  V30 5840 O 543.093 -3.01184 1.90176 0
M  V30 5841 O 541.952 -4.75019 2.7022 0
M  V30 5842 H 539.046 -0.735744 0.377637 0
M  V30 5843 H 541.592 -1.01696 1.35853 0
M  V30 5844 H 540.364 -2.60242 2.92215 0
M  V30 5845 H 539.987 -3.65402 1.56738 0
M  V30 5846 N 540.985 -1.06182 -1.16461 0
M  V30 5847 C 542.231 -0.788825 -1.87481 0
M  V30 5848 C 542.586 0.677298 -1.80085 0
M  V30 5849 O 541.879 1.48976 -1.20486 0
M  V30 5850 C 542.073 -1.21633 -3.36066 0
M  V30 5851 C 541.902 -2.72247 -3.57927 0
M  V30 5852 C 540.672 -3.39696 -3.74079 0
M  V30 5853 C 542.87 -3.70461 -3.56739 0
M  V30 5854 N 540.852 -4.79072 -3.83879 0
M  V30 5855 C 542.223 -4.95616 -3.72511 0
M  V30 5856 C 544.278 -3.63788 -3.39945 0
M  V30 5857 C 542.981 -6.14895 -3.73225 0
M  V30 5858 C 545.007 -4.82517 -3.41953 0
M  V30 5859 C 544.369 -6.065 -3.58242 0
M  V30 5860 H 540.468 -0.341034 -0.703719 0
M  V30 5861 H 543.052 -1.35575 -1.39741 0
M  V30 5862 H 541.223 -0.67725 -3.8245 0
M  V30 5863 H 542.955 -0.892119 -3.94745 0
M  V30 5864 H 539.71 -2.90097 -3.74354 0
M  V30 5865 H 540.134 -5.51573 -3.92551 0
M  V30 5866 H 544.776 -2.68888 -3.26281 0
M  V30 5867 H 542.494 -7.10129 -3.85672 0
M  V30 5868 H 546.08 -4.79017 -3.30203 0
M  V30 5869 H 544.96 -6.96833 -3.59712 0
M  V30 5870 N 542.463 1.3308 -0.844243 0
M  V30 5871 C 543.874 1.7992 -0.498566 0
M  V30 5872 C 544.225 1.69808 0.982834 0
M  V30 5873 O 543.35 1.25051 1.7661 0
M  V30 5874 C 543.945 3.26677 -0.898204 0
M  V30 5875 C 542.504 3.71513 -0.604583 0
M  V30 5876 C 541.651 2.54393 -1.10362 0
M  V30 5877 H 544.602 1.20526 -1.03244 0
M  V30 5878 H 544.623 3.79918 -0.21039 0
M  V30 5879 H 544.135 3.34004 -1.97643 0
M  V30 5880 H 542.236 3.69708 0.46335 0
M  V30 5881 H 542.349 4.64755 -1.16358 0
M  V30 5882 H 540.713 2.49246 -0.524273 0
M  V30 5883 H 541.496 2.6448 -2.18873 0
M  V30 5884 N 543.941 0.601185 1.45683 0
M  V30 5885 C 545.187 0.0940202 2.02582 0
M  V30 5886 C 545.52 -1.26972 1.46941 0
M  V30 5887 O 544.795 -1.83613 0.641612 0
M  V30 5888 C 545.078 0.0481715 3.60068 0
M  V30 5889 C 544.931 1.44212 4.26055 0
M  V30 5890 C 546.25 -0.642975 4.35378 0
M  V30 5891 H 543.369 0.0356404 0.736138 0
M  V30 5892 H 546.011 0.771929 1.73612 0
M  V30 5893 H 544.161 -0.529128 3.8488 0
M  V30 5894 H 545.833 2.06601 4.12449 0
M  V30 5895 H 544.076 2.00465 3.84703 0
M  V30 5896 H 544.747 1.36234 5.34925 0
M  V30 5897 H 547.223 -0.152351 4.15821 0
M  V30 5898 H 546.099 -0.644141 5.45107 0
M  V30 5899 H 546.36 -1.70785 4.0778 0
M  V30 5900 N 545.419 -1.53889 0.339982 0
M  V30 5901 C 546.369 -2.2165 -0.534354 0
M  V30 5902 C 547.353 -1.20266 -1.06887 0
M  V30 5903 O 548.545 -1.45827 -1.00316 0
M  V30 5904 C 545.674 -2.99014 -1.68659 0
M  V30 5905 C 544.76 -4.07751 -1.16618 0
M  V30 5906 N 545.151 -5.04469 -0.366717 0
M  V30 5907 C 543.449 -4.21998 -1.4434 0
M  V30 5908 C 544.15 -5.81638 -0.0847275 0
M  V30 5909 N 543.126 -5.39388 -0.675391 0
M  V30 5910 H 546.928 -2.93781 0.0835562 0
M  V30 5911 H 544.442 -1.61736 0.146665 0
M  V30 5912 H 546.439 -3.46056 -2.32489 0
M  V30 5913 H 545.099 -2.28408 -2.30781 0
M  V30 5914 H 546.11 -5.17899 -0.00811038 0
M  V30 5915 H 542.787 -3.62612 -2.06928 0
M  V30 5916 H 544.177 -6.69563 0.559943 0
M  V30 5917 N 546.897 -0.0685191 -1.57451 0
M  V30 5918 C 547.845 0.917577 -2.13736 0
M  V30 5919 C 548.839 1.31049 -1.07344 0
M  V30 5920 O 550.045 1.28811 -1.25728 0
M  V30 5921 H 546.42 0.313835 -0.683382 0
M  V30 5922 H 548.391 0.417903 -2.95459 0
M  V30 5923 C 547.14 2.17686 -2.71123 0
M  V30 5924 H 546.463 1.88336 -3.52661 0
M  V30 5925 H 547.903 2.84803 -3.14107 0
M  V30 5926 C 546.362 2.9332 -1.65726 0
M  V30 5927 O 546.892 3.86901 -1.08031 0
M  V30 5928 N 545.098 2.56367 -1.36837 0
M  V30 5929 H 544.645 1.80341 -1.83943 0
M  V30 5930 H 544.603 3.07276 -0.665501 0
M  V30 5931 N 548.375 1.56261 0.205012 0
M  V30 5932 C 549.323 1.94631 1.27364 0
M  V30 5933 C 550.317 0.830434 1.47649 0
M  V30 5934 O 551.523 1.01538 1.48627 0
M  V30 5935 H 547.898 0.618755 0.427371 0
M  V30 5936 H 549.869 2.83768 0.922941 0
M  V30 5937 C 548.618 2.29358 2.61324 0
M  V30 5938 H 547.941 3.14744 2.46528 0
M  V30 5939 H 549.381 2.60076 3.34868 0
M  V30 5940 C 547.84 1.12461 3.17575 0
M  V30 5941 O 548.37 0.394407 3.99759 0
M  V30 5942 N 546.576 0.904036 2.7618 0
M  V30 5943 H 546.123 1.49956 2.09454 0
M  V30 5944 H 546.081 0.123662 3.14157 0
M  V30 5945 N 549.853 -0.472356 1.50355 0
M  V30 5946 C 551.1 -1.22453 1.61281 0
M  V30 5947 C 551.428 -1.91972 0.31256 0
M  V30 5948 O 550.683 -1.82696 -0.701475 0
M  V30 5949 C 550.982 -2.29257 2.74182 0
M  V30 5950 C 550.648 -1.76999 4.14708 0
M  V30 5951 C 549.31 -1.62467 4.52944 0
M  V30 5952 C 551.662 -1.38215 5.0254 0
M  V30 5953 C 548.99 -1.07574 5.76754 0
M  V30 5954 C 551.342 -0.847638 6.26895 0
M  V30 5955 C 550.006 -0.688946 6.63935 0
M  V30 5956 H 549.276 -0.448087 0.590168 0
M  V30 5957 H 551.923 -0.520744 1.84284 0
M  V30 5958 H 550.228 -3.05538 2.45263 0
M  V30 5959 H 551.925 -2.87212 2.7984 0
M  V30 5960 H 548.515 -1.89276 3.84542 0
M  V30 5961 H 552.699 -1.48276 4.73633 0
M  V30 5962 H 547.955 -0.940237 6.04127 0
M  V30 5963 H 552.129 -0.538455 6.94315 0
M  V30 5964 H 549.756 -0.261435 7.5975 0
M  V30 5965 N 551.331 -1.39911 -0.725443 0
M  V30 5966 C 552.608 -1.28158 -1.47766 0
M  V30 5967 C 552.988 0.104545 -2.10841 0
M  V30 5968 O 552.336 1.11657 -1.99361 0
M  V30 5969 C 552.546 -2.41306 -2.52135 0
M  V30 5970 C 553.894 -2.81076 -3.18247 0
M  V30 5971 O 554.918 -2.40827 -2.62452 0
M  V30 5972 O 553.777 -3.50581 -4.19231 0
M  V30 5973 H 550.871 -0.502761 -0.656628 0
M  V30 5974 H 553.417 -1.51808 -0.758456 0
M  V30 5975 H 552.189 -3.33932 -2.03974 0
M  V30 5976 H 551.812 -2.19374 -3.31603 0
M  V30 5977 N 552.809 0.956637 -1.25245 0
M  V30 5978 C 554.058 1.69537 -1.0927 0
M  V30 5979 C 554.371 1.92136 0.366503 0
M  V30 5980 O 555.577 2.63687 0.64665 0
M  V30 5981 C 554.033 3.05211 -1.9072 0
M  V30 5982 C 553.641 2.90416 -3.41119 0
M  V30 5983 C 555.385 3.82882 -1.83308 0
M  V30 5984 C 553.292 4.21468 -4.14872 0
M  V30 5985 H 552.222 0.635804 -0.405302 0
M  V30 5986 H 554.873 1.06513 -1.49423 0
M  V30 5987 H 553.255 3.69128 -1.43389 0
M  V30 5988 H 554.429 2.35444 -3.9611 0
M  V30 5989 H 552.744 2.26203 -3.49602 0
M  V30 5990 H 555.341 4.79944 -2.35706 0
M  V30 5991 H 555.684 4.0853 -0.800572 0
M  V30 5992 H 556.217 3.25711 -2.28379 0
M  V30 5993 H 552.956 4.01009 -5.18529 0
M  V30 5994 H 552.476 4.76213 -3.64665 0
M  V30 5995 H 554.155 4.90022 -4.22478 0
M  V30 5996 N 554.287 1.06798 1.15896 0
M  V30 5997 C 555.564 0.701057 1.82605 0
M  V30 5998 C 555.944 -0.817066 1.94646 0
M  V30 5999 O 555.292 -1.72933 1.49353 0
M  V30 6000 C 555.502 1.40895 3.19296 0
M  V30 6001 C 556.85 1.55744 3.95005 0
M  V30 6002 O 557.874 1.36927 3.28831 0
M  V30 6003 O 556.733 1.86658 5.13635 0
M  V30 6004 H 553.827 0.248791 0.78869 0
M  V30 6005 H 556.373 1.16857 1.23055 0
M  V30 6006 H 555.145 2.4439 3.05596 0
M  V30 6007 H 554.768 0.931847 3.86526 0
M  V30 6008 N 555.766 -1.3263 0.851289 0
M  V30 6009 C 556.676 -2.32722 0.296268 0
M  V30 6010 C 557.692 -1.63901 -0.584162 0
M  V30 6011 O 558.868 -1.95465 -0.485334 0
M  V30 6012 C 555.933 -3.42942 -0.509103 0
M  V30 6013 C 554.994 -4.2746 0.397069 0
M  V30 6014 C 554.227 -5.32416 -0.36996 0
M  V30 6015 O 554.45 -5.47491 -1.6003 0
M  V30 6016 O 553.384 -6.01327 0.262493 0
M  V30 6017 H 557.21 -2.82078 1.12543 0
M  V30 6018 H 554.795 -1.36194 0.614135 0
M  V30 6019 H 556.677 -4.1017 -0.96634 0
M  V30 6020 H 555.352 -2.95781 -1.31512 0
M  V30 6021 H 554.259 -3.63053 0.902411 0
M  V30 6022 H 555.592 -4.78136 1.16818 0
M  V30 6023 N 557.244 -0.608902 -1.45362 0
M  V30 6024 C 558.49 -0.104762 -2.02529 0
M  V30 6025 C 558.823 1.26191 -1.47613 0
M  V30 6026 O 558.098 1.8327 -0.65134 0
M  V30 6027 C 558.381 -0.0672661 -3.60037 0
M  V30 6028 C 558.234 -1.4647 -4.25284 0
M  V30 6029 C 559.553 0.619877 -4.35713 0
M  V30 6030 H 556.672 -0.0395438 -0.735938 0
M  V30 6031 H 559.314 -0.781126 -1.73201 0
M  V30 6032 H 557.464 0.50871 -3.85155 0
M  V30 6033 H 559.136 -2.08785 -4.11347 0
M  V30 6034 H 557.379 -2.02502 -3.83634 0
M  V30 6035 H 558.05 -1.39069 -5.34195 0
M  V30 6036 H 560.526 0.130297 -4.15896 0
M  V30 6037 H 559.402 0.615224 -5.45441 0
M  V30 6038 H 559.663 1.68621 -4.0868 0
M  V30 6039 N 558.722 1.53707 -0.348139 0
M  V30 6040 C 559.654 2.22725 0.540946 0
M  V30 6041 C 560.667 1.2354 1.06027 0
M  V30 6042 O 561.856 1.49867 0.96964 0
M  V30 6043 C 558.956 2.89756 1.75768 0
M  V30 6044 C 558.129 4.15297 1.37285 0
M  V30 6045 C 557.188 4.65697 2.44976 0
M  V30 6046 O 556.214 5.29798 2.08092 0
M  V30 6047 N 557.416 4.42017 3.763 0
M  V30 6048 H 560.181 2.99658 -0.0501592 0
M  V30 6049 H 557.742 1.60979 -0.17248 0
M  V30 6050 H 559.734 3.20388 2.47252 0
M  V30 6051 H 558.304 2.16382 2.25605 0
M  V30 6052 H 557.524 3.9116 0.488584 0
M  V30 6053 H 558.812 4.96948 1.09179 0
M  V30 6054 H 558.21 3.9076 4.09051 0
M  V30 6055 H 556.767 4.77242 4.4394 0
M  V30 6056 N 560.2 0.0768682 1.57412 0
M  V30 6057 C 561.13 -0.886026 2.16037 0
M  V30 6058 C 562.111 -1.30691 1.08876 0
M  V30 6059 O 563.296 -1.37705 1.36934 0
M  V30 6060 C 560.426 -2.1518 2.72608 0
M  V30 6061 C 559.38 -1.87015 3.8498 0
M  V30 6062 C 558.706 -3.20266 4.28175 0
M  V30 6063 C 560.006 -1.17143 5.08994 0
M  V30 6064 H 561.7 -0.397642 2.96748 0
M  V30 6065 H 559.246 -0.189823 1.42743 0
M  V30 6066 H 561.199 -2.82962 3.12266 0
M  V30 6067 H 559.923 -2.66269 1.89125 0
M  V30 6068 H 558.582 -1.21636 3.45833 0
M  V30 6069 H 558.23 -3.69207 3.41607 0
M  V30 6070 H 557.93 -3.0221 5.03927 0
M  V30 6071 H 559.454 -3.89237 4.70454 0
M  V30 6072 H 560.868 -1.75003 5.45937 0
M  V30 6073 H 559.265 -1.09328 5.90057 0
M  V30 6074 H 560.335 -0.151295 4.84664 0
M  V30 6075 N 561.678 -1.56367 -0.196722 0
M  V30 6076 C 562.955 -1.71359 -0.943159 0
M  V30 6077 C 563.335 -0.631192 -2.01443 0
M  V30 6078 O 562.683 0.358071 -2.25677 0
M  V30 6079 C 562.893 -3.13623 -1.53106 0
M  V30 6080 C 564.241 -3.73806 -2.01381 0
M  V30 6081 O 565.265 -3.16742 -1.62951 0
M  V30 6082 O 564.124 -4.73951 -2.7209 0
M  V30 6083 H 561.218 -0.698851 -0.442195 0
M  V30 6084 H 563.764 -1.68672 -0.186547 0
M  V30 6085 H 562.536 -3.83873 -0.758785 0
M  V30 6086 H 562.159 -3.20532 -2.35255 0
M  V30 6087 N 563.156 0.464375 -1.50603 0
M  V30 6088 C 564.567 1.04507 -1.5471 0
M  V30 6089 C 564.918 1.9297 -0.354542 0
M  V30 6090 O 564.043 2.09763 0.531812 0
M  V30 6091 C 564.638 1.90207 -2.80369 0
M  V30 6092 C 563.197 2.43373 -2.87135 0
M  V30 6093 C 562.344 1.21886 -2.49076 0
M  V30 6094 H 565.295 0.246716 -1.56771 0
M  V30 6095 H 565.316 2.75353 -2.62604 0
M  V30 6096 H 564.828 1.25796 -3.67147 0
M  V30 6097 H 562.929 3.11318 -2.04724 0
M  V30 6098 H 563.042 2.7802 -3.90181 0
M  V30 6099 H 561.406 1.55575 -2.01664 0
M  V30 6100 H 562.189 0.591268 -3.3817 0
M  V30 6101 N 564.634 1.40294 0.718013 0
M  V30 6102 C 566.05 1.2227 1.02577 0
M  V30 6103 C 566.25 0.0961976 2.0127 0
M  V30 6104 O 565.306 -0.546695 2.46511 0
M  V30 6105 C 566.619 2.56348 1.57182 0
M  V30 6106 C 568.167 2.6334 1.69178 0
M  V30 6107 C 568.642 3.9768 2.27188 0
M  V30 6108 N 570.133 3.99409 2.34578 0
M  V30 6109 C 570.868 5.00141 2.8044 0
M  V30 6110 N 570.364 6.11268 3.26073 0
M  V30 6111 N 572.157 4.87511 2.79802 0
M  V30 6112 H 564.308 2.12304 0.0637899 0
M  V30 6113 H 566.571 0.943632 0.0909036 0
M  V30 6114 H 566.277 3.3942 0.921262 0
M  V30 6115 H 566.151 2.77266 2.55741 0
M  V30 6116 H 568.538 1.80641 2.33351 0
M  V30 6117 H 568.619 2.46255 0.692247 0
M  V30 6118 H 568.263 4.80817 1.63638 0
M  V30 6119 H 568.193 4.12093 3.27852 0
M  V30 6120 H 570.684 3.19162 2.02346 0
M  V30 6121 H 570.997 6.84023 3.59628 0
M  V30 6122 H 569.342 6.14837 3.24038 0
M  V30 6123 H 572.533 3.9979 2.43487 0
M  V30 6124 H 572.706 5.66158 3.15228 0
M  V30 6125 N 566.112 -0.949982 1.2575 0
M  V30 6126 C 567.075 -2.02894 1.06615 0
M  V30 6127 C 568.075 -1.60791 0.0173905 0
M  V30 6128 O 569.265 -1.72249 0.260003 0
M  V30 6129 C 566.397 -3.35219 0.619751 0
M  V30 6130 H 567.59 -2.21302 2.02399 0
M  V30 6131 H 565.143 -1.12772 1.08223 0
M  V30 6132 H 565.878 -3.22508 -0.340486 0
M  V30 6133 H 565.663 -3.67129 1.37692 0
M  V30 6134 H 567.153 -4.14505 0.507443 0
M  V30 6135 N 567.59 -1.07411 -1.15328 0
M  V30 6136 C 568.52 -0.716472 -2.22236 0
M  V30 6137 C 569.501 0.296373 -1.67498 0
M  V30 6138 O 570.686 0.168989 -1.93463 0
M  V30 6139 C 567.816 -0.114142 -3.47112 0
M  V30 6140 C 566.77 -1.05421 -4.14814 0
M  V30 6141 C 566.096 -0.314604 -5.33774 0
M  V30 6142 C 567.396 -2.38808 -4.64508 0
M  V30 6143 H 569.09 -1.61029 -2.52408 0
M  V30 6144 H 566.636 -0.775702 -1.21321 0
M  V30 6145 H 568.589 0.148001 -4.2114 0
M  V30 6146 H 567.313 0.814755 -3.16274 0
M  V30 6147 H 565.972 -1.30128 -3.42728 0
M  V30 6148 H 565.62 0.617772 -4.99192 0
M  V30 6149 H 565.32 -0.941209 -5.80013 0
M  V30 6150 H 566.844 -0.0602747 -6.1057 0
M  V30 6151 H 568.258 -2.18424 -5.3006 0
M  V30 6152 H 566.655 -2.97069 -5.21412 0
M  V30 6153 H 567.725 -3.01067 -3.80114 0
M  V30 6154 N 569.068 1.32177 -0.85831 0
M  V30 6155 C 570.293 2.01847 -0.476718 0
M  V30 6156 C 570.718 1.64065 0.920021 0
M  V30 6157 O 570.076 0.843189 1.60499 0
M  V30 6158 C 570.124 3.55097 -0.627578 0
M  V30 6159 O 569.228 4.11012 0.338086 0
M  V30 6160 H 568.569 0.635907 -0.191099 0
M  V30 6161 H 571.099 1.68641 -1.15851 0
M  V30 6162 H 571.109 4.04718 -0.516476 0
M  V30 6163 H 569.784 3.81938 -1.64609 0
M  V30 6164 H 568.361 3.72451 0.182917 0
M  V30 6165 N 570.547 0.616602 1.45037 0
M  V30 6166 C 571.824 0.0469086 1.95544 0
M  V30 6167 C 572.204 -1.42345 1.55888 0
M  V30 6168 O 571.552 -2.13055 0.825824 0
M  V30 6169 C 571.762 0.254489 3.48071 0
M  V30 6170 C 573.11 0.140025 4.24369 0
M  V30 6171 O 574.134 0.185084 3.55719 0
M  V30 6172 O 572.993 0.0327034 5.4649 0
M  V30 6173 H 570.087 -0.0306051 0.826433 0
M  V30 6174 H 572.633 0.687293 1.55159 0
M  V30 6175 H 571.405 1.27532 3.69934 0
M  V30 6176 H 571.028 -0.42073 3.95368 0
M  V30 6177 N 572.025 -1.5352 0.356285 0
M  V30 6178 C 573.271 -2.01414 -0.236653 0
M  V30 6179 C 573.604 -1.24339 -1.49176 0
M  V30 6180 O 572.879 -0.334496 -1.91602 0
M  V30 6181 C 573.162 -3.56059 -0.537982 0
M  V30 6182 C 573.015 -4.43835 0.730112 0
M  V30 6183 C 574.334 -4.19127 -1.34239 0
M  V30 6184 H 571.453 -0.732135 -0.0845386 0
M  V30 6185 H 574.095 -1.83854 0.479341 0
M  V30 6186 H 572.245 -3.71153 -1.14795 0
M  V30 6187 H 573.917 -4.40555 1.36782 0
M  V30 6188 H 572.16 -4.1218 1.3524 0
M  V30 6189 H 572.831 -5.49958 0.474358 0
M  V30 6190 H 575.307 -4.07809 -0.826498 0
M  V30 6191 H 574.183 -5.27378 -1.52198 0
M  V30 6192 H 574.444 -3.74581 -2.34822 0
M  V30 6193 N 573.503 -0.0852151 -1.57369 0
M  V30 6194 C 574.731 0.58946 -1.98325 0
M  V30 6195 C 575.146 1.62333 -0.96403 0
M  V30 6196 O 574.503 1.82438 0.0476395 0
M  V30 6197 C 574.554 1.24604 -3.39347 0
M  V30 6198 O 574.275 0.253532 -4.37366 0
M  V30 6199 C 575.776 2.00726 -3.95252 0
M  V30 6200 H 572.996 0.158783 -0.651942 0
M  V30 6201 H 575.54 -0.161584 -2.03861 0
M  V30 6202 H 573.695 1.94808 -3.34856 0
M  V30 6203 H 574.109 0.726207 -5.19448 0
M  V30 6204 H 575.583 2.42039 -4.96106 0
M  V30 6205 H 576.06 2.86919 -3.32527 0
M  V30 6206 H 576.666 1.3536 -4.03185 0
M  V30 6207 N 574.981 1.5647 0.188427 0
M  V30 6208 C 576.258 1.71857 0.934058 0
M  V30 6209 C 576.638 0.641867 2.01105 0
M  V30 6210 O 575.986 -0.346098 2.25864 0
M  V30 6211 C 576.196 3.14431 1.5144 0
M  V30 6212 C 577.544 3.74869 1.99396 0
M  V30 6213 O 578.568 3.17601 1.61269 0
M  V30 6214 O 577.427 4.75387 2.69573 0
M  V30 6215 H 574.521 0.701186 0.438483 0
M  V30 6216 H 577.067 1.68768 0.177599 0
M  V30 6217 H 575.839 3.8427 0.738416 0
M  V30 6218 H 575.462 3.21775 2.33552 0
M  V30 6219 N 576.459 -0.456382 1.50847 0
M  V30 6220 C 577.369 -1.57805 1.73594 0
M  V30 6221 C 578.385 -1.62599 0.619476 0
M  V30 6222 O 579.561 -1.80195 0.899532 0
M  V30 6223 C 576.626 -2.93926 1.8387 0
M  V30 6224 C 575.687 -2.99402 3.07663 0
M  V30 6225 C 574.92 -4.29031 3.1744 0
M  V30 6226 O 575.143 -5.20358 2.33631 0
M  V30 6227 O 574.077 -4.40401 4.10281 0
M  V30 6228 H 577.903 -1.41531 2.68705 0
M  V30 6229 H 575.488 -0.637422 1.3512 0
M  V30 6230 H 577.37 -3.74747 1.92725 0
M  V30 6231 H 576.045 -3.10368 0.91944 0
M  V30 6232 H 574.952 -2.17606 3.043 0
M  V30 6233 H 576.285 -2.87901 3.99216 0
M  V30 6234 N 577.937 -1.40673 -0.710563 0
M  V30 6235 C 578.847 -1.43663 -1.85467 0
M  V30 6236 C 579.863 -0.328721 -1.70867 0
M  V30 6237 O 581.039 -0.574098 -1.93044 0
M  V30 6238 C 578.104 -1.30226 -3.21313 0
M  V30 6239 C 577.165 -2.51204 -3.48131 0
M  V30 6240 C 576.398 -2.38398 -4.77495 0
M  V30 6241 O 576.621 -1.40048 -5.5294 0
M  V30 6242 O 575.555 -3.2787 -5.04762 0
M  V30 6243 H 579.381 -2.40156 -1.859 0
M  V30 6244 H 576.966 -1.22049 -0.861652 0
M  V30 6245 H 578.848 -1.2496 -4.02446 0
M  V30 6246 H 577.523 -0.368419 -3.21597 0
M  V30 6247 H 576.43 -2.62048 -2.66987 0
M  V30 6248 H 577.763 -3.43366 -3.52648 0
M  V30 6249 N 579.415 0.9433 -1.26252 0
M  V30 6250 C 580.325 2.07532 -1.09397 0
M  V30 6251 C 581.341 1.73977 -0.0280449 0
M  V30 6252 O 582.517 2.00067 -0.231337 0
M  V30 6253 C 579.582 3.39002 -0.726523 0
M  V30 6254 C 578.643 3.86353 -1.87163 0
M  V30 6255 C 577.876 5.11549 -1.52162 0
M  V30 6256 O 578.099 5.68834 -0.422385 0
M  V30 6257 O 577.033 5.53889 -2.35565 0
M  V30 6258 H 580.859 2.24658 -2.04359 0
M  V30 6259 H 578.444 1.05988 -1.05295 0
M  V30 6260 H 580.326 4.18 -0.534236 0
M  V30 6261 H 579.001 3.2312 0.193721 0
M  V30 6262 H 577.908 3.0831 -2.11886 0
M  V30 6263 H 579.241 4.06752 -2.77152 0
M  V30 6264 N 580.893 1.08022 1.14757 0
M  V30 6265 C 582.139 0.808705 1.85978 0
M  V30 6266 C 582.472 -0.663764 1.82504 0
M  V30 6267 O 581.747 -1.48765 1.25296 0
M  V30 6268 C 582.03 1.32623 3.34788 0
M  V30 6269 C 581.883 2.86375 3.46856 0
M  V30 6270 C 583.202 0.948291 4.29762 0
M  V30 6271 H 580.321 0.295244 0.675278 0
M  V30 6272 H 582.963 1.33917 1.34783 0
M  V30 6273 H 581.113 0.875002 3.78518 0
M  V30 6274 H 582.785 3.39839 3.11941 0
M  V30 6275 H 581.028 3.24232 2.88194 0
M  V30 6276 H 581.699 3.17658 4.51439 0
M  V30 6277 H 584.175 1.33722 3.94028 0
M  V30 6278 H 583.051 1.33765 5.32352 0
M  V30 6279 H 583.312 -0.145094 4.41862 0
M  V30 6280 N 582.371 -1.3172 0.865308 0
M  V30 6281 C 583.303 -2.27545 0.274906 0
M  V30 6282 C 584.316 -1.52887 -0.559413 0
M  V30 6283 O 585.505 -1.74361 -0.382166 0
M  V30 6284 C 582.605 -3.33006 -0.629286 0
M  V30 6285 C 581.778 -4.37063 0.171553 0
M  V30 6286 C 580.837 -5.22044 -0.660052 0
M  V30 6287 O 579.863 -5.69129 -0.0897527 0
M  V30 6288 N 581.065 -5.45946 -1.97289 0
M  V30 6289 H 583.83 -2.78848 1.09836 0
M  V30 6290 H 581.391 -1.44693 0.726331 0
M  V30 6291 H 583.383 -3.86772 -1.19121 0
M  V30 6292 H 581.953 -2.81782 -1.35342 0
M  V30 6293 H 581.173 -3.83436 0.914919 0
M  V30 6294 H 582.461 -5.03662 0.721235 0
M  V30 6295 H 581.859 -5.0944 -2.45942 0
M  V30 6296 H 580.416 -6.02665 -2.4827 0
M  V30 6297 N 583.85 -0.624285 -1.44708 0
M  V30 6298 C 585.096 -0.126237 -2.02407 0
M  V30 6299 C 585.428 1.24618 -1.48943 0
M  V30 6300 O 584.704 1.82569 -0.670742 0
M  V30 6301 C 584.986 -0.105449 -3.59946 0
M  V30 6302 C 584.84 -1.50972 -4.23707 0
M  V30 6303 C 586.159 0.573629 -4.36346 0
M  V30 6304 H 583.278 -0.0473472 -0.735478 0
M  V30 6305 H 585.92 -0.799452 -1.72362 0
M  V30 6306 H 584.07 0.46783 -3.85673 0
M  V30 6307 H 585.742 -2.13136 -4.0911 0
M  V30 6308 H 583.985 -2.0656 -3.81465 0
M  V30 6309 H 584.656 -1.44727 -5.32689 0
M  V30 6310 H 587.132 0.0861787 -4.16011 0
M  V30 6311 H 586.008 0.557338 -5.46063 0
M  V30 6312 H 586.269 1.64276 -4.10446 0
M  V30 6313 N 585.328 1.53329 -0.364422 0
M  V30 6314 C 586.605 1.93557 0.281962 0
M  V30 6315 C 586.985 1.29786 1.6649 0
M  V30 6316 O 586.333 0.456512 2.23893 0
M  V30 6317 C 586.543 3.47405 0.333331 0
M  V30 6318 C 587.891 4.20699 0.574231 0
M  V30 6319 O 588.915 3.53779 0.414588 0
M  V30 6320 O 587.774 5.39287 0.885002 0
M  V30 6321 H 584.868 0.809573 0.168881 0
M  V30 6322 H 587.414 1.64494 -0.417121 0
M  V30 6323 H 586.186 3.86091 -0.636326 0
M  V30 6324 H 585.809 3.82697 1.07836 0
M  V30 6325 N 586.806 0.0935595 1.57322 0
M  V30 6326 C 588.217 -0.435807 1.81542 0
M  V30 6327 C 588.568 -1.68263 1.00907 0
M  V30 6328 O 587.693 -2.15087 0.237983 0
M  V30 6329 C 588.288 -0.797436 3.29282 0
M  V30 6330 C 586.847 -1.27155 3.54272 0
M  V30 6331 C 585.994 -0.267455 2.76007 0
M  V30 6332 H 588.945 0.31902 1.5546 0
M  V30 6333 H 588.966 -1.6571 3.42521 0
M  V30 6334 H 588.478 0.110206 3.87943 0
M  V30 6335 H 586.579 -2.19696 3.00939 0
M  V30 6336 H 586.692 -1.23445 4.62923 0
M  V30 6337 H 585.056 -0.749282 2.43429 0
M  V30 6338 H 585.839 0.632839 3.37417 0
M  V30 6339 N 588.284 -1.56567 -0.180126 0
M  V30 6340 C 589.7 -1.50488 -0.531559 0
M  V30 6341 C 589.9 -0.796267 -1.851 0
M  V30 6342 O 588.956 -0.352978 -2.50021 0
M  V30 6343 C 590.269 -2.95201 -0.572456 0
M  V30 6344 C 591.817 -3.05957 -0.660264 0
M  V30 6345 C 592.292 -4.5211 -0.732135 0
M  V30 6346 N 593.783 -4.56322 -0.795262 0
M  V30 6347 C 594.518 -5.66742 -0.871296 0
M  V30 6348 N 594.014 -6.86815 -0.908708 0
M  V30 6349 N 595.807 -5.54691 -0.909639 0
M  V30 6350 H 587.958 -2.01045 0.685165 0
M  V30 6351 H 590.221 -0.915536 0.245962 0
M  V30 6352 H 589.927 -3.50165 0.328208 0
M  V30 6353 H 589.801 -3.49369 -1.422 0
M  V30 6354 H 592.188 -2.51032 -1.55136 0
M  V30 6355 H 592.269 -2.54888 0.215783 0
M  V30 6356 H 591.913 -5.07664 0.154664 0
M  V30 6357 H 591.843 -5.00926 -1.6242 0
M  V30 6358 H 594.334 -3.69868 -0.77499 0
M  V30 6359 H 594.647 -7.66718 -0.967654 0
M  V30 6360 H 592.992 -6.89443 -0.877132 0
M  V30 6361 H 596.183 -4.59804 -0.877353 0
M  V30 6362 H 596.356 -6.40768 -0.965434 0
M  V30 6363 N 589.762 0.448376 -1.51087 0
M  V30 6364 C 590.709 1.54341 -1.71603 0
M  V30 6365 C 591.679 1.56463 -0.557536 0
M  V30 6366 O 592.864 1.73644 -0.79072 0
M  V30 6367 C 590.004 2.92148 -1.83695 0
M  V30 6368 C 589.117 2.99639 -3.11192 0
M  V30 6369 C 588.252 4.285 -3.13944 0
M  V30 6370 C 587.291 4.29819 -4.35801 0
M  V30 6371 N 586.428 5.50186 -4.36164 0
M  V30 6372 H 591.268 1.36151 -2.65079 0
M  V30 6373 H 588.805 0.661585 -1.31383 0
M  V30 6374 H 590.763 3.72093 -1.88687 0
M  V30 6375 H 589.393 3.0892 -0.936374 0
M  V30 6376 H 588.445 2.12425 -3.15562 0
M  V30 6377 H 589.757 2.96474 -4.01129 0
M  V30 6378 H 588.911 5.16811 -3.17791 0
M  V30 6379 H 587.65 4.34307 -2.21876 0
M  V30 6380 H 586.655 3.39902 -4.32142 0
M  V30 6381 H 587.88 4.25685 -5.29121 0
M  V30 6382 H 585.826 5.56735 -3.46961 0
M  V30 6383 H 585.743 5.48856 -5.19897 0
M  V30 6384 H 587.011 6.40559 -4.44189 0
M  V30 6385 N 591.24 1.41047 0.703093 0
M  V30 6386 C 592.47 1.43133 1.48985 0
M  V30 6387 C 592.878 0.0328537 1.89171 0
M  V30 6388 O 592.221 -0.956469 1.56835 0
M  V30 6389 C 592.283 2.26991 2.78775 0
M  V30 6390 C 591.947 3.7525 2.60837 0
M  V30 6391 C 592.944 4.67591 2.27276 0
M  V30 6392 C 590.629 4.19208 2.76712 0
M  V30 6393 C 592.623 6.01877 2.09817 0
M  V30 6394 C 590.31 5.53561 2.5887 0
M  V30 6395 C 591.308 6.4471 2.25472 0
M  V30 6396 O 590.996 7.76584 2.07778 0
M  V30 6397 H 590.728 0.489788 0.465922 0
M  V30 6398 H 593.282 1.85886 0.873822 0
M  V30 6399 H 591.512 1.79038 3.42757 0
M  V30 6400 H 593.201 2.20867 3.40547 0
M  V30 6401 H 593.967 4.34923 2.14633 0
M  V30 6402 H 589.846 3.48572 3.01693 0
M  V30 6403 H 593.39 6.72986 1.83671 0
M  V30 6404 H 589.287 5.85811 2.71102 0
M  V30 6405 H 590.055 7.87649 2.22601 0
M  V30 6406 N 592.718 -0.936591 1.26751 0
M  V30 6407 C 593.648 -2.05315 1.11212 0
M  V30 6408 C 594.629 -1.70092 0.0160262 0
M  V30 6409 O 595.814 -1.93279 0.188894 0
M  V30 6410 C 592.944 -3.39123 0.749171 0
M  V30 6411 C 591.898 -3.88425 1.79751 0
M  V30 6412 C 591.224 -5.18936 1.28876 0
M  V30 6413 C 592.524 -4.12798 3.19992 0
M  V30 6414 H 594.218 -2.18573 2.04613 0
M  V30 6415 H 591.764 -1.05027 0.985159 0
M  V30 6416 H 593.717 -4.16704 0.627323 0
M  V30 6417 H 592.441 -3.25855 -0.220543 0
M  V30 6418 H 591.1 -3.13028 1.90811 0
M  V30 6419 H 590.748 -5.02051 0.308757 0
M  V30 6420 H 590.448 -5.52892 1.98958 0
M  V30 6421 H 591.972 -5.99096 1.17967 0
M  V30 6422 H 593.386 -4.80977 3.11983 0
M  V30 6423 H 591.783 -4.58044 3.87705 0
M  V30 6424 H 592.853 -3.18412 3.65707 0
M  V30 6425 N 594.196 -1.08629 -1.14182 0
M  V30 6426 C 595.473 -0.73002 -1.81466 0
M  V30 6427 C 595.853 0.785996 -1.95922 0
M  V30 6428 O 595.201 1.70535 -1.52086 0
M  V30 6429 C 595.411 -1.45957 -3.17014 0
M  V30 6430 C 596.759 -1.62008 -3.92477 0
M  V30 6431 O 597.783 -1.42141 -3.26611 0
M  V30 6432 O 596.642 -1.94806 -5.106 0
M  V30 6433 H 593.736 -0.261307 -0.784632 0
M  V30 6434 H 596.282 -1.188 -1.2118 0
M  V30 6435 H 595.054 -2.49221 -3.01669 0
M  V30 6436 H 594.677 -0.993222 -3.84995 0
M  V30 6437 N 595.674 1.31259 -0.872281 0
M  V30 6438 C 596.922 1.96233 -0.483409 0
M  V30 6439 C 597.243 1.69276 0.968012 0
M  V30 6440 O 596.513 1.00943 1.67891 0
M  V30 6441 H 595.093 0.726025 -0.175774 0
M  V30 6442 H 597.755 1.60024 -1.11258 0
M  V30 6443 H 596.851 3.05403 -0.643075 0
M  V30 6444 N 597.152 0.631951 1.44375 0
M  V30 6445 C 598.429 0.067646 1.95483 0
M  V30 6446 C 598.809 -1.40683 1.57389 0
M  V30 6447 O 598.157 -2.12167 0.848375 0
M  V30 6448 C 598.367 0.291392 3.47781 0
M  V30 6449 C 599.715 0.185028 4.24197 0
M  V30 6450 O 600.739 0.222803 3.55503 0
M  V30 6451 O 599.598 0.0906642 5.46425 0
M  V30 6452 H 596.692 -0.0218379 0.826712 0
M  V30 6453 H 599.238 0.703711 1.54421 0
M  V30 6454 H 598.01 1.31449 3.68561 0
M  V30 6455 H 597.633 -0.378772 3.95792 0
M  V30 6456 N 598.631 -1.53133 0.372548 0
M  V30 6457 C 600.047 -1.59585 0.02178 0
M  V30 6458 C 600.247 -1.38736 -1.46132 0
M  V30 6459 O 599.303 -1.19599 -2.22379 0
M  V30 6460 C 600.616 -2.9678 0.483959 0
M  V30 6461 C 602.164 -3.09909 0.438775 0
M  V30 6462 C 602.639 -4.49527 0.876876 0
M  V30 6463 N 604.13 -4.55663 0.832214 0
M  V30 6464 C 604.865 -5.61896 1.14281 0
M  V30 6465 N 604.361 -6.75852 1.52303 0
M  V30 6466 N 606.154 -5.51916 1.06515 0
M  V30 6467 H 598.305 -1.64936 1.33827 0
M  V30 6468 H 600.568 -0.773947 0.547458 0
M  V30 6469 H 600.274 -3.17198 1.51915 0
M  V30 6470 H 600.148 -3.7699 -0.125784 0
M  V30 6471 H 602.535 -2.89197 -0.587294 0
M  V30 6472 H 602.616 -2.31691 1.0841 0
M  V30 6473 H 602.26 -4.70979 1.90109 0
M  V30 6474 H 602.19 -5.26186 0.208727 0
M  V30 6475 H 604.681 -3.73844 0.552195 0
M  V30 6476 H 604.994 -7.52862 1.7441 0
M  V30 6477 H 603.339 -6.77226 1.56175 0
M  V30 6478 H 606.53 -4.6177 0.767235 0
M  V30 6479 H 606.703 -6.34609 1.31053 0
M  V30 6480 N 600.109 -0.101901 -1.5727 0
M  V30 6481 C 601.019 0.868647 -2.17926 0
M  V30 6482 C 602.035 1.30527 -1.1506 0
M  V30 6483 O 603.211 1.37178 -1.47459 0
M  V30 6484 C 600.276 2.10727 -2.75309 0
M  V30 6485 C 599.337 1.7242 -3.93154 0
M  V30 6486 C 598.57 2.90377 -4.47791 0
M  V30 6487 O 598.793 4.05305 -4.01353 0
M  V30 6488 O 597.727 2.6845 -5.38719 0
M  V30 6489 H 601.553 0.382544 -3.01281 0
M  V30 6490 H 599.138 0.122812 -1.48894 0
M  V30 6491 H 601.02 2.83303 -3.11958 0
M  V30 6492 H 599.695 2.58376 -1.94996 0
M  V30 6493 H 598.602 0.970039 -3.61305 0
M  V30 6494 H 599.935 1.29528 -4.74851 0
M  V30 6495 N 601.587 1.56661 0.17182 0
M  V30 6496 C 602.534 1.96371 1.21273 0
M  V30 6497 C 603.504 0.82756 1.44016 0
M  V30 6498 O 604.689 1.08764 1.56764 0
M  V30 6499 C 601.829 2.32838 2.54716 0
M  V30 6500 C 600.942 3.59628 2.39356 0
M  V30 6501 C 600.077 3.85311 3.65662 0
M  V30 6502 C 599.116 5.0545 3.45234 0
M  V30 6503 N 598.253 5.27268 4.63608 0
M  V30 6504 H 603.093 2.85106 0.86709 0
M  V30 6505 H 600.63 1.41073 0.416744 0
M  V30 6506 H 602.588 2.52004 3.3249 0
M  V30 6507 H 601.218 1.47214 2.87277 0
M  V30 6508 H 600.27 3.4838 1.52761 0
M  V30 6509 H 601.582 4.4756 2.20207 0
M  V30 6510 H 600.736 4.04841 4.51872 0
M  V30 6511 H 599.475 2.95753 3.8779 0
M  V30 6512 H 598.48 4.85819 2.5741 0
M  V30 6513 H 599.705 5.96538 3.24529 0
M  V30 6514 H 597.651 4.40662 4.85956 0
M  V30 6515 H 597.568 6.09422 4.4737 0
M  V30 6516 H 598.836 5.51277 5.51103 0
M  V30 6517 N 603.065 -0.440357 1.51323 0
M  V30 6518 C 604.295 -1.21079 1.67402 0
M  V30 6519 C 604.703 -1.85555 0.369599 0
M  V30 6520 O 604.046 -1.71375 -0.661525 0
M  V30 6521 C 604.108 -2.33839 2.73056 0
M  V30 6522 C 603.772 -1.89755 4.15743 0
M  V30 6523 C 604.769 -1.40268 5.0062 0
M  V30 6524 C 602.454 -1.97539 4.61826 0
M  V30 6525 C 604.448 -0.991474 6.29642 0
M  V30 6526 C 602.135 -1.56029 5.90845 0
M  V30 6527 C 603.133 -1.06915 6.7458 0
M  V30 6528 O 602.821 -0.659933 8.01187 0
M  V30 6529 H 602.553 -0.371133 0.56501 0
M  V30 6530 H 605.107 -0.528409 1.98487 0
M  V30 6531 H 603.337 -3.05345 2.37279 0
M  V30 6532 H 605.026 -2.95713 2.78044 0
M  V30 6533 H 605.792 -1.33652 4.66221 0
M  V30 6534 H 601.671 -2.34713 3.96776 0
M  V30 6535 H 605.215 -0.607425 6.9495 0
M  V30 6536 H 601.112 -1.62315 6.24759 0
M  V30 6537 H 601.88 -0.786052 8.14717 0
M  V30 6538 N 604.543 -1.41418 -0.695603 0
M  V30 6539 C 605.473 -1.46035 -1.82197 0
M  V30 6540 C 606.454 -0.319025 -1.67082 0
M  V30 6541 O 607.639 -0.530462 -1.86815 0
M  V30 6542 C 604.769 -1.34179 -3.20333 0
M  V30 6543 C 603.723 -2.46123 -3.50154 0
M  V30 6544 C 603.049 -2.19332 -4.87645 0
M  V30 6545 C 604.349 -3.88463 -3.49133 0
M  V30 6546 H 606.043 -2.40303 -1.78591 0
M  V30 6547 H 603.589 -1.15663 -0.857797 0
M  V30 6548 H 605.542 -1.36021 -3.98844 0
M  V30 6549 H 604.266 -0.363952 -3.24566 0
M  V30 6550 H 602.925 -2.43563 -2.73994 0
M  V30 6551 H 602.573 -1.19891 -4.88503 0
M  V30 6552 H 602.273 -2.94344 -5.08562 0
M  V30 6553 H 603.797 -2.22889 -5.68465 0
M  V30 6554 H 605.211 -3.92738 -4.17648 0
M  V30 6555 H 603.608 -4.63158 -3.81582 0
M  V30 6556 H 604.678 -4.16617 -2.48109 0
M  V30 6557 N 606.021 0.929856 -1.27246 0
M  V30 6558 C 606.931 2.0636 -1.11592 0
M  V30 6559 C 607.947 1.73938 -0.046496 0
M  V30 6560 O 609.123 1.9981 -0.252544 0
M  V30 6561 C 606.188 3.38213 -0.762437 0
M  V30 6562 C 605.249 3.84346 -1.9125 0
M  V30 6563 C 604.482 5.09906 -1.57579 0
M  V30 6564 O 604.705 5.68354 -0.482694 0
M  V30 6565 O 603.639 5.51359 -2.41426 0
M  V30 6566 H 607.465 2.22478 -2.0673 0
M  V30 6567 H 605.05 1.04865 -1.06413 0
M  V30 6568 H 606.932 4.1741 -0.57854 0
M  V30 6569 H 605.607 3.23307 0.159439 0
M  V30 6570 H 604.514 3.06045 -2.15144 0
M  V30 6571 H 605.847 4.0379 -2.81451 0
M  V30 6572 N 607.499 1.09233 1.13605 0
M  V30 6573 C 608.776 0.739633 1.81077 0
M  V30 6574 C 609.156 -0.775595 1.96336 0
M  V30 6575 O 608.504 -1.69726 1.52988 0
M  V30 6576 C 608.714 1.47636 3.16235 0
M  V30 6577 C 610.062 1.64087 3.91613 0
M  V30 6578 O 611.086 1.43871 3.25852 0
M  V30 6579 O 609.945 1.97511 5.0956 0
M  V30 6580 H 607.039 0.265464 0.783236 0
M  V30 6581 H 609.585 1.19441 1.20549 0
M  V30 6582 H 608.357 2.50818 3.00344 0
M  V30 6583 H 607.98 1.01362 3.84462 0
M  V30 6584 N 608.977 -1.30795 0.87923 0
M  V30 6585 C 610.388 -1.78535 0.546093 0
M  V30 6586 C 610.739 -1.72354 -0.937467 0
M  V30 6587 O 609.864 -1.2969 -1.73233 0
M  V30 6588 C 610.459 -3.24181 0.9845 0
M  V30 6589 C 609.018 -3.69779 0.702871 0
M  V30 6590 C 608.165 -2.51377 1.17068 0
M  V30 6591 H 611.116 -1.17746 1.06403 0
M  V30 6592 H 611.137 -3.79227 0.311045 0
M  V30 6593 H 610.649 -3.28647 2.06429 0
M  V30 6594 H 608.75 -3.70806 -0.365166 0
M  V30 6595 H 608.863 -4.61507 1.28639 0
M  V30 6596 H 607.227 -2.47768 0.590172 0
M  V30 6597 H 608.01 -2.58584 2.25808 0
M  V30 6598 N 610.455 -0.639598 -1.44038 0
M  V30 6599 C 611.418 0.0506628 -2.29144 0
M  V30 6600 C 612.418 0.764001 -1.41491 0
M  V30 6601 O 613.608 0.607309 -1.63271 0
M  V30 6602 C 610.74 1.0824 -3.2326 0
M  V30 6603 H 611.933 -0.697987 -2.91664 0
M  V30 6604 H 609.486 -0.400146 -1.51091 0
M  V30 6605 H 610.221 1.86075 -2.65606 0
M  V30 6606 H 610.006 0.574725 -3.87865 0
M  V30 6607 H 611.496 1.56487 -3.87171 0
M  V30 6608 N 611.933 1.52934 -0.380664 0
M  V30 6609 C 613.18 2.01467 0.204278 0
M  V30 6610 C 613.508 1.26744 1.47533 0
M  V30 6611 O 612.763 0.353723 1.92477 0
M  V30 6612 C 613.062 3.5349 0.527199 0
M  V30 6613 C 612.728 4.46171 -0.651295 0
M  V30 6614 C 611.39 4.71227 -0.974619 0
M  V30 6615 C 613.742 5.00909 -1.44012 0
M  V30 6616 C 611.07 5.4827 -2.08847 0
M  V30 6617 C 613.422 5.7917 -2.5445 0
M  V30 6618 C 612.086 6.02507 -2.87301 0
M  V30 6619 H 611.356 0.73722 0.0747504 0
M  V30 6620 H 614.003 1.84411 -0.516234 0
M  V30 6621 H 612.308 3.68574 1.32892 0
M  V30 6622 H 614.005 3.88529 0.992283 0
M  V30 6623 H 610.595 4.26829 -0.389276 0
M  V30 6624 H 614.779 4.81485 -1.20357 0
M  V30 6625 H 610.035 5.64567 -2.34679 0
M  V30 6626 H 614.209 6.20588 -3.1598 0
M  V30 6627 H 611.836 6.61989 -3.7373 0
M  V30 6628 N 613.412 0.11024 1.57214 0
M  V30 6629 C 614.689 -0.592956 1.86396 0
M  V30 6630 C 615.069 -1.85379 1.00985 0
M  V30 6631 O 614.417 -2.28337 0.0863592 0
M  V30 6632 C 614.627 -0.893816 3.3736 0
M  V30 6633 C 615.975 -1.25069 4.05762 0
M  V30 6634 O 616.999 -0.984356 3.42329 0
M  V30 6635 O 615.858 -1.75017 5.17718 0
M  V30 6636 H 612.952 -0.29828 0.771335 0
M  V30 6637 H 615.498 0.144083 1.69087 0
M  V30 6638 H 614.27 2.6031e-05 3.913 0
M  V30 6639 H 613.893 -1.68631 3.60068 0
M  V30 6640 N 614.89 -1.56749 -0.16351 0
M  V30 6641 C 616.118 -1.86577 -0.894233 0
M  V30 6642 C 616.533 -0.696543 -1.75481 0
M  V30 6643 O 615.89 0.334161 -1.79415 0
M  V30 6644 C 615.941 -3.15508 -1.76456 0
M  V30 6645 O 615.662 -4.27926 -0.938685 0
M  V30 6646 C 617.163 -3.58737 -2.60428 0
M  V30 6647 H 614.383 -0.618829 -0.259405 0
M  V30 6648 H 616.927 -2.03863 -0.161259 0
M  V30 6649 H 615.082 -3.00025 -2.45079 0
M  V30 6650 H 615.496 -5.01546 -1.53465 0
M  V30 6651 H 616.97 -4.51832 -3.17099 0
M  V30 6652 H 617.447 -2.83229 -3.35675 0
M  V30 6653 H 618.053 -3.76858 -1.97125 0
M  V30 6654 N 616.368 0.432326 -1.51554 0
M  V30 6655 C 617.316 1.54572 -1.73811 0
M  V30 6656 C 618.31 1.58246 -0.604539 0
M  V30 6657 O 619.516 1.6193 -0.786041 0
M  V30 6658 H 615.891 0.513626 -0.549265 0
M  V30 6659 H 617.862 1.32977 -2.67132 0
M  V30 6660 C 616.611 2.92181 -1.88483 0
M  V30 6661 H 615.934 2.90088 -2.75116 0
M  V30 6662 H 617.374 3.69439 -2.08065 0
M  V30 6663 C 615.833 3.3065 -0.645909 0
M  V30 6664 O 616.363 4.01216 0.197093 0
M  V30 6665 N 614.569 2.86464 -0.488538 0
M  V30 6666 H 614.116 2.29209 -1.17562 0
M  V30 6667 H 614.074 3.12565 0.339156 0
M  V30 6668 N 617.846 1.41785 0.688094 0
M  V30 6669 C 619.076 1.44705 1.47459 0
M  V30 6670 C 619.484 0.052916 1.89126 0
M  V30 6671 O 618.827 -0.939781 1.57841 0
M  V30 6672 C 618.889 2.29935 2.76352 0
M  V30 6673 C 618.553 3.77996 2.56843 0
M  V30 6674 C 619.55 4.69976 2.22304 0
M  V30 6675 C 617.235 4.2212 2.7225 0
M  V30 6676 C 619.229 6.04068 2.03421 0
M  V30 6677 C 616.916 5.56275 2.52985 0
M  V30 6678 C 617.914 6.47065 2.18621 0
M  V30 6679 O 617.602 7.78744 1.9953 0
M  V30 6680 H 617.334 0.494703 0.460701 0
M  V30 6681 H 619.888 1.86802 0.854057 0
M  V30 6682 H 618.118 1.82664 3.40839 0
M  V30 6683 H 619.807 2.24467 3.38186 0
M  V30 6684 H 620.573 4.37175 2.10008 0
M  V30 6685 H 616.452 3.51752 2.97979 0
M  V30 6686 H 619.996 6.74897 1.76523 0
M  V30 6687 H 615.893 5.88653 2.64873 0
M  V30 6688 H 616.661 7.89966 2.14234 0
M  V30 6689 N 619.324 -0.923095 1.27737 0
M  V30 6690 C 620.549 -1.71054 1.17283 0
M  V30 6691 C 620.974 -1.86208 -0.266153 0
M  V30 6692 O 620.332 -1.36545 -1.1927 0
M  V30 6693 C 620.38 -3.0854 1.86642 0
M  V30 6694 O 619.484 -3.95528 1.16752 0
M  V30 6695 H 618.825 -0.524136 0.407649 0
M  V30 6696 H 621.355 -1.15487 1.6889 0
M  V30 6697 H 621.365 -3.58828 1.94182 0
M  V30 6698 H 620.04 -2.96828 2.91317 0
M  V30 6699 H 618.617 -3.53967 1.17312 0
M  V30 6700 N 620.802 -1.09834 -1.13024 0
M  V30 6701 C 622.03 -0.858902 -1.8823 0
M  V30 6702 C 622.445 0.590164 -1.79339 0
M  V30 6703 O 621.802 1.4065 -1.16292 0
M  V30 6704 C 621.853 -1.29066 -3.37675 0
M  V30 6705 O 621.574 -2.6829 -3.46341 0
M  V30 6706 C 623.075 -1.08421 -4.29837 0
M  V30 6707 H 620.295 -0.308713 -0.595766 0
M  V30 6708 H 622.839 -1.4614 -1.4305 0
M  V30 6709 H 620.994 -0.731961 -3.80422 0
M  V30 6710 H 621.408 -2.86598 -4.39274 0
M  V30 6711 H 622.882 -1.43553 -5.33007 0
M  V30 6712 H 623.359 -0.0223315 -4.39194 0
M  V30 6713 H 623.965 -1.62907 -3.92863 0
M  V30 6714 N 622.28 1.30327 -0.886154 0
M  V30 6715 C 623.19 2.31854 -0.357866 0
M  V30 6716 C 624.206 1.65392 0.540502 0
M  V30 6717 O 625.382 1.96683 0.433339 0
M  V30 6718 C 622.447 3.44171 0.417999 0
M  V30 6719 C 621.508 4.26257 -0.510263 0
M  V30 6720 C 620.741 5.3321 0.228669 0
M  V30 6721 O 620.964 5.51542 1.45458 0
M  V30 6722 O 619.898 6.0042 -0.421832 0
M  V30 6723 H 623.724 2.78995 -1.19982 0
M  V30 6724 H 621.309 1.34518 -0.650028 0
M  V30 6725 H 623.191 4.12588 0.857251 0
M  V30 6726 H 621.866 2.99164 1.23623 0
M  V30 6727 H 620.773 3.60533 -0.99835 0
M  V30 6728 H 622.106 4.74871 -1.29454 0
M  V30 6729 N 623.758 0.647228 1.43697 0
M  V30 6730 C 625.169 0.238689 1.85168 0
M  V30 6731 C 625.52 -1.21345 1.54175 0
M  V30 6732 O 624.645 -1.92542 0.987743 0
M  V30 6733 C 625.24 0.426422 3.36106 0
M  V30 6734 C 623.799 0.0722541 3.76331 0
M  V30 6735 C 622.946 0.732153 2.6746 0
M  V30 6736 H 625.897 0.851309 1.33934 0
M  V30 6737 H 625.918 -0.32987 3.79067 0
M  V30 6738 H 625.43 1.48339 3.58632 0
M  V30 6739 H 623.531 -0.982355 3.59417 0
M  V30 6740 H 623.644 0.493541 4.76551 0
M  V30 6741 H 622.008 0.16594 2.54159 0
M  V30 6742 H 622.791 1.79204 2.92816 0
M  V30 6743 N 625.236 -1.5273 0.388769 0
M  V30 6744 C 626.476 -2.03483 -0.193372 0
M  V30 6745 C 626.84 -1.26897 -1.44087 0
M  V30 6746 O 628.041 -1.67773 -2.10014 0
M  V30 6747 C 626.312 -3.54488 -0.455325 0
M  V30 6748 S 627.871 -4.27069 -1.00783 0
M  V30 6749 H 624.689 -0.708907 -0.0545131 0
M  V30 6750 H 627.291 -1.8798 0.536993 0
M  V30 6751 H 625.995 -4.07817 0.459722 0
M  V30 6752 H 625.526 -3.74196 -1.21413 0
M  V30 6753 H 627.541 -4.40185 -2.29023 0
M  V30 6754 N 626.714 -0.118576 -1.57153 0
M  V30 6755 C 627.96 0.534078 -1.96263 0
M  V30 6756 C 628.315 1.64316 -1.0009 0
M  V30 6757 O 627.608 1.91575 -0.0308582 0
M  V30 6758 C 627.802 1.11303 -3.39627 0
M  V30 6759 C 627.631 0.0615624 -4.49658 0
M  V30 6760 C 626.401 -0.370103 -5.03943 0
M  V30 6761 C 628.599 -0.719249 -5.09246 0
M  V30 6762 N 626.581 -1.40738 -5.9755 0
M  V30 6763 C 627.952 -1.60774 -5.98792 0
M  V30 6764 C 630.007 -0.770183 -4.91907 0
M  V30 6765 C 628.71 -2.54272 -6.72858 0
M  V30 6766 C 630.736 -1.69288 -5.66653 0
M  V30 6767 C 630.098 -2.56894 -6.55885 0
M  V30 6768 H 626.197 0.165072 -0.764379 0
M  V30 6769 H 628.781 -0.206596 -1.93601 0
M  V30 6770 H 626.952 1.82342 -3.42937 0
M  V30 6771 H 628.684 1.72996 -3.65861 0
M  V30 6772 H 625.439 0.0222121 -4.73595 0
M  V30 6773 H 625.863 -1.92493 -6.49057 0
M  V30 6774 H 630.505 -0.106999 -4.22665 0
M  V30 6775 H 628.223 -3.21605 -7.41347 0
M  V30 6776 H 631.809 -1.73772 -5.55243 0
M  V30 6777 H 630.689 -3.27131 -7.1271 0
M  V30 6778 N 628.193 1.56834 0.155195 0
M  V30 6779 C 629.125 1.94235 1.21677 0
M  V30 6780 C 630.138 0.83724 1.39621 0
M  V30 6781 O 631.327 1.11567 1.39338 0
M  V30 6782 C 628.427 2.19402 2.58294 0
M  V30 6783 C 627.6 3.50671 2.61436 0
M  V30 6784 C 626.659 3.64475 3.79532 0
M  V30 6785 O 625.685 4.36945 3.64784 0
M  V30 6786 N 626.887 3.00526 4.96653 0
M  V30 6787 H 629.652 2.85901 0.898932 0
M  V30 6788 H 627.213 1.58185 0.34483 0
M  V30 6789 H 629.205 2.25886 3.35794 0
M  V30 6790 H 627.775 1.34042 2.82403 0
M  V30 6791 H 626.995 3.55702 1.69912 0
M  V30 6792 H 628.283 4.3702 2.60559 0
M  V30 6793 H 627.681 2.41549 5.11538 0
M  V30 6794 H 626.238 3.12583 5.71958 0
M  V30 6795 N 629.671 -0.424282 1.51781 0
M  V30 6796 C 630.901 -1.19297 1.68677 0
M  V30 6797 C 631.309 -1.85152 0.389258 0
M  V30 6798 O 630.652 -1.72067 -0.643311 0
M  V30 6799 C 630.714 -2.30929 2.75521 0
M  V30 6800 C 630.378 -1.85335 4.17732 0
M  V30 6801 C 631.375 -1.34951 5.0208 0
M  V30 6802 C 629.06 -1.92629 4.63896 0
M  V30 6803 C 631.054 -0.924636 6.30658 0
M  V30 6804 C 628.741 -1.49754 5.92467 0
M  V30 6805 C 629.739 -0.997543 6.75676 0
M  V30 6806 O 629.427 -0.57492 8.01842 0
M  V30 6807 H 629.159 -0.36512 0.568914 0
M  V30 6808 H 631.713 -0.507327 1.99036 0
M  V30 6809 H 629.943 -3.02811 2.40505 0
M  V30 6810 H 631.632 -2.92748 2.81165 0
M  V30 6811 H 632.398 -1.287 4.67612 0
M  V30 6812 H 628.277 -2.30491 3.99243 0
M  V30 6813 H 631.821 -0.533682 6.95556 0
M  V30 6814 H 627.718 -1.55679 6.26446 0
M  V30 6815 H 628.486 -0.699597 8.15505 0
M  V30 6816 N 631.149 -1.42148 -0.680565 0
M  V30 6817 C 632.374 -1.45901 -1.47403 0
M  V30 6818 C 632.799 -0.0700985 -1.87969 0
M  V30 6819 O 632.157 0.930145 -1.55621 0
M  V30 6820 C 632.205 -2.38661 -2.70321 0
M  V30 6821 O 631.309 -1.85399 -3.68376 0
M  V30 6822 H 630.65 -0.494565 -0.443059 0
M  V30 6823 H 633.18 -1.86774 -0.835251 0
M  V30 6824 H 633.19 -2.55046 -3.18458 0
M  V30 6825 H 631.865 -3.39571 -2.40134 0
M  V30 6826 H 630.442 -1.78541 -3.2738 0
M  V30 6827 N 632.627 0.916307 -1.28225 0
M  V30 6828 C 633.904 1.64429 -1.05936 0
M  V30 6829 C 634.284 2.07234 0.402139 0
M  V30 6830 O 633.632 1.81535 1.3877 0
M  V30 6831 C 633.842 2.83773 -2.03159 0
M  V30 6832 C 635.19 3.54852 -2.33164 0
M  V30 6833 O 636.214 2.93918 -2.01223 0
M  V30 6834 O 635.073 4.64663 -2.87664 0
M  V30 6835 H 632.167 0.721221 -0.404683 0
M  V30 6836 H 634.713 0.965838 -1.39534 0
M  V30 6837 H 633.485 2.49217 -3.01673 0
M  V30 6838 H 633.108 3.59333 -1.70192 0
M  V30 6839 N 634.105 1.10431 1.1244 0
M  V30 6840 C 635.055 0.722378 2.16254 0
M  V30 6841 C 636.039 -0.268427 1.58645 0
M  V30 6842 O 637.231 -0.077169 1.76832 0
M  V30 6843 C 634.36 0.155763 3.42946 0
M  V30 6844 C 633.446 1.17361 4.07538 0
M  V30 6845 N 633.837 2.36429 4.47141 0
M  V30 6846 C 632.135 1.01412 4.34317 0
M  V30 6847 C 632.836 3.01259 4.97612 0
M  V30 6848 N 631.812 2.28777 4.93115 0
M  V30 6849 H 635.614 1.62876 2.4464 0
M  V30 6850 H 633.128 0.982031 1.29344 0
M  V30 6851 H 635.125 -0.135936 4.16678 0
M  V30 6852 H 633.785 -0.745339 3.1603 0
M  V30 6853 H 634.796 2.73954 4.39511 0
M  V30 6854 H 631.473 0.168574 4.1716 0
M  V30 6855 H 632.863 4.02541 5.37968 0
M  V30 6856 N 635.583 -1.29855 0.893053 0
M  V30 6857 C 636.533 -2.25493 0.337211 0
M  V30 6858 C 637.517 -1.51606 -0.53894 0
M  V30 6859 O 638.709 -1.72828 -0.382043 0
M  V30 6860 C 635.838 -3.40467 -0.440117 0
M  V30 6861 C 634.924 -4.217 0.450578 0
M  V30 6862 N 635.315 -4.81312 1.55476 0
M  V30 6863 C 633.613 -4.45315 0.247154 0
M  V30 6864 C 634.314 -5.42241 2.10593 0
M  V30 6865 N 633.29 -5.25267 1.39982 0
M  V30 6866 H 637.092 -2.69137 1.18079 0
M  V30 6867 H 634.606 -1.44388 0.743359 0
M  V30 6868 H 636.603 -4.08038 -0.855021 0
M  V30 6869 H 635.263 -2.98361 -1.28104 0
M  V30 6870 H 636.274 -4.80291 1.93755 0
M  V30 6871 H 632.951 -4.13782 -0.555939 0
M  V30 6872 H 634.341 -5.99517 3.03362 0
M  V30 6873 N 637.061 -0.65484 -1.43351 0
M  V30 6874 C 637.971 0.0363603 -2.34572 0
M  V30 6875 C 638.987 0.810432 -1.53974 0
M  V30 6876 O 640.163 0.757308 -1.86619 0
M  V30 6877 C 637.228 0.989733 -3.32273 0
M  V30 6878 C 636.289 0.212414 -4.28774 0
M  V30 6879 C 635.522 1.12038 -5.21808 0
M  V30 6880 O 635.745 2.35967 -5.19303 0
M  V30 6881 O 634.679 0.59191 -5.98982 0
M  V30 6882 H 638.505 -0.714527 -2.95175 0
M  V30 6883 H 636.09 -0.415029 -1.4352 0
M  V30 6884 H 637.972 1.53759 -3.92347 0
M  V30 6885 H 636.647 1.72082 -2.74171 0
M  V30 6886 H 635.554 -0.379062 -3.72175 0
M  V30 6887 H 636.887 -0.479138 -4.89862 0
M  V30 6888 N 638.539 1.52521 -0.396863 0
M  V30 6889 C 639.487 2.28217 0.44943 0
M  V30 6890 C 640.481 1.32416 1.05652 0
M  V30 6891 O 641.687 1.49925 0.996124 0
M  V30 6892 H 638.062 0.733966 0.1637 0
M  V30 6893 H 640.033 2.97658 -0.210367 0
M  V30 6894 C 638.782 3.10713 1.56054 0
M  V30 6895 H 638.105 3.84291 1.10273 0
M  V30 6896 H 639.545 3.66803 2.12677 0
M  V30 6897 C 638.004 2.23499 2.52091 0
M  V30 6898 O 638.534 1.8669 3.55682 0
M  V30 6899 N 636.74 1.8751 2.2201 0
M  V30 6900 H 636.287 2.17643 1.37802 0
M  V30 6901 H 636.245 1.29448 2.86514 0
M  V30 6902 N 640.017 0.126909 1.57088 0
M  V30 6903 C 640.964 -0.82036 2.15728 0
M  V30 6904 C 641.934 -1.25811 1.08447 0
M  V30 6905 O 643.119 -1.33422 1.36393 0
M  V30 6906 C 640.259 -2.06199 2.76724 0
M  V30 6907 C 639.372 -1.67188 3.98337 0
M  V30 6908 C 638.507 -2.86378 4.47393 0
M  V30 6909 C 637.546 -2.43644 5.61519 0
M  V30 6910 N 636.683 -3.55775 6.05284 0
M  V30 6911 H 641.523 -0.313472 2.96347 0
M  V30 6912 H 639.06 -0.14303 1.46403 0
M  V30 6913 H 641.018 -2.78959 3.10222 0
M  V30 6914 H 639.648 -2.54333 1.98782 0
M  V30 6915 H 638.7 -0.842714 3.70948 0
M  V30 6916 H 640.012 -1.31789 4.81075 0
M  V30 6917 H 639.166 -3.67353 4.82842 0
M  V30 6918 H 637.905 -3.25009 3.63621 0
M  V30 6919 H 636.91 -1.61104 5.25667 0
M  V30 6920 H 638.135 -2.06122 6.47063 0
M  V30 6921 H 636.081 -3.94065 5.24451 0
M  V30 6922 H 635.998 -3.24325 6.82898 0
M  V30 6923 H 637.266 -4.37166 6.45373 0
M  V30 6924 N 641.495 -1.56914 -0.146875 0
M  V30 6925 C 642.725 -1.87243 -0.873126 0
M  V30 6926 C 643.133 -0.713127 -1.75246 0
M  V30 6927 O 642.476 0.326228 -1.8078 0
M  V30 6928 C 642.538 -3.12279 -1.78107 0
M  V30 6929 C 642.202 -4.44082 -1.07889 0
M  V30 6930 C 643.199 -5.18096 -0.432734 0
M  V30 6931 C 640.884 -4.90807 -1.06836 0
M  V30 6932 C 642.878 -6.37039 0.214569 0
M  V30 6933 C 640.565 -6.09674 -0.417243 0
M  V30 6934 C 641.563 -6.82636 0.223093 0
M  V30 6935 O 641.251 -7.99245 0.863884 0
M  V30 6936 H 640.983 -0.624896 -0.257839 0
M  V30 6937 H 643.537 -2.04892 -0.14434 0
M  V30 6938 H 641.767 -2.90639 -2.5508 0
M  V30 6939 H 643.456 -3.28854 -2.37929 0
M  V30 6940 H 644.222 -4.83066 -0.432677 0
M  V30 6941 H 640.101 -4.3394 -1.55618 0
M  V30 6942 H 643.645 -6.93927 0.714965 0
M  V30 6943 H 639.542 -6.44165 -0.414967 0
M  V30 6944 H 640.31 -8.14912 0.765564 0
M  V30 6945 N 642.974 0.416227 -1.52004 0
M  V30 6946 C 644.214 1.17307 -1.67387 0
M  V30 6947 C 644.578 1.87959 -0.39183 0
M  V30 6948 O 645.779 2.65472 -0.421671 0
M  V30 6949 C 644.05 2.14661 -2.85754 0
M  V30 6950 S 645.609 2.98549 -3.21581 0
M  V30 6951 H 642.427 0.397505 -0.5895 0
M  V30 6952 H 645.029 0.461431 -1.89976 0
M  V30 6953 H 643.733 1.61431 -3.77317 0
M  V30 6954 H 643.264 2.90375 -2.65417 0
M  V30 6955 H 645.279 4.16536 -2.69652 0
M  V30 6956 N 644.452 1.42507 0.673017 0
M  V30 6957 C 645.729 1.33554 1.42908 0
M  V30 6958 C 646.109 -0.0262211 2.11084 0
M  V30 6959 O 645.457 -1.04181 2.03368 0
M  V30 6960 C 645.667 2.50498 2.43006 0
M  V30 6961 C 647.015 2.92694 3.07596 0
M  V30 6962 O 648.039 2.50401 2.53333 0
M  V30 6963 O 646.898 3.65899 4.05931 0
M  V30 6964 H 643.992 0.526785 0.637516 0
M  V30 6965 H 646.538 1.54518 0.701591 0
M  V30 6966 H 645.31 3.41272 1.9144 0
M  V30 6967 H 644.933 2.3153 3.23233 0
M  V30 6968 N 645.93 -0.909495 1.28709 0
M  V30 6969 C 646.86 -2.0291 1.15542 0
M  V30 6970 C 647.841 -1.7002 0.0521017 0
M  V30 6971 O 649.026 -1.92835 0.229849 0
M  V30 6972 C 646.156 -3.37458 0.820935 0
M  V30 6973 C 645.11 -3.84524 1.87949 0
M  V30 6974 C 644.436 -5.16086 1.39854 0
M  V30 6975 C 645.736 -4.05918 3.28676 0
M  V30 6976 H 647.43 -2.14183 2.09203 0
M  V30 6977 H 644.976 -1.02913 1.00722 0
M  V30 6978 H 646.929 -4.1528 0.715571 0
M  V30 6979 H 645.653 -3.26249 -0.151374 0
M  V30 6980 H 644.312 -3.08911 1.97408 0
M  V30 6981 H 643.96 -5.01284 0.41518 0
M  V30 6982 H 643.66 -5.48547 2.1064 0
M  V30 6983 H 645.184 -5.96459 1.30649 0
M  V30 6984 H 646.598 -4.74252 3.22115 0
M  V30 6985 H 644.995 -4.49717 3.97334 0
M  V30 6986 H 646.065 -3.10583 3.72379 0
M  V30 6987 N 647.408 -1.11026 -1.11852 0
M  V30 6988 C 648.318 -0.777252 -2.2135 0
M  V30 6989 C 649.334 0.227821 -1.72502 0
M  V30 6990 O 650.51 0.0650587 -2.01295 0
M  V30 6991 C 647.575 -0.220668 -3.45997 0
M  V30 6992 C 646.636 -1.2838 -4.09655 0
M  V30 6993 C 645.869 -0.753678 -5.28352 0
M  V30 6994 O 646.092 0.417779 -5.68868 0
M  V30 6995 O 645.026 -1.51647 -5.82483 0
M  V30 6996 H 648.852 -1.69141 -2.5224 0
M  V30 6997 H 646.437 -0.885836 -1.20305 0
M  V30 6998 H 648.319 0.0855756 -4.21313 0
M  V30 6999 H 646.994 0.666262 -3.16769 0
M  V30 7000 H 645.901 -1.64299 -3.3609 0
M  V30 7001 H 647.234 -2.14396 -4.43052 0
M  V30 7002 N 648.886 1.2938 -0.899927 0
M  V30 7003 C 650.126 1.97332 -0.532871 0
M  V30 7004 C 650.49 1.69385 0.904029 0
M  V30 7005 O 651.691 2.30793 1.37797 0
M  V30 7006 C 649.962 3.47927 -0.817393 0
M  V30 7007 S 651.521 4.3528 -0.55468 0
M  V30 7008 H 648.339 0.682966 -0.197683 0
M  V30 7009 H 650.941 1.57189 -1.16241 0
M  V30 7010 H 649.645 3.65761 -1.86138 0
M  V30 7011 H 649.176 3.93006 -0.175978 0
M  V30 7012 H 651.191 4.92557 0.600182 0
M  V30 7013 N 650.364 0.662433 1.43002 0
M  V30 7014 C 651.589 0.186003 2.06564 0
M  V30 7015 C 652.014 -1.14314 1.49379 0
M  V30 7016 O 651.372 -1.70824 0.607346 0
M  V30 7017 C 651.42 0.118269 3.60406 0
M  V30 7018 O 650.524 -0.916859 4.02079 0
M  V30 7019 H 649.865 0.0990981 0.656563 0
M  V30 7020 H 652.395 0.907958 1.8335 0
M  V30 7021 H 652.405 -0.0619981 4.07953 0
M  V30 7022 H 651.08 1.08849 4.01403 0
M  V30 7023 H 649.657 -0.708635 3.66105 0
M  V30 7024 N 651.842 -1.52309 0.404946 0
M  V30 7025 C 652.792 -2.23717 -0.439864 0
M  V30 7026 C 653.776 -1.24692 -1.0169 0
M  V30 7027 O 654.968 -1.49951 -0.940409 0
M  V30 7028 C 652.097 -3.05898 -1.55825 0
M  V30 7029 C 651.183 -4.12331 -0.992188 0
M  V30 7030 N 651.574 -5.0557 -0.152424 0
M  V30 7031 C 649.872 -4.2774 -1.26312 0
M  V30 7032 C 650.573 -5.81474 0.162041 0
M  V30 7033 N 649.549 -5.41767 -0.44601 0
M  V30 7034 H 653.351 -2.93162 0.208084 0
M  V30 7035 H 650.865 -1.60969 0.215131 0
M  V30 7036 H 652.862 -3.55605 -2.17603 0
M  V30 7037 H 651.522 -2.37991 -2.20886 0
M  V30 7038 H 652.533 -5.17468 0.211556 0
M  V30 7039 H 649.21 -3.71062 -1.91362 0
M  V30 7040 H 650.6 -6.66585 0.843423 0
M  V30 7041 N 653.32 -0.135238 -1.57019 0
M  V30 7042 C 654.548 0.526066 -2.001 0
M  V30 7043 C 654.963 1.59184 -1.01519 0
M  V30 7044 O 654.32 1.82497 -0.0104258 0
M  V30 7045 C 654.371 1.13744 -3.43139 0
M  V30 7046 O 654.092 0.114259 -4.37951 0
M  V30 7047 C 655.593 1.8805 -4.01438 0
M  V30 7048 H 652.813 0.137962 -0.656664 0
M  V30 7049 H 655.357 -0.226359 -2.03243 0
M  V30 7050 H 653.512 1.84056 -3.40885 0
M  V30 7051 H 653.926 0.56058 -5.21496 0
M  V30 7052 H 655.4 2.26133 -5.03555 0
M  V30 7053 H 655.877 2.76194 -3.41487 0
M  V30 7054 H 656.483 1.22464 -4.07287 0
M  V30 7055 N 654.798 1.5699 0.138552 0
M  V30 7056 C 656.038 1.85619 0.855849 0
M  V30 7057 C 656.402 0.720663 1.77962 0
M  V30 7058 O 657.603 0.888221 2.53701 0
M  V30 7059 C 655.874 3.19447 1.60275 0
M  V30 7060 S 657.433 3.69656 2.36431 0
M  V30 7061 H 654.251 0.650926 0.286035 0
M  V30 7062 H 656.853 1.9516 0.115331 0
M  V30 7063 H 655.557 4.00053 0.915737 0
M  V30 7064 H 655.088 3.12935 2.38402 0
M  V30 7065 H 657.103 3.39595 3.61787 0
M  V30 7066 N 656.276 -0.40816 1.52223 0
M  V30 7067 C 657.224 -1.51788 1.76248 0
M  V30 7068 C 658.218 -1.57264 0.629638 0
M  V30 7069 O 659.424 -1.60659 0.811704 0
M  V30 7070 H 655.799 -0.504823 0.557367 0
M  V30 7071 H 657.77 -1.2871 2.69214 0
M  V30 7072 C 656.519 -2.89145 1.93107 0
M  V30 7073 H 655.842 -2.85674 2.79697 0
M  V30 7074 H 657.282 -3.66082 2.13916 0
M  V30 7075 C 655.741 -3.29581 0.698431 0
M  V30 7076 O 656.271 -4.01479 -0.133238 0
M  V30 7077 N 654.477 -2.85651 0.53405 0
M  V30 7078 H 654.024 -2.2731 1.21194 0
M  V30 7079 H 653.982 -3.13065 -0.289387 0
M  V30 7080 N 657.755 -1.42862 -0.66545 0
M  V30 7081 C 658.985 -1.47032 -1.45138 0
M  V30 7082 C 659.393 -0.0829977 -1.89018 0
M  V30 7083 O 658.736 0.914551 -1.59316 0
M  V30 7084 C 658.798 -2.34302 -2.72659 0
M  V30 7085 C 658.462 -3.82034 -2.50796 0
M  V30 7086 C 659.459 -4.73453 -2.14799 0
M  V30 7087 C 657.144 -4.26397 -2.655 0
M  V30 7088 C 659.138 -6.07228 -1.93785 0
M  V30 7089 C 656.825 -5.6023 -2.44103 0
M  V30 7090 C 657.823 -6.50462 -2.08299 0
M  V30 7091 O 657.511 -7.8182 -1.87116 0
M  V30 7092 H 657.243 -0.501969 -0.452772 0
M  V30 7093 H 659.797 -1.88137 -0.82423 0
M  V30 7094 H 658.027 -1.88063 -3.37889 0
M  V30 7095 H 659.716 -2.29818 -3.34572 0
M  V30 7096 H 660.482 -4.4046 -2.03026 0
M  V30 7097 H 656.361 -3.56448 -2.92345 0
M  V30 7098 H 659.905 -6.7762 -1.65763 0
M  V30 7099 H 655.802 -5.92793 -2.55475 0
M  V30 7100 H 656.57 -7.93274 -2.01639 0
M  V30 7101 N 659.233 0.902656 -1.29189 0
M  V30 7102 C 660.18 2.00643 -1.14066 0
M  V30 7103 C 661.15 1.66064 -0.0347756 0
M  V30 7104 O 662.335 1.8973 -0.201752 0
M  V30 7105 C 659.475 3.35214 -0.820104 0
M  V30 7106 C 658.588 3.82594 -2.00614 0
M  V30 7107 C 657.723 5.05727 -1.62522 0
M  V30 7108 C 656.762 5.45469 -2.77724 0
M  V30 7109 N 655.899 6.59789 -2.40048 0
M  V30 7110 H 660.739 2.1291 -2.08502 0
M  V30 7111 H 658.276 1.04271 -1.03759 0
M  V30 7112 H 660.234 4.12643 -0.614949 0
M  V30 7113 H 658.864 3.22682 0.0873452 0
M  V30 7114 H 657.916 3.01226 -2.32308 0
M  V30 7115 H 659.228 4.07999 -2.86946 0
M  V30 7116 H 658.382 5.90732 -1.38277 0
M  V30 7117 H 657.121 4.82155 -0.733333 0
M  V30 7118 H 656.126 4.59 -3.02653 0
M  V30 7119 H 657.351 5.71024 -3.67572 0
M  V30 7120 H 655.297 6.37826 -1.53343 0
M  V30 7121 H 655.214 6.84975 -3.19914 0
M  V30 7122 H 656.482 7.4807 -2.19116 0
M  V30 7123 N 660.711 1.11618 1.11262 0
M  V30 7124 C 661.939 0.888739 1.8684 0
M  V30 7125 C 662.354 -0.561558 1.80255 0
M  V30 7126 O 661.711 -1.38782 1.18515 0
M  V30 7127 C 661.762 1.34422 3.35579 0
M  V30 7128 O 661.483 2.73766 3.42029 0
M  V30 7129 C 662.984 1.15246 4.28058 0
M  V30 7130 H 660.204 0.318152 0.590779 0
M  V30 7131 H 662.748 1.48398 1.40707 0
M  V30 7132 H 660.903 0.79239 3.7921 0
M  V30 7133 H 661.317 2.9355 4.34659 0
M  V30 7134 H 662.791 1.52015 5.30656 0
M  V30 7135 H 663.268 0.0922007 4.39103 0
M  V30 7136 H 663.874 1.69136 3.90222 0
M  V30 7137 N 662.189 -1.289 0.906776 0
M  V30 7138 C 663.605 -1.47733 0.603902 0
M  V30 7139 C 663.805 -1.82568 -0.852702 0
M  V30 7140 O 662.861 -1.92642 -1.63234 0
M  V30 7141 C 664.174 -2.58522 1.53581 0
M  V30 7142 C 665.722 -2.72394 1.54177 0
M  V30 7143 C 666.197 -3.86318 2.46013 0
M  V30 7144 N 667.688 -3.93661 2.441 0
M  V30 7145 C 668.423 -4.81177 3.11859 0
M  V30 7146 N 667.919 -5.73333 3.88923 0
M  V30 7147 N 669.712 -4.74728 3.00981 0
M  V30 7148 H 661.863 -1.04567 1.84877 0
M  V30 7149 H 664.126 -0.520118 0.792579 0
M  V30 7150 H 663.832 -2.39667 2.57396 0
M  V30 7151 H 663.706 -3.55475 1.26165 0
M  V30 7152 H 666.093 -2.90641 0.511034 0
M  V30 7153 H 666.174 -1.75993 1.85634 0
M  V30 7154 H 665.818 -3.68826 3.49185 0
M  V30 7155 H 665.748 -4.82102 2.11862 0
M  V30 7156 H 668.239 -3.27751 1.88115 0
M  V30 7157 H 668.552 -6.36923 4.37663 0
M  V30 7158 H 666.897 -5.73196 3.93029 0
M  V30 7159 H 670.088 -4.01722 2.40286 0
M  V30 7160 H 670.261 -5.42719 3.54062 0
M  V30 7161 N 663.667 -0.670007 -1.42649 0
M  V30 7162 C 664.892 -0.196955 -2.06463 0
M  V30 7163 C 665.317 1.1352 -1.49983 0
M  V30 7164 O 664.675 1.705 -0.616397 0
M  V30 7165 C 664.723 -0.137381 -3.60338 0
M  V30 7166 O 663.827 0.895523 -4.02559 0
M  V30 7167 H 663.168 -0.102579 -0.656029 0
M  V30 7168 H 665.698 -0.917669 -1.82866 0
M  V30 7169 H 665.708 0.0403625 -4.0798 0
M  V30 7170 H 664.383 -1.10977 -4.0082 0
M  V30 7171 H 662.96 0.689209 -3.66476 0
M  V30 7172 N 665.145 1.52092 -0.413018 0
M  V30 7173 C 666.37 2.06756 0.163338 0
M  V30 7174 C 666.795 1.28073 1.37764 0
M  V30 7175 O 666.153 0.312015 1.78595 0
M  V30 7176 C 666.201 3.57278 0.488322 0
M  V30 7177 O 665.305 3.80986 1.57871 0
M  V30 7178 H 664.646 0.663882 0.0125068 0
M  V30 7179 H 667.176 1.95988 -0.587339 0
M  V30 7180 H 667.186 4.01125 0.745836 0
M  V30 7181 H 665.861 4.13978 -0.399327 0
M  V30 7182 H 664.438 3.49017 1.31306 0
M  V30 7183 N 666.623 0.143563 1.56945 0
M  V30 7184 C 667.848 -0.518701 2.00809 0
M  V30 7185 C 668.273 -1.5785 1.02298 0
M  V30 7186 O 667.631 -1.813 -0.0017839 0
M  V30 7187 C 667.679 -1.09929 3.43436 0
M  V30 7188 O 666.783 -2.21425 3.47915 0
M  V30 7189 H 666.124 -0.127215 0.6517 0
M  V30 7190 H 668.654 0.239283 2.03196 0
M  V30 7191 H 668.664 -1.4288 3.82164 0
M  V30 7192 H 667.339 -0.323162 4.14643 0
M  V30 7193 H 665.916 -1.89728 3.21026 0
M  V30 7194 N 668.101 -1.57061 -0.130224 0
M  V30 7195 C 669.331 -1.88159 -0.853217 0
M  V30 7196 C 669.739 -0.731675 -1.7448 0
M  V30 7197 O 669.082 0.307035 -1.81116 0
M  V30 7198 C 669.144 -3.1415 -1.74785 0
M  V30 7199 C 668.808 -4.45202 -1.03173 0
M  V30 7200 C 669.805 -5.18526 -0.377759 0
M  V30 7201 C 667.49 -4.91912 -1.01624 0
M  V30 7202 C 669.484 -6.36775 0.282123 0
M  V30 7203 C 667.171 -6.10082 -0.352555 0
M  V30 7204 C 668.169 -6.82361 0.295483 0
M  V30 7205 O 667.857 -7.98284 0.948606 0
M  V30 7206 H 667.589 -0.627596 -0.251197 0
M  V30 7207 H 670.143 -2.05034 -0.1226 0
M  V30 7208 H 668.373 -2.93328 -2.51983 0
M  V30 7209 H 670.062 -3.31359 -2.34427 0
M  V30 7210 H 670.828 -4.83498 -0.381417 0
M  V30 7211 H 666.707 -4.35566 -1.51007 0
M  V30 7212 H 670.251 -6.93129 0.788525 0
M  V30 7213 H 666.148 -6.44569 -0.346621 0
M  V30 7214 H 666.916 -8.14054 0.851954 0
M  V30 7215 N 669.579 0.400081 -1.52437 0
M  V30 7216 C 670.509 1.4947 -1.7939 0
M  V30 7217 C 671.49 1.57383 -0.645329 0
M  V30 7218 O 672.675 1.72511 -0.891826 0
M  V30 7219 C 669.805 2.87201 -1.95276 0
M  V30 7220 C 668.759 2.94134 -3.10917 0
M  V30 7221 C 668.085 4.34207 -3.1204 0
M  V30 7222 C 669.385 2.64791 -4.50203 0
M  V30 7223 H 671.079 1.27165 -2.71052 0
M  V30 7224 H 668.625 0.610312 -1.30427 0
M  V30 7225 H 670.578 3.63772 -2.12715 0
M  V30 7226 H 669.302 3.10819 -1.00294 0
M  V30 7227 H 667.961 2.20009 -2.93243 0
M  V30 7228 H 667.609 4.54848 -2.14761 0
M  V30 7229 H 667.309 4.39768 -3.89715 0
M  V30 7230 H 668.833 5.127 -3.31619 0
M  V30 7231 H 670.247 3.31083 -4.68035 0
M  V30 7232 H 668.644 2.81717 -5.29864 0
M  V30 7233 H 669.714 1.60184 -4.57678 0
M  V30 7234 N 671.057 1.43213 0.657864 0
M  V30 7235 C 672.334 1.35063 1.41483 0
M  V30 7236 C 672.714 -0.0038314 2.111 0
M  V30 7237 O 672.062 -1.02018 2.04462 0
M  V30 7238 C 672.272 2.53061 2.40335 0
M  V30 7239 C 673.62 2.9594 3.04474 0
M  V30 7240 O 674.644 2.53074 2.50663 0
M  V30 7241 O 673.503 3.70184 4.02027 0
M  V30 7242 H 670.597 0.533517 0.631893 0
M  V30 7243 H 673.143 1.55253 0.685162 0
M  V30 7244 H 671.915 3.43283 1.87809 0
M  V30 7245 H 671.538 2.34945 3.20759 0
M  V30 7246 N 672.536 -0.895792 1.29666 0
M  V30 7247 C 673.484 -2.02173 1.15017 0
M  V30 7248 C 674.478 -1.69276 0.0647651 0
M  V30 7249 O 675.684 -1.7859 0.224846 0
M  V30 7250 H 672.059 -0.662719 0.355397 0
M  V30 7251 H 674.03 -2.11666 2.10334 0
M  V30 7252 C 672.779 -3.37212 0.847555 0
M  V30 7253 H 672.102 -3.6303 1.67479 0
M  V30 7254 H 673.542 -4.16668 0.785106 0
M  V30 7255 C 672.001 -3.33891 -0.44929 0
M  V30 7256 O 672.531 -3.73673 -1.47415 0
M  V30 7257 N 670.737 -2.86991 -0.456547 0
M  V30 7258 H 670.284 -2.54813 0.377925 0
M  V30 7259 H 670.242 -2.85152 -1.32423 0
M  V30 7260 N 674.014 -1.12206 -1.10668 0
M  V30 7261 C 674.944 -0.810086 -2.18997 0
M  V30 7262 C 675.925 0.225065 -1.68604 0
M  V30 7263 O 677.11 0.086783 -1.94006 0
M  V30 7264 C 674.24 -0.261262 -3.46316 0
M  V30 7265 C 673.194 -1.2292 -4.09969 0
M  V30 7266 C 672.52 -0.540713 -5.31959 0
M  V30 7267 C 673.82 -2.58295 -4.53962 0
M  V30 7268 H 675.514 -1.7159 -2.45352 0
M  V30 7269 H 673.06 -0.82646 -1.17922 0
M  V30 7270 H 675.013 -0.0307522 -4.21389 0
M  V30 7271 H 673.737 0.679879 -3.19445 0
M  V30 7272 H 672.396 -1.44548 -3.369 0
M  V30 7273 H 672.044 0.405492 -5.01363 0
M  V30 7274 H 671.744 -1.18637 -5.75499 0
M  V30 7275 H 673.268 -0.319184 -6.09765 0
M  V30 7276 H 674.682 -2.40709 -5.20319 0
M  V30 7277 H 673.079 -3.18916 -5.08343 0
M  V30 7278 H 674.149 -3.16918 -3.67002 0
M  V30 7279 N 675.492 1.28418 -0.913599 0
M  V30 7280 C 676.738 1.9527 -0.547484 0
M  V30 7281 C 677.071 1.71745 0.906486 0
M  V30 7282 O 676.346 1.03834 1.64465 0
M  V30 7283 C 676.629 3.49748 -0.857205 0
M  V30 7284 C 676.482 3.82675 -2.3639 0
M  V30 7285 C 677.801 4.3868 -0.353258 0
M  V30 7286 H 674.92 0.709236 -0.200381 0
M  V30 7287 H 677.562 1.51789 -1.14281 0
M  V30 7288 H 675.712 3.86915 -0.350548 0
M  V30 7289 H 677.384 3.55378 -2.94116 0
M  V30 7290 H 675.627 3.29724 -2.81894 0
M  V30 7291 H 676.298 4.90547 -2.53115 0
M  V30 7292 H 678.774 4.08584 -0.787288 0
M  V30 7293 H 677.65 5.45621 -0.599049 0
M  V30 7294 H 677.911 4.35753 0.746413 0
M  V30 7295 N 676.97 0.677563 1.42291 0
M  V30 7296 C 678.216 0.209962 2.02313 0
M  V30 7297 C 678.571 -1.1714 1.52631 0
M  V30 7298 O 677.864 -1.7756 0.719938 0
M  V30 7299 C 678.058 0.187229 3.56909 0
M  V30 7300 C 677.887 1.56484 4.21595 0
M  V30 7301 C 676.657 2.16329 4.56651 0
M  V30 7302 C 678.855 2.50805 4.49 0
M  V30 7303 N 676.837 3.46842 5.06531 0
M  V30 7304 C 678.208 3.65976 5.00461 0
M  V30 7305 C 680.263 2.493 4.30992 0
M  V30 7306 C 678.966 4.79899 5.35807 0
M  V30 7307 C 680.992 3.62322 4.67415 0
M  V30 7308 C 680.354 4.76221 5.19031 0
M  V30 7309 H 676.453 0.121815 0.772454 0
M  V30 7310 H 679.037 0.891148 1.73109 0
M  V30 7311 H 677.208 -0.46338 3.85626 0
M  V30 7312 H 678.94 -0.293512 4.03634 0
M  V30 7313 H 675.695 1.6879 4.42501 0
M  V30 7314 H 676.119 4.13694 5.35898 0
M  V30 7315 H 680.761 1.62467 3.90339 0
M  V30 7316 H 678.479 5.67406 5.75392 0
M  V30 7317 H 682.065 3.62388 4.55155 0
M  V30 7318 H 680.945 5.62228 5.46689 0
M  V30 7319 N 678.448 -1.51871 0.421078 0
M  V30 7320 C 679.864 -1.59435 0.0725398 0
M  V30 7321 C 680.064 -1.43315 -1.41644 0
M  V30 7322 O 679.12 -1.26614 -2.18461 0
M  V30 7323 C 680.433 -2.9509 0.578132 0
M  V30 7324 C 681.981 -3.08356 0.537149 0
M  V30 7325 C 682.456 -4.4651 1.01945 0
M  V30 7326 N 683.947 -4.52784 0.976758 0
M  V30 7327 C 684.682 -5.57976 1.32099 0
M  V30 7328 N 684.178 -6.70664 1.73727 0
M  V30 7329 N 685.971 -5.48248 1.2402 0
M  V30 7330 H 678.122 -1.60595 1.39007 0
M  V30 7331 H 680.385 -0.756138 0.571803 0
M  V30 7332 H 680.091 -3.12205 1.61929 0
M  V30 7333 H 679.965 -3.772 -0.00578374 0
M  V30 7334 H 682.352 -2.90919 -0.494991 0
M  V30 7335 H 682.433 -2.28125 1.15727 0
M  V30 7336 H 682.077 -4.64692 2.04997 0
M  V30 7337 H 682.007 -5.25256 0.376023 0
M  V30 7338 H 684.498 -3.71898 0.670851 0
M  V30 7339 H 684.811 -7.46932 1.98274 0
M  V30 7340 H 683.156 -6.71914 1.77641 0
M  V30 7341 H 686.347 -4.59095 0.913756 0
M  V30 7342 H 686.52 -6.30119 1.51176 0
M  V30 7343 N 679.926 -0.151884 -1.56866 0
M  V30 7344 C 680.836 0.798876 -2.20579 0
M  V30 7345 C 681.852 1.268 -1.19154 0
M  V30 7346 O 683.028 1.32418 -1.51748 0
M  V30 7347 C 680.093 2.01861 -2.81874 0
M  V30 7348 C 679.154 1.59825 -3.9844 0
M  V30 7349 C 678.387 2.75984 -4.56802 0
M  V30 7350 O 678.61 3.92331 -4.14044 0
M  V30 7351 O 677.544 2.51175 -5.46987 0
M  V30 7352 H 681.37 0.2865 -3.02346 0
M  V30 7353 H 678.955 0.0753806 -1.4921 0
M  V30 7354 H 680.837 2.73235 -3.20813 0
M  V30 7355 H 679.512 2.52042 -2.03117 0
M  V30 7356 H 678.419 0.854601 -3.64208 0
M  V30 7357 H 679.752 1.14355 -4.78731 0
M  V30 7358 N 681.404 1.57128 0.121893 0
M  V30 7359 C 682.629 1.89254 0.848385 0
M  V30 7360 C 683.054 0.743527 1.72781 0
M  V30 7361 O 682.412 -0.306056 1.78698 0
M  V30 7362 C 682.46 3.20113 1.66012 0
M  V30 7363 O 681.564 3.05815 2.76679 0
M  V30 7364 H 680.905 0.621103 0.234793 0
M  V30 7365 H 683.435 2.0433 0.10516 0
M  V30 7366 H 683.445 3.52761 2.04996 0
M  V30 7367 H 682.12 4.03336 1.01452 0
M  V30 7368 H 680.697 2.84627 2.40918 0
M  V30 7369 N 682.882 -0.391992 1.52647 0
M  V30 7370 C 683.792 -1.503 1.80131 0
M  V30 7371 C 684.808 -1.59825 0.687882 0
M  V30 7372 O 685.984 -1.76218 0.975149 0
M  V30 7373 C 683.049 -2.85863 1.96171 0
M  V30 7374 C 682.11 -2.86084 3.20085 0
M  V30 7375 C 681.343 -4.15181 3.35351 0
M  V30 7376 O 681.566 -5.09981 2.55491 0
M  V30 7377 O 680.5 -4.22603 4.28591 0
M  V30 7378 H 684.326 -1.30007 2.74466 0
M  V30 7379 H 681.911 -0.579539 1.37701 0
M  V30 7380 H 683.793 -3.66236 2.08445 0
M  V30 7381 H 682.468 -3.06189 1.05025 0
M  V30 7382 H 681.375 -2.04504 3.13256 0
M  V30 7383 H 682.708 -2.7071 4.11068 0
M  V30 7384 N 684.36 -1.4356 -0.65026 0
M  V30 7385 C 685.606 -1.45549 -1.41221 0
M  V30 7386 C 685.939 -0.0805472 -1.94033 0
M  V30 7387 O 685.214 0.899043 -1.72475 0
M  V30 7388 C 685.497 -2.50028 -2.59148 0
M  V30 7389 C 685.35 -3.96808 -2.1181 0
M  V30 7390 C 686.669 -2.51212 -3.61359 0
M  V30 7391 H 683.788 -0.529967 -0.512156 0
M  V30 7392 H 686.43 -1.75127 -0.736933 0
M  V30 7393 H 684.58 -2.24937 -3.16758 0
M  V30 7394 H 686.252 -4.32966 -1.59178 0
M  V30 7395 H 684.495 -4.09498 -1.43156 0
M  V30 7396 H 685.166 -4.6553 -2.96625 0
M  V30 7397 H 687.642 -2.73583 -3.13515 0
M  V30 7398 H 686.518 -3.26252 -4.41419 0
M  V30 7399 H 686.779 -1.54701 -4.1415 0
M  V30 7400 N 685.838 0.888903 -1.30139 0
M  V30 7401 C 686.786 2.0156 -1.16088 0
M  V30 7402 C 687.78 1.69239 -0.0737413 0
M  V30 7403 O 688.986 1.78468 -0.234313 0
M  V30 7404 H 685.361 0.660825 -0.358907 0
M  V30 7405 H 687.332 2.10547 -2.11453 0
M  V30 7406 C 686.081 3.36758 -0.865426 0
M  V30 7407 H 685.404 3.62137 -1.69402 0
M  V30 7408 H 686.844 4.16246 -0.807192 0
M  V30 7409 C 685.303 3.34124 0.431577 0
M  V30 7410 O 685.833 3.7445 1.45431 0
M  V30 7411 N 684.039 2.87229 0.441321 0
M  V30 7412 H 683.586 2.54609 -0.391433 0
M  V30 7413 H 683.544 2.8585 1.30909 0
M  V30 7414 N 687.317 1.12792 1.10072 0
M  V30 7415 C 688.267 0.768086 2.14673 0
M  V30 7416 C 689.251 -0.234716 1.59179 0
M  V30 7417 O 690.443 -0.039643 1.76956 0
M  V30 7418 C 687.572 0.228472 3.42539 0
M  V30 7419 C 686.658 1.25979 4.04957 0
M  V30 7420 N 687.049 2.4586 4.42025 0
M  V30 7421 C 685.347 1.10602 4.32069 0
M  V30 7422 C 686.048 3.11747 4.9111 0
M  V30 7423 N 685.024 2.39185 4.88151 0
M  V30 7424 H 688.826 1.68029 2.4113 0
M  V30 7425 H 686.34 1.00925 1.27232 0
M  V30 7426 H 688.337 -0.0475216 4.16873 0
M  V30 7427 H 686.997 -0.678136 3.1754 0
M  V30 7428 H 688.008 2.83215 4.33601 0
M  V30 7429 H 684.685 0.257021 4.16708 0
M  V30 7430 H 686.075 4.13862 5.29309 0
M  V30 7431 N 688.795 -1.27931 0.920396 0
M  V30 7432 C 690.025 -1.98516 0.572256 0
M  V30 7433 C 690.433 -1.68912 -0.852375 0
M  V30 7434 O 689.776 -0.94203 -1.57707 0
M  V30 7435 C 689.838 -3.5243 0.709485 0
M  V30 7436 C 689.502 -4.0564 2.10489 0
M  V30 7437 C 690.499 -4.1897 3.07831 0
M  V30 7438 C 688.184 -4.40168 2.41986 0
M  V30 7439 C 690.178 -4.66093 4.34783 0
M  V30 7440 C 687.865 -4.86983 3.69176 0
M  V30 7441 C 688.863 -4.99903 4.65388 0
M  V30 7442 O 688.551 -5.45694 5.90316 0
M  V30 7443 H 688.283 -0.64047 0.216274 0
M  V30 7444 H 690.837 -1.6393 1.23758 0
M  V30 7445 H 689.067 -3.86698 -0.0129263 0
M  V30 7446 H 690.756 -4.04233 0.367474 0
M  V30 7447 H 691.522 -3.92562 2.84816 0
M  V30 7448 H 687.401 -4.29358 1.67846 0
M  V30 7449 H 690.945 -4.76092 5.09884 0
M  V30 7450 H 686.842 -5.12832 3.92012 0
M  V30 7451 H 687.61 -5.63965 5.932 0
M  V30 7452 N 690.273 -0.685099 -1.4193 0
M  V30 7453 C 691.503 -0.220052 -2.05425 0
M  V30 7454 C 691.911 1.13185 -1.51611 0
M  V30 7455 O 691.254 1.71631 -0.654875 0
M  V30 7456 C 691.316 -0.0888364 -3.5939 0
M  V30 7457 C 690.98 -1.37109 -4.35947 0
M  V30 7458 C 691.977 -2.30675 -4.65924 0
M  V30 7459 C 689.662 -1.62155 -4.75406 0
M  V30 7460 C 691.656 -3.47556 -5.34306 0
M  V30 7461 C 689.343 -2.79324 -5.43527 0
M  V30 7462 C 690.341 -3.71848 -5.72903 0
M  V30 7463 O 690.029 -4.86966 -6.39624 0
M  V30 7464 H 689.761 -0.102165 -0.668235 0
M  V30 7465 H 692.315 -0.935194 -1.82875 0
M  V30 7466 H 690.545 0.681981 -3.80639 0
M  V30 7467 H 692.234 0.337669 -4.04493 0
M  V30 7468 H 693 -2.12579 -4.3593 0
M  V30 7469 H 688.879 -0.910053 -4.51928 0
M  V30 7470 H 692.423 -4.19794 -5.57153 0
M  V30 7471 H 688.32 -2.97342 -5.72938 0
M  V30 7472 H 689.088 -4.86644 -6.58118 0
M  V30 7473 N 691.751 1.51645 -0.429126 0
M  V30 7474 C 692.661 2.31288 0.392809 0
M  V30 7475 C 693.677 1.39852 1.03525 0
M  V30 7476 O 694.853 1.72926 1.03241 0
M  V30 7477 C 691.918 3.13347 1.48372 0
M  V30 7478 C 690.979 4.20551 0.862268 0
M  V30 7479 C 690.212 4.98688 1.9012 0
M  V30 7480 O 690.435 4.77359 3.12225 0
M  V30 7481 O 689.369 5.83005 1.4963 0
M  V30 7482 H 693.195 3.02609 -0.257138 0
M  V30 7483 H 690.78 1.48163 -0.191851 0
M  V30 7484 H 692.662 3.64387 2.1166 0
M  V30 7485 H 691.337 2.44799 2.1179 0
M  V30 7486 H 690.244 3.73609 0.191568 0
M  V30 7487 H 691.577 4.91449 0.271704 0
M  V30 7488 N 693.229 0.160201 1.56784 0
M  V30 7489 C 694.64 -0.358417 1.83227 0
M  V30 7490 C 694.991 -1.63831 1.07952 0
M  V30 7491 O 694.116 -2.13885 0.328995 0
M  V30 7492 C 694.711 -0.657058 3.32368 0
M  V30 7493 C 693.27 -1.12015 3.59346 0
M  V30 7494 C 692.417 -0.15015 2.76893 0
M  V30 7495 H 695.368 0.384669 1.53967 0
M  V30 7496 H 695.389 -1.51033 3.49241 0
M  V30 7497 H 694.901 0.274647 3.87127 0
M  V30 7498 H 693.002 -2.06734 3.09987 0
M  V30 7499 H 693.115 -1.037 4.67743 0
M  V30 7500 H 691.479 -0.645361 2.46388 0
M  V30 7501 H 692.262 0.775379 3.34429 0
M  V30 7502 N 694.707 -1.5719 -0.113559 0
M  V30 7503 C 695.654 -2.00736 -1.13901 0
M  V30 7504 C 696.624 -0.88044 -1.40846 0
M  V30 7505 O 697.809 -1.14507 -1.5262 0
M  V30 7506 C 694.949 -2.42132 -2.45899 0
M  V30 7507 C 694.062 -3.68264 -2.25844 0
M  V30 7508 C 693.197 -3.98617 -3.5111 0
M  V30 7509 C 692.236 -5.17915 -3.26236 0
M  V30 7510 N 691.373 -5.44111 -4.4372 0
M  V30 7511 H 696.213 -2.88128 -0.760677 0
M  V30 7512 H 693.75 -1.42523 -0.364099 0
M  V30 7513 H 695.708 -2.6417 -3.22908 0
M  V30 7514 H 694.338 -1.57775 -2.81615 0
M  V30 7515 H 693.39 -3.53809 -1.39726 0
M  V30 7516 H 694.702 -4.55425 -2.03444 0
M  V30 7517 H 693.856 -4.21333 -4.36536 0
M  V30 7518 H 692.595 -3.09942 -3.76546 0
M  V30 7519 H 691.6 -4.95038 -2.39202 0
M  V30 7520 H 692.825 -6.08172 -3.02165 0
M  V30 7521 H 690.771 -4.58394 -4.69266 0
M  V30 7522 H 690.688 -6.25606 -4.24444 0
M  V30 7523 H 691.956 -5.71351 -5.30263 0
M  V30 7524 N 696.185 0.383891 -1.52853 0
M  V30 7525 C 697.115 1.47559 -1.80965 0
M  V30 7526 C 698.096 1.5669 -0.661986 0
M  V30 7527 O 699.281 1.71556 -0.910072 0
M  V30 7528 C 696.411 2.85114 -1.98312 0
M  V30 7529 C 695.365 2.9082 -3.14019 0
M  V30 7530 C 694.691 4.30873 -3.16627 0
M  V30 7531 C 695.991 2.60001 -4.52986 0
M  V30 7532 H 697.685 1.24283 -2.72386 0
M  V30 7533 H 695.231 0.596445 -1.31067 0
M  V30 7534 H 697.184 3.61496 -2.16561 0
M  V30 7535 H 695.908 3.09738 -1.03585 0
M  V30 7536 H 694.567 2.16886 -2.9556 0
M  V30 7537 H 694.215 4.52545 -2.19573 0
M  V30 7538 H 693.915 4.3561 -3.94357 0
M  V30 7539 H 695.439 5.09154 -3.37038 0
M  V30 7540 H 696.853 3.261 -4.71521 0
M  V30 7541 H 695.25 2.76081 -5.32822 0
M  V30 7542 H 696.32 1.5532 -4.59351 0
M  V30 7543 N 697.663 1.43903 0.642637 0
M  V30 7544 C 698.912 1.45362 1.39831 0
M  V30 7545 C 699.225 0.0856289 1.95412 0
M  V30 7546 O 700.431 -0.0222856 2.71491 0
M  V30 7547 C 698.887 2.55857 2.53111 0
M  V30 7548 C 698.495 3.98811 2.04092 0
M  V30 7549 C 700.239 2.66524 3.30402 0
M  V30 7550 C 698.146 5.00751 3.14647 0
M  V30 7551 H 697.076 0.540777 0.52543 0
M  V30 7552 H 699.727 1.69929 0.692559 0
M  V30 7553 H 698.109 2.2451 3.26207 0
M  V30 7554 H 699.283 4.3967 1.37938 0
M  V30 7555 H 697.598 3.92284 1.39651 0
M  V30 7556 H 700.195 3.39858 4.12796 0
M  V30 7557 H 700.538 1.71949 3.79129 0
M  V30 7558 H 701.071 2.97224 2.64392 0
M  V30 7559 H 697.81 5.96914 2.70876 0
M  V30 7560 H 697.33 4.64495 3.79479 0
M  V30 7561 H 699.009 5.23933 3.79609 0
M  V30 7562 N 699.141 -0.881989 1.30609 0
M  V30 7563 C 700.39 -1.62878 1.18969 0
M  V30 7564 C 700.703 -1.93946 -0.253859 0
M  V30 7565 O 701.909 -2.67008 -0.491813 0
M  V30 7566 C 700.365 -2.93573 2.0819 0
M  V30 7567 C 699.973 -2.70034 3.57471 0
M  V30 7568 C 701.717 -3.71543 2.0532 0
M  V30 7569 C 699.624 -3.96563 4.38739 0
M  V30 7570 H 698.554 -0.611092 0.441682 0
M  V30 7571 H 701.205 -0.976201 1.55379 0
M  V30 7572 H 699.587 -3.6014 1.64666 0
M  V30 7573 H 700.761 -2.11949 4.09163 0
M  V30 7574 H 699.076 -2.05435 3.62195 0
M  V30 7575 H 701.673 -4.65386 2.63288 0
M  V30 7576 H 702.016 -4.03167 1.03739 0
M  V30 7577 H 702.549 -3.11842 2.46981 0
M  V30 7578 H 699.288 -3.70095 5.41027 0
M  V30 7579 H 698.808 -4.54142 3.9181 0
M  V30 7580 H 700.487 -4.64557 4.50329 0
M  V30 7581 N 700.619 -1.13374 -1.09472 0
M  V30 7582 C 701.896 -0.806329 -1.78207 0
M  V30 7583 C 702.276 0.702191 -1.99079 0
M  V30 7584 O 701.624 1.63931 -1.59182 0
M  V30 7585 C 701.834 -1.59271 -3.10538 0
M  V30 7586 C 703.182 -1.78509 -3.85253 0
M  V30 7587 O 704.206 -1.55866 -3.20288 0
M  V30 7588 O 703.065 -2.16287 -5.01879 0
M  V30 7589 H 700.159 -0.29435 -0.772843 0
M  V30 7590 H 702.705 -1.23833 -1.16033 0
M  V30 7591 H 701.477 -2.61792 -2.90828 0
M  V30 7592 H 701.1 -1.15562 -3.80436 0
M  V30 7593 N 702.098 1.27442 -0.927168 0
M  V30 7594 C 703.028 2.29256 -0.443188 0
M  V30 7595 C 704.009 1.62701 0.49624 0
M  V30 7596 O 705.194 1.90013 0.401105 0
M  V30 7597 C 702.324 3.45955 0.305366 0
M  V30 7598 C 701.278 4.24501 -0.546178 0
M  V30 7599 C 700.604 5.33671 0.331512 0
M  V30 7600 C 701.904 4.89921 -1.81037 0
M  V30 7601 H 703.598 2.69988 -1.29409 0
M  V30 7602 H 701.144 1.29792 -0.623705 0
M  V30 7603 H 703.097 4.1628 0.654885 0
M  V30 7604 H 701.821 3.04138 1.19029 0
M  V30 7605 H 700.48 3.55921 -0.878398 0
M  V30 7606 H 700.128 4.88096 1.21537 0
M  V30 7607 H 699.828 5.87131 -0.234746 0
M  V30 7608 H 701.352 6.0684 0.676614 0
M  V30 7609 H 702.766 5.52536 -1.52895 0
M  V30 7610 H 701.163 5.53436 -2.32009 0
M  V30 7611 H 702.233 4.13652 -2.53021 0
M  V30 7612 N 703.576 0.692616 1.41565 0
M  V30 7613 C 704.801 0.229776 2.06123 0
M  V30 7614 C 705.226 -1.11119 1.5177 0
M  V30 7615 O 704.584 -1.69498 0.643444 0
M  V30 7616 C 704.632 0.19469 3.60074 0
M  V30 7617 O 703.736 -0.831366 4.03933 0
M  V30 7618 H 703.077 0.113002 0.654314 0
M  V30 7619 H 705.607 0.946645 1.81383 0
M  V30 7620 H 705.617 0.0245487 4.07993 0
M  V30 7621 H 704.292 1.17339 3.99004 0
M  V30 7622 H 702.869 -0.630819 3.67526 0
M  V30 7623 N 705.054 -1.51416 0.437162 0
M  V30 7624 C 706.002 -2.29328 -0.388765 0
M  V30 7625 C 706.996 -1.35171 -1.02104 0
M  V30 7626 O 708.202 -1.52513 -0.956024 0
M  V30 7627 H 704.577 -0.738048 -0.144183 0
M  V30 7628 H 706.548 -2.96995 0.289212 0
M  V30 7629 C 705.297 -3.14741 -1.47761 0
M  V30 7630 H 704.62 -3.8708 -1.00045 0
M  V30 7631 H 706.06 -3.72313 -2.02877 0
M  V30 7632 C 704.519 -2.30105 -2.46076 0
M  V30 7633 O 705.049 -1.96055 -3.50607 0
M  V30 7634 N 703.255 -1.93331 -2.1696 0
M  V30 7635 H 702.802 -2.2122 -1.31983 0
M  V30 7636 H 702.76 -1.36999 -2.82982 0
M  V30 7637 N 706.532 -0.168513 -1.56696 0
M  V30 7638 C 707.778 0.471368 -1.97863 0
M  V30 7639 C 708.133 1.61049 -1.05267 0
M  V30 7640 O 707.426 1.9138 -0.0917908 0
M  V30 7641 C 707.62 1.00441 -3.42996 0
M  V30 7642 C 707.449 -0.081524 -4.49626 0
M  V30 7643 C 706.219 -0.530242 -5.0251 0
M  V30 7644 C 708.417 -0.880897 -5.067 0
M  V30 7645 N 706.399 -1.59678 -5.9277 0
M  V30 7646 C 707.77 -1.79742 -5.93374 0
M  V30 7647 C 709.825 -0.92629 -4.89208 0
M  V30 7648 C 708.528 -2.7555 -6.64428 0
M  V30 7649 C 710.554 -1.8723 -5.6098 0
M  V30 7650 C 709.916 -2.77631 -6.4738 0
M  V30 7651 H 706.015 0.140671 -0.769244 0
M  V30 7652 H 708.599 -0.268084 -1.92846 0
M  V30 7653 H 706.77 1.71339 -3.48565 0
M  V30 7654 H 708.502 1.61269 -3.7118 0
M  V30 7655 H 705.257 -0.12847 -4.73426 0
M  V30 7656 H 705.681 -2.13045 -6.42605 0
M  V30 7657 H 710.323 -0.241412 -4.2211 0
M  V30 7658 H 708.041 -3.45027 -7.30741 0
M  V30 7659 H 711.627 -1.91349 -5.49433 0
M  V30 7660 H 710.507 -3.4964 -7.01941 0
M  V30 7661 N 708.01 1.57248 0.105221 0
M  V30 7662 C 708.957 2.01338 1.12835 0
M  V30 7663 C 709.927 0.887897 1.40377 0
M  V30 7664 O 711.112 1.15315 1.5201 0
M  V30 7665 C 708.252 2.43432 2.44611 0
M  V30 7666 C 707.365 3.69457 2.23888 0
M  V30 7667 C 706.5 4.00473 3.48991 0
M  V30 7668 C 705.539 5.19638 3.23485 0
M  V30 7669 N 704.676 5.46457 4.40828 0
M  V30 7670 H 709.516 2.88527 0.745386 0
M  V30 7671 H 707.053 1.42714 0.356535 0
M  V30 7672 H 709.011 2.65879 3.21503 0
M  V30 7673 H 707.641 1.59266 2.80774 0
M  V30 7674 H 706.693 3.54545 1.37847 0
M  V30 7675 H 708.005 4.56497 2.01026 0
M  V30 7676 H 707.159 4.23642 4.34295 0
M  V30 7677 H 705.898 3.11935 3.74897 0
M  V30 7678 H 704.903 4.96299 2.36574 0
M  V30 7679 H 706.128 6.09766 2.98935 0
M  V30 7680 H 704.074 4.60876 4.66829 0
M  V30 7681 H 703.991 6.27849 4.2112 0
M  V30 7682 H 705.259 5.74155 5.27225 0
M  V30 7683 N 709.488 -0.375779 1.53054 0
M  V30 7684 C 710.398 -1.48381 1.81715 0
M  V30 7685 C 711.414 -1.59087 0.704795 0
M  V30 7686 O 712.59 -1.75174 0.993785 0
M  V30 7687 C 709.655 -2.83767 1.99192 0
M  V30 7688 C 708.716 -2.82673 3.23102 0
M  V30 7689 C 707.949 -4.11601 3.39736 0
M  V30 7690 O 708.172 -5.07243 2.60885 0
M  V30 7691 O 707.106 -4.18034 4.33049 0
M  V30 7692 H 710.932 -1.27089 2.7583 0
M  V30 7693 H 708.517 -0.564902 1.38308 0
M  V30 7694 H 710.399 -3.64004 2.12318 0
M  V30 7695 H 709.074 -3.05057 1.08267 0
M  V30 7696 H 707.981 -2.0117 3.15407 0
M  V30 7697 H 709.314 -2.66335 4.13916 0
M  V30 7698 N 710.966 -1.44241 -0.634997 0
M  V30 7699 C 711.898 -1.46793 -1.76024 0
M  V30 7700 C 712.911 -0.361781 -1.58729 0
M  V30 7701 O 714.1 -0.627297 -1.67114 0
M  V30 7702 C 711.2 -1.28248 -3.13697 0
M  V30 7703 C 710.373 -2.52038 -3.57485 0
M  V30 7704 C 709.432 -2.2845 -4.74022 0
M  V30 7705 O 708.458 -3.01915 -4.82531 0
M  V30 7706 N 709.66 -1.31264 -5.65464 0
M  V30 7707 H 712.425 -2.43797 -1.74307 0
M  V30 7708 H 709.986 -1.39631 -0.819438 0
M  V30 7709 H 711.978 -1.10321 -3.89373 0
M  V30 7710 H 710.548 -0.39623 -3.10079 0
M  V30 7711 H 709.768 -2.85268 -2.72059 0
M  V30 7712 H 711.056 -3.34382 -3.83492 0
M  V30 7713 H 710.454 -0.705817 -5.6128 0
M  V30 7714 H 709.011 -1.19316 -6.40786 0
M  V30 7715 N 712.444 0.87505 -1.31075 0
M  V30 7716 C 713.669 1.66583 -1.23551 0
M  V30 7717 C 714.094 1.87067 0.19686 0
M  V30 7718 O 713.452 1.40877 1.1412 0
M  V30 7719 C 713.5 3.01401 -1.97965 0
M  V30 7720 O 712.604 3.90923 -1.31351 0
M  V30 7721 H 711.945 0.508645 -0.426821 0
M  V30 7722 H 714.475 1.09139 -1.7306 0
M  V30 7723 H 714.485 3.51374 -2.07366 0
M  V30 7724 H 713.16 2.85812 -3.02133 0
M  V30 7725 H 711.737 3.49369 -1.30368 0
M  V30 7726 N 713.922 1.13953 1.08869 0
M  V30 7727 C 714.869 0.82213 2.15661 0
M  V30 7728 C 715.839 -0.218274 1.6466 0
M  V30 7729 O 717.024 -0.0892475 1.90591 0
M  V30 7730 C 714.164 0.300572 3.43789 0
M  V30 7731 C 713.277 1.40071 4.08661 0
M  V30 7732 C 712.412 0.836897 5.24566 0
M  V30 7733 C 711.451 1.91504 5.81371 0
M  V30 7734 N 710.588 1.36875 6.88629 0
M  V30 7735 H 715.428 1.73683 2.42153 0
M  V30 7736 H 712.965 0.866879 1.18843 0
M  V30 7737 H 714.923 -0.0199943 4.17195 0
M  V30 7738 H 713.553 -0.577248 3.17597 0
M  V30 7739 H 712.605 1.83776 3.33062 0
M  V30 7740 H 713.917 2.21534 4.46905 0
M  V30 7741 H 713.071 0.467953 6.04893 0
M  V30 7742 H 711.81 -0.00874207 4.87699 0
M  V30 7743 H 710.815 2.29299 4.99702 0
M  V30 7744 H 712.04 2.76419 6.20298 0
M  V30 7745 H 709.986 0.545211 6.5373 0
M  V30 7746 H 709.903 2.1198 7.25672 0
M  V30 7747 H 711.171 1.02756 7.72698 0
M  V30 7748 N 715.4 -1.26948 0.933913 0
M  V30 7749 C 716.31 -2.30366 0.443671 0
M  V30 7750 C 717.326 -1.67284 -0.478745 0
M  V30 7751 O 718.502 -1.98156 -0.360043 0
M  V30 7752 C 715.567 -3.45485 -0.289974 0
M  V30 7753 C 714.628 -4.24069 0.668114 0
M  V30 7754 C 713.861 -5.33691 -0.0306138 0
M  V30 7755 O 714.084 -5.5656 -1.24888 0
M  V30 7756 O 713.018 -5.98441 0.644384 0
M  V30 7757 H 716.844 -2.74349 1.30254 0
M  V30 7758 H 714.429 -1.32012 0.699506 0
M  V30 7759 H 716.311 -4.15486 -0.70353 0
M  V30 7760 H 714.986 -3.03546 -1.12435 0
M  V30 7761 H 713.893 -3.56579 1.13147 0
M  V30 7762 H 715.226 -4.69739 1.46989 0
M  V30 7763 N 716.879 -0.700114 -1.41195 0
M  V30 7764 C 717.826 -0.0376652 -2.30769 0
M  V30 7765 C 718.796 0.766544 -1.47354 0
M  V30 7766 O 719.981 0.73365 -1.76131 0
M  V30 7767 C 717.121 0.889452 -3.33441 0
M  V30 7768 C 716.234 0.076373 -4.31932 0
M  V30 7769 C 715.369 1.00155 -5.21673 0
M  V30 7770 C 714.408 0.181644 -6.1183 0
M  V30 7771 N 713.545 1.06087 -6.94039 0
M  V30 7772 H 718.385 -0.80726 -2.86858 0
M  V30 7773 H 715.922 -0.409798 -1.41277 0
M  V30 7774 H 717.88 1.44107 -3.91522 0
M  V30 7775 H 716.51 1.6254 -2.78892 0
M  V30 7776 H 715.562 -0.592223 -3.75762 0
M  V30 7777 H 716.874 -0.559076 -4.95657 0
M  V30 7778 H 716.028 1.62223 -5.8461 0
M  V30 7779 H 714.767 1.67085 -4.58186 0
M  V30 7780 H 713.772 -0.452085 -5.47938 0
M  V30 7781 H 714.997 -0.483925 -6.77374 0
M  V30 7782 H 712.943 1.7161 -6.33156 0
M  V30 7783 H 712.86 0.481094 -7.54468 0
M  V30 7784 H 714.128 1.66822 -7.6144 0
M  V30 7785 N 718.357 1.51182 -0.445186 0
M  V30 7786 C 719.582 2.07056 0.119445 0
M  V30 7787 C 720.007 1.30966 1.35016 0
M  V30 7788 O 719.365 0.349827 1.77893 0
M  V30 7789 C 719.413 3.58234 0.412428 0
M  V30 7790 O 718.517 3.84249 1.49754 0
M  V30 7791 H 717.858 0.663998 -0.00157797 0
M  V30 7792 H 720.388 1.94699 -0.628779 0
M  V30 7793 H 720.398 4.02617 0.660583 0
M  V30 7794 H 719.073 4.13038 -0.487049 0
M  V30 7795 H 717.65 3.51724 1.23873 0
M  V30 7796 N 719.835 0.176821 1.56605 0
M  V30 7797 C 721.112 -0.513365 1.88743 0
M  V30 7798 C 721.492 -1.80929 1.08757 0
M  V30 7799 O 720.84 -2.27765 0.183127 0
M  V30 7800 C 721.05 -0.749925 3.40848 0
M  V30 7801 C 722.398 -1.07747 4.10701 0
M  V30 7802 O 723.422 -0.838277 3.46196 0
M  V30 7803 O 722.281 -1.52901 5.24675 0
M  V30 7804 H 719.375 -0.265296 0.783292 0
M  V30 7805 H 721.921 0.215669 1.68324 0
M  V30 7806 H 720.693 0.16599 3.90948 0
M  V30 7807 H 720.316 -1.53208 3.66897 0
M  V30 7808 N 721.313 -1.57302 -0.09688 0
M  V30 7809 C 722.26 -2.01933 -1.11766 0
M  V30 7810 C 723.23 -0.895329 -1.39904 0
M  V30 7811 O 724.415 -1.16119 -1.51397 0
M  V30 7812 C 721.555 -2.44726 -2.43317 0
M  V30 7813 C 720.668 -3.70639 -2.21925 0
M  V30 7814 C 719.803 -4.02318 -3.46862 0
M  V30 7815 C 718.842 -5.21346 -3.20725 0
M  V30 7816 N 717.979 -5.48787 -4.37924 0
M  V30 7817 H 722.819 -2.88919 -0.730075 0
M  V30 7818 H 720.356 -1.42901 -0.348962 0
M  V30 7819 H 722.314 -2.6758 -3.20088 0
M  V30 7820 H 720.944 -1.60753 -2.79926 0
M  V30 7821 H 719.996 -3.55271 -1.35965 0
M  V30 7822 H 721.308 -4.57557 -1.98603 0
M  V30 7823 H 720.462 -4.25939 -4.32042 0
M  V30 7824 H 719.201 -3.13918 -3.73238 0
M  V30 7825 H 718.206 -4.97547 -2.33938 0
M  V30 7826 H 719.431 -6.11343 -2.95697 0
M  V30 7827 H 717.377 -4.63346 -4.64378 0
M  V30 7828 H 717.294 -6.30073 -4.17785 0
M  V30 7829 H 718.562 -5.76943 -5.24173 0
M  V30 7830 N 722.791 0.367657 -1.53252 0
M  V30 7831 C 723.738 1.45028 -1.79543 0
M  V30 7832 C 724.708 1.53288 -0.63969 0
M  V30 7833 O 725.893 1.69209 -0.881653 0
M  V30 7834 C 723.033 2.82 -1.98923 0
M  V30 7835 C 722.146 2.82722 -3.26638 0
M  V30 7836 C 721.281 4.11257 -3.36216 0
M  V30 7837 C 720.32 4.06113 -4.57972 0
M  V30 7838 N 719.457 5.26293 -4.64715 0
M  V30 7839 H 724.297 1.21908 -2.71923 0
M  V30 7840 H 721.834 0.591011 -1.34705 0
M  V30 7841 H 723.792 3.61568 -2.08146 0
M  V30 7842 H 722.422 3.03523 -1.09881 0
M  V30 7843 H 721.474 1.95399 -3.26379 0
M  V30 7844 H 722.786 2.74794 -4.16281 0
M  V30 7845 H 721.94 4.99239 -3.44739 0
M  V30 7846 H 720.679 4.21935 -2.44586 0
M  V30 7847 H 719.684 3.16517 -4.49552 0
M  V30 7848 H 720.909 3.97039 -5.50942 0
M  V30 7849 H 718.855 5.37561 -3.75985 0
M  V30 7850 H 718.772 5.20526 -5.4826 0
M  V30 7851 H 720.04 6.16113 -4.77519 0
M  V30 7852 N 724.269 1.44576 0.627338 0
M  V30 7853 C 725.517 1.47267 1.38408 0
M  V30 7854 C 725.838 0.107971 1.94701 0
M  V30 7855 O 725.108 -0.860206 1.76004 0
M  V30 7856 H 723.688 0.542276 0.513756 0
M  V30 7857 H 726.35 1.80383 0.738099 0
M  V30 7858 H 725.446 2.20025 2.21349 0
M  V30 7859 N 725.747 -0.868086 1.31537 0
M  V30 7860 C 726.694 -1.97548 1.19346 0
M  V30 7861 C 727.664 -1.65913 0.0787922 0
M  V30 7862 O 728.849 -1.89129 0.251985 0
M  V30 7863 C 725.989 -3.32922 0.908692 0
M  V30 7864 C 725.102 -3.77141 2.10687 0
M  V30 7865 C 724.237 -5.01241 1.75873 0
M  V30 7866 C 723.276 -5.37914 2.92088 0
M  V30 7867 N 722.413 -6.53192 2.57457 0
M  V30 7868 H 727.253 -2.07307 2.14074 0
M  V30 7869 H 724.79 -1.01483 1.06487 0
M  V30 7870 H 726.748 -4.10867 0.724138 0
M  V30 7871 H 725.378 -3.228 -0.0017611 0
M  V30 7872 H 724.43 -2.94961 2.40213 0
M  V30 7873 H 725.742 -4.00248 2.97663 0
M  V30 7874 H 724.896 -5.86858 1.53891 0
M  V30 7875 H 723.635 -4.80041 0.86091 0
M  V30 7876 H 722.64 -4.50814 3.14717 0
M  V30 7877 H 723.865 -5.61077 3.82582 0
M  V30 7878 H 721.811 -6.33536 1.702 0
M  V30 7879 H 721.728 -6.76252 3.37963 0
M  V30 7880 H 722.996 -7.41997 2.38873 0
M  V30 7881 N 727.225 -1.14528 -1.08264 0
M  V30 7882 C 728.45 -0.938381 -1.84957 0
M  V30 7883 C 728.875 0.508044 -1.81109 0
M  V30 7884 O 728.233 1.36146 -1.19724 0
M  V30 7885 C 728.281 -1.44568 -3.30352 0
M  V30 7886 O 727.385 -0.638745 -4.07423 0
M  V30 7887 H 726.726 -0.335394 -0.573068 0
M  V30 7888 H 729.256 -1.52287 -1.36637 0
M  V30 7889 H 729.266 -1.45449 -3.81194 0
M  V30 7890 H 727.941 -2.49876 -3.32468 0
M  V30 7891 H 726.518 -0.698801 -3.66294 0
M  V30 7892 N 728.703 1.26451 -0.940633 0
M  V30 7893 C 729.65 2.264 -0.448497 0
M  V30 7894 C 730.62 1.5866 0.491546 0
M  V30 7895 O 731.805 1.86389 0.407874 0
M  V30 7896 C 728.945 3.43956 0.280715 0
M  V30 7897 C 728.058 4.26374 -0.694937 0
M  V30 7898 C 727.193 5.31171 0.0554186 0
M  V30 7899 C 726.232 6.05266 -0.912091 0
M  V30 7900 N 725.369 7.01833 -0.193524 0
M  V30 7901 H 730.209 2.67869 -1.30576 0
M  V30 7902 H 727.746 1.31707 -0.655112 0
M  V30 7903 H 729.704 4.10941 0.71994 0
M  V30 7904 H 728.334 3.03403 1.10212 0
M  V30 7905 H 727.386 3.59183 -1.25267 0
M  V30 7906 H 728.698 4.77748 -1.43382 0
M  V30 7907 H 727.852 6.04166 0.553951 0
M  V30 7908 H 726.591 4.80634 0.827183 0
M  V30 7909 H 725.596 5.31099 -1.42175 0
M  V30 7910 H 726.821 6.57893 -1.68385 0
M  V30 7911 H 724.767 6.53607 0.559758 0
M  V30 7912 H 724.684 7.50957 -0.871744 0
M  V30 7913 H 725.952 7.78983 0.283932 0
M  V30 7914 N 730.181 0.707592 1.40822 0
M  V30 7915 C 731.421 0.247986 2.0289 0
M  V30 7916 C 731.785 -1.13484 1.54872 0
M  V30 7917 O 732.986 -1.69098 2.08948 0
M  V30 7918 C 731.257 0.316326 3.55997 0
M  V30 7919 S 732.816 -0.0674698 4.38748 0
M  V30 7920 H 729.634 0.09895 0.704081 0
M  V30 7921 H 732.236 0.928039 1.72069 0
M  V30 7922 H 730.94 1.32453 3.88438 0
M  V30 7923 H 730.471 -0.382474 3.91536 0
M  V30 7924 H 732.486 -1.29182 4.79089 0
M  V30 7925 N 731.66 -1.50943 0.453197 0
M  V30 7926 C 732.57 -2.31884 -0.355963 0
M  V30 7927 C 733.586 -1.41481 -1.01287 0
M  V30 7928 O 734.762 -1.74546 -1.00477 0
M  V30 7929 C 731.827 -3.15668 -1.43369 0
M  V30 7930 C 730.888 -4.2187 -0.795253 0
M  V30 7931 C 730.121 -5.0165 -1.82162 0
M  V30 7932 O 730.344 -4.82266 -3.04592 0
M  V30 7933 O 729.278 -5.85311 -1.40336 0
M  V30 7934 H 733.104 -3.02162 0.305248 0
M  V30 7935 H 730.689 -1.47839 0.215398 0
M  V30 7936 H 732.571 -3.67709 -2.05836 0
M  V30 7937 H 731.246 -2.48137 -2.07869 0
M  V30 7938 H 730.153 -3.73867 -0.132106 0
M  V30 7939 H 731.486 -4.9182 -0.193484 0
M  V30 7940 N 733.138 -0.185124 -1.56509 0
M  V30 7941 C 734.554 0.170865 -1.58683 0
M  V30 7942 C 734.754 1.61799 -1.20098 0
M  V30 7943 O 733.81 2.35181 -0.919038 0
M  V30 7944 C 735.123 -0.122459 -3.00451 0
M  V30 7945 C 736.671 -0.0617699 -3.12939 0
M  V30 7946 C 737.146 -0.328269 -4.56822 0
M  V30 7947 N 738.637 -0.276533 -4.62374 0
M  V30 7948 C 739.372 -0.456722 -5.71578 0
M  V30 7949 N 738.868 -0.69672 -6.89288 0
M  V30 7950 N 740.661 -0.391669 -5.60734 0
M  V30 7951 H 732.812 -1.12956 -1.79874 0
M  V30 7952 H 735.075 -0.45011 -0.834329 0
M  V30 7953 H 734.781 -1.12546 -3.33206 0
M  V30 7954 H 734.655 0.579578 -3.72721 0
M  V30 7955 H 737.042 0.931826 -2.80002 0
M  V30 7956 H 737.123 -0.796732 -2.43076 0
M  V30 7957 H 736.767 -1.31914 -4.9047 0
M  V30 7958 H 736.697 0.427465 -5.24862 0
M  V30 7959 H 739.188 -0.0972458 -3.77775 0
M  V30 7960 H 739.501 -0.823291 -7.68402 0
M  V30 7961 H 737.846 -0.733497 -6.91119 0
M  V30 7962 H 741.037 -0.204663 -4.67652 0
M  V30 7963 H 741.21 -0.535518 -6.45783 0
M  V30 7964 N 734.616 1.57351 0.0885366 0
M  V30 7965 C 735.564 2.03542 1.12576 0
M  V30 7966 C 736.558 0.937668 1.41082 0
M  V30 7967 O 737.764 1.12283 1.40686 0
M  V30 7968 H 734.139 0.648752 0.380296 0
M  V30 7969 H 736.11 2.89833 0.709906 0
M  V30 7970 C 734.859 2.4811 2.43591 0
M  V30 7971 H 734.182 3.32164 2.22502 0
M  V30 7972 H 735.622 2.842 3.14653 0
M  V30 7973 C 734.081 1.35708 3.08359 0
M  V30 7974 O 734.611 0.689852 3.95732 0
M  V30 7975 N 732.817 1.10641 2.68713 0
M  V30 7976 H 732.364 1.6508 1.97753 0
M  V30 7977 H 732.322 0.356355 3.12374 0
M  V30 7978 N 736.094 -0.359525 1.53444 0
M  V30 7979 C 737.342 -1.09935 1.69584 0
M  V30 7980 C 737.663 -1.89656 0.453371 0
M  V30 7981 O 736.933 -1.8852 -0.53263 0
M  V30 7982 H 735.513 -0.408843 0.625185 0
M  V30 7983 H 738.175 -0.40467 1.90653 0
M  V30 7984 H 737.271 -1.78575 2.55964 0
M  V30 7985 N 737.572 -1.44907 -0.619662 0
M  V30 7986 C 738.502 -1.55488 -1.742 0
M  V30 7987 C 739.483 -0.407143 -1.65156 0
M  V30 7988 O 740.668 -0.628743 -1.8374 0
M  V30 7989 C 737.798 -1.5097 -3.1277 0
M  V30 7990 C 736.752 -2.64337 -3.36615 0
M  V30 7991 C 736.078 -2.44872 -4.75333 0
M  V30 7992 C 737.378 -4.06423 -3.28051 0
M  V30 7993 H 739.072 -2.49432 -1.65602 0
M  V30 7994 H 736.618 -1.20047 -0.795281 0
M  V30 7995 H 738.571 -1.56971 -3.91073 0
M  V30 7996 H 737.295 -0.535486 -3.2218 0
M  V30 7997 H 735.954 -2.57744 -2.60698 0
M  V30 7998 H 735.602 -1.45617 -4.81461 0
M  V30 7999 H 735.302 -3.20888 -4.92244 0
M  V30 8000 H 736.826 -2.52709 -5.55851 0
M  V30 8001 H 738.24 -4.14324 -3.96243 0
M  V30 8002 H 736.637 -4.82733 -3.56495 0
M  V30 8003 H 737.707 -4.29183 -2.25676 0
M  V30 8004 N 739.05 0.861098 -1.31996 0
M  V30 8005 C 740.296 1.61721 -1.22369 0
M  V30 8006 C 740.629 1.93 0.215587 0
M  V30 8007 O 739.904 1.56789 1.15098 0
M  V30 8008 C 740.187 2.9417 -2.07691 0
M  V30 8009 C 740.04 2.69714 -3.59965 0
M  V30 8010 C 741.359 3.95372 -1.93312 0
M  V30 8011 H 738.478 0.586822 -0.44588 0
M  V30 8012 H 741.12 0.994788 -1.61876 0
M  V30 8013 H 739.27 3.47292 -1.74128 0
M  V30 8014 H 740.942 2.23196 -4.03709 0
M  V30 8015 H 739.185 2.03789 -3.82952 0
M  V30 8016 H 739.856 3.63996 -4.14983 0
M  V30 8017 H 742.332 3.51487 -2.22701 0
M  V30 8018 H 741.208 4.85916 -2.55298 0
M  V30 8019 H 741.469 4.32865 -0.898922 0
M  V30 8020 N 740.528 1.15101 1.07655 0
M  V30 8021 C 741.475 0.844958 2.14777 0
M  V30 8022 C 742.445 -0.200798 1.64882 0
M  V30 8023 O 743.63 -0.0690278 1.90675 0
M  V30 8024 C 740.77 0.337018 3.4345 0
M  V30 8025 C 739.883 1.44398 4.07153 0
M  V30 8026 C 739.018 0.892487 5.23649 0
M  V30 8027 C 738.057 1.9766 5.79307 0
M  V30 8028 N 737.194 1.44171 6.87138 0
M  V30 8029 H 742.034 1.76242 2.40297 0
M  V30 8030 H 739.571 0.879435 1.17917 0
M  V30 8031 H 741.529 0.024256 4.17193 0
M  V30 8032 H 740.159 -0.543531 3.18191 0
M  V30 8033 H 739.211 1.87299 3.31094 0
M  V30 8034 H 740.523 2.26262 4.4453 0
M  V30 8035 H 739.677 0.532083 6.04362 0
M  V30 8036 H 738.416 0.0429854 4.87681 0
M  V30 8037 H 737.421 2.34586 4.97242 0
M  V30 8038 H 738.646 2.82982 6.17331 0
M  V30 8039 H 736.592 0.614518 6.53115 0
M  V30 8040 H 736.509 2.19665 7.23383 0
M  V30 8041 H 737.777 1.10945 7.71564 0
M  V30 8042 N 742.006 -1.2595 0.947325 0
M  V30 8043 C 742.969 -2.24407 0.466285 0
M  V30 8044 C 743.969 -1.55054 -0.426005 0
M  V30 8045 O 745.159 -1.7275 -0.224319 0
M  V30 8046 C 742.291 -3.39326 -0.327201 0
M  V30 8047 H 743.484 -2.68477 1.33642 0
M  V30 8048 H 741.037 -1.38211 0.729887 0
M  V30 8049 H 741.772 -3.00667 -1.21532 0
M  V30 8050 H 741.557 -3.9085 0.312839 0
M  V30 8051 H 743.047 -4.12455 -0.653477 0
M  V30 8052 N 743.484 -0.715051 -1.40445 0
M  V30 8053 C 744.416 -0.0227516 -2.29189 0
M  V30 8054 C 745.429 0.724313 -1.458 0
M  V30 8055 O 746.618 0.571781 -1.69094 0
M  V30 8056 C 743.718 0.992038 -3.24055 0
M  V30 8057 C 742.891 0.310613 -4.36296 0
M  V30 8058 C 741.95 1.23071 -5.11605 0
M  V30 8059 O 740.976 0.71571 -5.64682 0
M  V30 8060 N 742.178 2.56188 -5.2091 0
M  V30 8061 H 744.943 -0.78473 -2.89244 0
M  V30 8062 H 742.504 -0.562637 -1.51809 0
M  V30 8063 H 744.496 1.60973 -3.71308 0
M  V30 8064 H 743.066 1.65538 -2.65171 0
M  V30 8065 H 742.286 -0.487269 -3.91177 0
M  V30 8066 H 743.574 -0.162415 -5.08541 0
M  V30 8067 H 742.972 3.00527 -4.7927 0
M  V30 8068 H 741.529 3.13103 -5.71673 0
M  V30 8069 N 744.962 1.50701 -0.461195 0
M  V30 8070 C 746.211 2.01458 0.0988277 0
M  V30 8071 C 746.524 1.34863 1.41673 0
M  V30 8072 O 747.73 1.76721 2.06111 0
M  V30 8073 C 746.186 3.59186 0.226648 0
M  V30 8074 C 745.794 4.34732 -1.08223 0
M  V30 8075 C 747.538 4.18015 0.73916 0
M  V30 8076 C 745.445 5.8422 -0.918747 0
M  V30 8077 H 744.375 0.7529 0.040709 0
M  V30 8078 H 747.026 1.736 -0.594589 0
M  V30 8079 H 745.408 3.83589 0.983621 0
M  V30 8080 H 746.582 4.22059 -1.84939 0
M  V30 8081 H 744.897 3.87466 -1.52509 0
M  V30 8082 H 747.494 5.27436 0.878347 0
M  V30 8083 H 747.837 3.78746 1.72793 0
M  V30 8084 H 748.37 3.9778 0.0398469 0
M  V30 8085 H 745.109 6.27944 -1.88059 0
M  V30 8086 H 744.629 5.99493 -0.191801 0
M  V30 8087 H 746.308 6.44382 -0.581405 0
M  V30 8088 N 746.441 0.193421 1.56409 0
M  V30 8089 C 747.404 -0.714371 2.17783 0
M  V30 8090 C 748.404 -1.1422 1.13183 0
M  V30 8091 O 749.594 -1.05557 1.38576 0
M  V30 8092 C 746.726 -1.97509 2.77855 0
M  V30 8093 H 747.919 -0.179714 2.99361 0
M  V30 8094 H 745.472 -0.0561944 1.56199 0
M  V30 8095 H 746.207 -2.5523 2.0007 0
M  V30 8096 H 745.992 -1.67706 3.54425 0
M  V30 8097 H 747.482 -2.62246 3.24987 0
M  V30 8098 N 747.919 -1.57396 -0.0801906 0
M  V30 8099 C 748.849 -2.06145 -1.09665 0
M  V30 8100 C 749.83 -0.953273 -1.40878 0
M  V30 8101 O 751.015 -1.22548 -1.50651 0
M  V30 8102 C 748.145 -2.49836 -2.41245 0
M  V30 8103 C 747.099 -3.64454 -2.24405 0
M  V30 8104 C 746.425 -3.94172 -3.61293 0
M  V30 8105 C 747.725 -4.94807 -1.67223 0
M  V30 8106 H 749.419 -2.91316 -0.691028 0
M  V30 8107 H 746.965 -1.40145 -0.330957 0
M  V30 8108 H 748.918 -2.82552 -3.12638 0
M  V30 8109 H 747.642 -1.61683 -2.83771 0
M  V30 8110 H 746.301 -3.32008 -1.55454 0
M  V30 8111 H 745.949 -3.03163 -4.01374 0
M  V30 8112 H 745.649 -4.71345 -3.50867 0
M  V30 8113 H 747.173 -4.29376 -4.3413 0
M  V30 8114 H 748.587 -5.25807 -2.28472 0
M  V30 8115 H 746.984 -5.76245 -1.67515 0
M  V30 8116 H 748.054 -4.80751 -0.632944 0
M  V30 8117 N 749.397 0.351382 -1.53633 0
M  V30 8118 C 750.307 1.45471 -1.84052 0
M  V30 8119 C 751.323 1.57945 -0.730015 0
M  V30 8120 O 752.499 1.73571 -1.02153 0
M  V30 8121 C 749.564 2.80562 -2.03681 0
M  V30 8122 C 748.625 2.77497 -3.27558 0
M  V30 8123 C 747.858 4.06144 -3.46241 0
M  V30 8124 O 748.081 5.03028 -2.68922 0
M  V30 8125 O 747.015 4.11092 -4.39645 0
M  V30 8126 H 750.841 1.22684 -2.77817 0
M  V30 8127 H 748.426 0.542827 -1.3919 0
M  V30 8128 H 750.308 3.6058 -2.18082 0
M  V30 8129 H 748.983 3.03296 -1.13106 0
M  V30 8130 H 747.89 1.96126 -3.18568 0
M  V30 8131 H 749.223 2.59716 -4.18101 0
M  V30 8132 N 750.875 1.45233 0.611969 0
M  V30 8133 C 751.785 1.56098 1.7513 0
M  V30 8134 C 752.801 0.445646 1.68196 0
M  V30 8135 O 753.977 0.705718 1.88631 0
M  V30 8136 C 751.042 1.52052 3.11579 0
M  V30 8137 C 750.103 2.74589 3.29999 0
M  V30 8138 C 749.336 2.70726 4.59938 0
M  V30 8139 O 749.559 1.77806 5.41979 0
M  V30 8140 O 748.493 3.61864 4.80976 0
M  V30 8141 H 752.319 2.52392 1.68914 0
M  V30 8142 H 749.904 1.27695 0.775528 0
M  V30 8143 H 751.786 1.52387 3.92882 0
M  V30 8144 H 750.461 0.589085 3.18295 0
M  V30 8145 H 749.368 2.79817 2.48301 0
M  V30 8146 H 750.701 3.66843 3.28157 0
M  V30 8147 N 752.353 -0.854086 1.3245 0
M  V30 8148 C 753.316 -1.94427 1.21371 0
M  V30 8149 C 754.316 -1.60219 0.136613 0
M  V30 8150 O 755.506 -1.69846 0.387057 0
M  V30 8151 C 752.638 -3.29698 0.866701 0
M  V30 8152 H 753.831 -2.05679 2.18257 0
M  V30 8153 H 751.384 -1.04434 1.1629 0
M  V30 8154 H 752.119 -3.24145 -0.100319 0
M  V30 8155 H 751.904 -3.55903 1.64545 0
M  V30 8156 H 753.394 -4.09599 0.813515 0
M  V30 8157 N 753.831 -1.1567 -1.07043 0
M  V30 8158 C 755.056 -0.957946 -1.83952 0
M  V30 8159 C 755.481 0.488807 -1.81638 0
M  V30 8160 O 754.839 1.34869 -1.21162 0
M  V30 8161 C 754.887 -1.48064 -3.288 0
M  V30 8162 O 753.991 -0.681921 -4.06723 0
M  V30 8163 H 753.332 -0.341453 -0.569479 0
M  V30 8164 H 755.862 -1.53728 -1.35015 0
M  V30 8165 H 755.872 -1.49484 -3.7963 0
M  V30 8166 H 754.547 -2.53388 -3.29799 0
M  V30 8167 H 753.124 -0.737612 -3.65532 0
M  V30 8168 N 755.309 1.25446 -0.953992 0
M  V30 8169 C 756.241 2.25111 -0.431004 0
M  V30 8170 C 757.254 1.56377 0.452764 0
M  V30 8171 O 758.443 1.76579 0.261144 0
M  V30 8172 C 755.543 3.3655 0.39839 0
M  V30 8173 C 754.716 4.34843 -0.472229 0
M  V30 8174 C 753.775 5.25351 0.29886 0
M  V30 8175 O 752.801 5.68396 -0.302522 0
M  V30 8176 N 754.003 5.5824 1.59211 0
M  V30 8177 H 756.768 2.70619 -1.28785 0
M  V30 8178 H 754.329 1.39346 -0.824281 0
M  V30 8179 H 756.321 3.94059 0.921941 0
M  V30 8180 H 754.891 2.90436 1.15609 0
M  V30 8181 H 754.111 3.76222 -1.17689 0
M  V30 8182 H 755.399 4.97497 -1.06648 0
M  V30 8183 H 754.797 5.25172 2.10264 0
M  V30 8184 H 753.354 6.18336 2.06164 0
M  V30 8185 N 756.787 0.722489 1.40064 0
M  V30 8186 C 757.719 0.0349057 2.29173 0
M  V30 8187 C 758.732 -0.716571 1.46182 0
M  V30 8188 O 759.921 -0.562806 1.69395 0
M  V30 8189 C 757.021 -0.974839 3.24577 0
M  V30 8190 C 756.194 -0.287471 4.36454 0
M  V30 8191 C 755.253 -1.20356 5.12251 0
M  V30 8192 O 754.279 -0.685753 5.65054 0
M  V30 8193 N 755.481 -2.53422 5.22262 0
M  V30 8194 H 758.246 0.800058 2.88824 0
M  V30 8195 H 755.807 0.57068 1.51509 0
M  V30 8196 H 757.799 -1.59002 3.72157 0
M  V30 8197 H 756.369 -1.6413 2.66046 0
M  V30 8198 H 755.589 0.508008 3.90913 0
M  V30 8199 H 756.877 0.189382 5.08447 0
M  V30 8200 H 756.275 -2.97981 4.80857 0
M  V30 8201 H 754.832 -3.10067 5.73325 0
M  V30 8202 N 758.265 -1.50454 0.469181 0
M  V30 8203 C 759.195 -2.31353 -0.31592 0
M  V30 8204 C 760.176 -1.38172 -0.992094 0
M  V30 8205 O 761.361 -1.67093 -0.989633 0
M  V30 8206 C 758.491 -3.1786 -1.39937 0
M  V30 8207 C 757.445 -4.19578 -0.844909 0
M  V30 8208 C 756.771 -4.9481 -2.0265 0
M  V30 8209 C 758.071 -5.22106 0.142499 0
M  V30 8210 H 759.765 -2.97237 0.359269 0
M  V30 8211 H 757.311 -1.42942 0.174224 0
M  V30 8212 H 759.264 -3.7325 -1.95607 0
M  V30 8213 H 757.988 -2.49858 -2.1033 0
M  V30 8214 H 756.647 -3.65285 -0.310189 0
M  V30 8215 H 756.295 -4.23282 -2.71737 0
M  V30 8216 H 755.995 -5.63613 -1.66174 0
M  V30 8217 H 757.519 -5.53035 -2.58815 0
M  V30 8218 H 758.933 -5.72378 -0.324966 0
M  V30 8219 H 757.33 -5.98618 0.421441 0
M  V30 8220 H 758.4 -4.7297 1.06901 0
M  V30 8221 N 759.743 -0.201713 -1.56304 0
M  V30 8222 C 760.706 0.702811 -2.18159 0
M  V30 8223 C 761.706 1.13619 -1.13787 0
M  V30 8224 O 762.896 1.0482 -1.39134 0
M  V30 8225 C 760.028 1.96032 -2.78898 0
M  V30 8226 H 761.221 0.163836 -2.99452 0
M  V30 8227 H 758.774 0.04791 -1.56227 0
M  V30 8228 H 759.509 2.54165 -2.01421 0
M  V30 8229 H 759.294 1.65824 -3.55309 0
M  V30 8230 H 760.784 2.60519 -3.26373 0
M  V30 8231 N 761.222 1.57436 0.0718424 0
M  V30 8232 C 762.47 1.86878 0.769484 0
M  V30 8233 C 762.791 0.7937 1.78116 0
M  V30 8234 O 762.061 -0.177642 1.95093 0
M  V30 8235 H 760.641 0.689593 0.287177 0
M  V30 8236 H 763.303 1.94841 0.0479427 0
M  V30 8237 H 762.399 2.84387 1.28572 0
M  V30 8238 N 762.7 -0.34323 1.53817 0
M  V30 8239 C 763.647 -1.42153 1.81827 0
M  V30 8240 C 764.617 -1.52251 0.663996 0
M  V30 8241 O 765.802 -1.67784 0.908461 0
M  V30 8242 C 762.942 -2.78799 2.03384 0
M  V30 8243 C 762.055 -2.7749 3.31094 0
M  V30 8244 C 761.19 -4.05856 3.42717 0
M  V30 8245 C 760.229 -3.98776 4.64375 0
M  V30 8246 N 759.366 -5.18833 4.73029 0
M  V30 8247 H 764.206 -1.17567 2.73829 0
M  V30 8248 H 761.743 -0.569506 1.35628 0
M  V30 8249 H 763.701 -3.58211 2.13872 0
M  V30 8250 H 762.331 -3.01736 1.14696 0
M  V30 8251 H 761.383 -1.90182 3.29446 0
M  V30 8252 H 762.695 -2.68137 4.206 0
M  V30 8253 H 761.849 -4.93691 3.52638 0
M  V30 8254 H 760.588 -4.1799 2.51267 0
M  V30 8255 H 759.593 -3.09325 4.5453 0
M  V30 8256 H 760.818 -3.88224 5.57189 0
M  V30 8257 H 758.764 -5.31511 3.84489 0
M  V30 8258 H 758.681 -5.11737 5.56472 0
M  V30 8259 H 759.949 -6.08439 4.87261 0
M  V30 8260 N 764.178 -1.45556 -0.604258 0
M  V30 8261 C 765.088 -1.57025 -1.74299 0
M  V30 8262 C 766.104 -0.45456 -1.67958 0
M  V30 8263 O 767.28 -0.715711 -1.88254 0
M  V30 8264 C 764.345 -1.53702 -3.10768 0
M  V30 8265 C 763.406 -2.76335 -3.28538 0
M  V30 8266 C 762.639 -2.73161 -4.58496 0
M  V30 8267 O 762.862 -1.80678 -5.41028 0
M  V30 8268 O 761.796 -3.64409 -4.79051 0
M  V30 8269 H 765.622 -2.53284 -1.67573 0
M  V30 8270 H 763.207 -1.28104 -0.768745 0
M  V30 8271 H 765.089 -1.54468 -3.92068 0
M  V30 8272 H 763.764 -0.605957 -3.17978 0
M  V30 8273 H 762.671 -2.8113 -2.46813 0
M  V30 8274 H 764.004 -3.68578 -3.26207 0
M  V30 8275 N 765.656 0.84705 -1.32902 0
M  V30 8276 C 767.072 1.13645 -1.12058 0
M  V30 8277 C 767.272 2.01281 0.093937 0
M  V30 8278 O 766.328 2.4026 0.776608 0
M  V30 8279 C 767.641 1.80644 -2.40392 0
M  V30 8280 C 769.189 1.93246 -2.46221 0
M  V30 8281 C 769.664 2.6366 -3.74496 0
M  V30 8282 N 771.155 2.71179 -3.75521 0
M  V30 8283 C 771.89 3.26332 -4.71482 0
M  V30 8284 N 771.386 3.82236 -5.77813 0
M  V30 8285 N 773.179 3.24507 -4.58968 0
M  V30 8286 H 765.33 0.263612 -2.10758 0
M  V30 8287 H 767.593 0.17944 -0.930863 0
M  V30 8288 H 767.299 1.23708 -3.29225 0
M  V30 8289 H 767.173 2.80736 -2.51926 0
M  V30 8290 H 769.56 2.49338 -1.57843 0
M  V30 8291 H 769.641 0.921272 -2.38634 0
M  V30 8292 H 769.285 2.08229 -4.63253 0
M  V30 8293 H 769.215 3.65234 -3.79357 0
M  V30 8294 H 771.706 2.31527 -2.9867 0
M  V30 8295 H 772.019 4.22499 -6.47082 0
M  V30 8296 H 770.364 3.80546 -5.81558 0
M  V30 8297 H 773.555 2.80085 -3.7506 0
M  V30 8298 H 773.728 3.67188 -5.33926 0
M  V30 8299 N 767.134 1.16236 1.06428 0
M  V30 8300 C 768.044 0.881976 2.1739 0
M  V30 8301 C 769.06 -0.145259 1.73393 0
M  V30 8302 O 770.236 0.0310558 2.01376 0
M  V30 8303 C 767.301 0.385496 3.4455 0
M  V30 8304 C 766.362 1.47779 4.03063 0
M  V30 8305 C 765.595 1.0049 5.24154 0
M  V30 8306 O 765.818 -0.145889 5.70213 0
M  V30 8307 O 764.752 1.79265 5.74585 0
M  V30 8308 H 768.578 1.80983 2.43883 0
M  V30 8309 H 766.163 0.942226 1.15942 0
M  V30 8310 H 768.045 0.115536 4.21242 0
M  V30 8311 H 766.72 -0.514369 3.19587 0
M  V30 8312 H 765.627 1.80147 3.27869 0
M  V30 8313 H 766.96 2.35291 4.32318 0
M  V30 8314 N 768.612 -1.24939 0.960631 0
M  V30 8315 C 769.559 -2.25658 0.484459 0
M  V30 8316 C 770.529 -1.59422 -0.466242 0
M  V30 8317 O 771.714 -1.87015 -0.378169 0
M  V30 8318 C 768.854 -3.44359 -0.225958 0
M  V30 8319 C 767.967 -4.25214 0.762682 0
M  V30 8320 C 767.102 -5.31192 0.0290931 0
M  V30 8321 C 766.141 -6.03739 1.00827 0
M  V30 8322 N 765.278 -7.01437 0.305155 0
M  V30 8323 H 770.118 -2.65758 1.34821 0
M  V30 8324 H 767.655 -1.30648 0.675983 0
M  V30 8325 H 769.613 -4.12035 -0.654472 0
M  V30 8326 H 768.243 -3.05118 -1.05371 0
M  V30 8327 H 767.295 -3.57144 1.30966 0
M  V30 8328 H 768.607 -4.75406 1.50964 0
M  V30 8329 H 767.761 -6.04971 -0.457763 0
M  V30 8330 H 766.5 -4.81889 -0.750614 0
M  V30 8331 H 765.505 -5.2877 1.50607 0
M  V30 8332 H 766.73 -6.55131 1.7883 0
M  V30 8333 H 764.676 -6.54415 -0.455704 0
M  V30 8334 H 764.593 -7.49475 0.991104 0
M  V30 8335 H 765.861 -7.79336 -0.159966 0
M  V30 8336 N 770.09 -0.729906 -1.39679 0
M  V30 8337 C 771.038 -0.0756589 -2.32477 0
M  V30 8338 C 772.032 0.731438 -1.52795 0
M  V30 8339 O 773.238 0.633195 -1.68495 0
M  V30 8340 H 769.613 -0.00566492 -0.751979 0
M  V30 8341 H 771.584 -0.874797 -2.85289 0
M  V30 8342 C 770.333 0.821313 -3.37861 0
M  V30 8343 H 769.656 0.209666 -3.9925 0
M  V30 8344 H 771.096 1.24679 -4.05254 0
M  V30 8345 C 769.555 1.9533 -2.74495 0
M  V30 8346 O 770.085 3.04548 -2.61942 0
M  V30 8347 N 768.291 1.74119 -2.3266 0
M  V30 8348 H 767.838 0.852908 -2.4307 0
M  V30 8349 H 767.796 2.50036 -1.90603 0
M  V30 8350 N 771.568 1.50203 -0.477153 0
M  V30 8351 C 772.5 2.26508 0.350239 0
M  V30 8352 C 773.513 1.32081 0.95176 0
M  V30 8353 O 774.702 1.57546 0.839139 0
M  V30 8354 C 771.802 3.0361 1.50579 0
M  V30 8355 C 770.975 4.25438 1.01595 0
M  V30 8356 C 770.034 4.84783 2.04626 0
M  V30 8357 O 769.06 5.45528 1.62442 0
M  V30 8358 N 770.262 4.72318 3.37485 0
M  V30 8359 H 773.027 2.98155 -0.30394 0
M  V30 8360 H 770.588 1.58938 -0.308289 0
M  V30 8361 H 772.58 3.4019 2.1921 0
M  V30 8362 H 771.15 2.34724 2.06455 0
M  V30 8363 H 770.37 3.93894 0.155316 0
M  V30 8364 H 771.658 5.04413 0.666694 0
M  V30 8365 H 771.056 4.24022 3.74462 0
M  V30 8366 H 769.613 5.13149 4.01897 0
M  V30 8367 N 773.046 0.209999 1.56195 0
M  V30 8368 C 774.294 -0.423974 1.97603 0
M  V30 8369 C 774.615 -1.61112 1.09854 0
M  V30 8370 O 773.885 -1.95134 0.173032 0
M  V30 8371 H 772.465 -0.159629 0.729745 0
M  V30 8372 H 775.127 0.300205 1.92574 0
M  V30 8373 H 774.223 -0.75809 3.02753 0
M  V30 8374 N 774.524 -1.57472 -0.0634922 0
M  V30 8375 C 775.771 -1.87654 -0.761066 0
M  V30 8376 C 776.099 -0.802847 -1.77157 0
M  V30 8377 O 775.354 0.200244 -1.94673 0
M  V30 8378 C 775.653 -3.24521 -1.49736 0
M  V30 8379 C 775.319 -4.46532 -0.626065 0
M  V30 8380 C 773.981 -4.7965 -0.385978 0
M  V30 8381 C 776.333 -5.21195 -0.0224001 0
M  V30 8382 C 773.661 -5.84837 0.467118 0
M  V30 8383 C 776.013 -6.27286 0.818198 0
M  V30 8384 C 774.677 -6.58899 1.06808 0
M  V30 8385 H 773.947 -0.686675 -0.278494 0
M  V30 8386 H 776.594 -1.91488 -0.0216348 0
M  V30 8387 H 774.899 -3.16516 -2.30921 0
M  V30 8388 H 776.596 -3.45111 -2.04204 0
M  V30 8389 H 773.186 -4.20618 -0.823325 0
M  V30 8390 H 777.37 -4.95917 -0.194985 0
M  V30 8391 H 772.626 -6.07725 0.669375 0
M  V30 8392 H 776.8 -6.84298 1.29265 0
M  V30 8393 H 774.427 -7.40233 1.73088 0
M  V30 8394 N 776.003 0.335068 -1.53997 0
M  V30 8395 C 777.28 1.09188 -1.62288 0
M  V30 8396 C 777.66 2.0626 -0.449458 0
M  V30 8397 O 777.008 2.21596 0.557444 0
M  V30 8398 C 777.218 1.80403 -2.98757 0
M  V30 8399 C 778.566 2.33841 -3.54406 0
M  V30 8400 O 779.59 1.90487 -3.00987 0
M  V30 8401 O 778.449 3.1318 -4.47862 0
M  V30 8402 H 775.543 0.502621 -0.656736 0
M  V30 8403 H 778.089 0.33588 -1.66343 0
M  V30 8404 H 776.861 1.09732 -3.75599 0
M  V30 8405 H 776.484 2.62841 -2.9833 0
M  V30 8406 N 777.481 1.45874 0.596531 0
M  V30 8407 C 778.728 1.50467 1.35521 0
M  V30 8408 C 779.056 0.150802 1.93915 0
M  V30 8409 O 778.311 -0.851913 1.76184 0
M  V30 8410 C 778.61 2.54034 2.51399 0
M  V30 8411 C 778.276 3.9844 2.11085 0
M  V30 8412 C 776.938 4.37758 1.99804 0
M  V30 8413 C 779.29 4.89209 1.79788 0
M  V30 8414 C 776.618 5.65727 1.55465 0
M  V30 8415 C 778.97 6.17602 1.36931 0
M  V30 8416 C 777.634 6.5584 1.24218 0
M  V30 8417 H 776.904 0.550597 0.495907 0
M  V30 8418 H 779.551 1.79279 0.673145 0
M  V30 8419 H 777.856 2.18832 3.24992 0
M  V30 8420 H 779.553 2.54822 3.09624 0
M  V30 8421 H 776.143 3.67353 2.20794 0
M  V30 8422 H 780.327 4.59562 1.87395 0
M  V30 8423 H 775.583 5.94139 1.44253 0
M  V30 8424 H 779.757 6.87373 1.11764 0
M  V30 8425 H 777.384 7.54897 0.896353 0
M  V30 8426 N 778.959 -0.83999 1.33349 0
M  V30 8427 C 780.236 -1.57973 1.15342 0
M  V30 8428 C 780.616 -2.09226 -0.280632 0
M  V30 8429 O 779.964 -1.89317 -1.2795 0
M  V30 8430 C 780.174 -2.71446 2.19359 0
M  V30 8431 C 781.522 -3.40654 2.53456 0
M  V30 8432 O 782.546 -2.81686 2.18017 0
M  V30 8433 O 781.405 -4.47101 3.14266 0
M  V30 8434 H 778.499 -0.6964 0.446044 0
M  V30 8435 H 781.045 -0.882843 1.44927 0
M  V30 8436 H 779.817 -2.31205 3.1569 0
M  V30 8437 H 779.44 -3.488 1.90852 0
M  V30 8438 N 780.437 -1.16799 -1.0581 0
M  V30 8439 C 781.662 -0.977402 -1.82925 0
M  V30 8440 C 782.087 0.469514 -1.82146 0
M  V30 8441 O 781.445 1.33576 -1.22585 0
M  V30 8442 C 781.493 -1.51543 -3.27211 0
M  V30 8443 O 780.597 -0.725021 -4.05977 0
M  V30 8444 H 779.938 -0.347474 -0.565825 0
M  V30 8445 H 782.468 -1.55151 -1.33376 0
M  V30 8446 H 782.478 -1.53502 -3.78023 0
M  V30 8447 H 781.153 -2.56872 -3.27093 0
M  V30 8448 H 779.73 -0.77634 -3.64729 0
M  V30 8449 N 781.915 1.24427 -0.967243 0
M  V30 8450 C 783.162 1.92487 -0.62888 0
M  V30 8451 C 783.49 1.75623 0.835871 0
M  V30 8452 O 782.745 1.1027 1.61675 0
M  V30 8453 C 783.044 3.44568 -0.949096 0
M  V30 8454 C 782.71 3.816 -2.40192 0
M  V30 8455 C 781.372 3.9142 -2.799 0
M  V30 8456 C 783.724 3.99715 -3.34481 0
M  V30 8457 C 781.052 4.16771 -4.12939 0
M  V30 8458 C 783.404 4.26562 -4.67148 0
M  V30 8459 C 782.068 4.34601 -5.06634 0
M  V30 8460 H 781.338 0.704361 -0.230124 0
M  V30 8461 H 783.985 1.4772 -1.21864 0
M  V30 8462 H 782.29 3.90819 -0.277085 0
M  V30 8463 H 783.987 3.95436 -0.665692 0
M  V30 8464 H 780.577 3.74522 -2.08402 0
M  V30 8465 H 784.761 3.91531 -3.04987 0
M  V30 8466 H 780.017 4.21214 -4.43158 0
M  V30 8467 H 784.191 4.39523 -5.40178 0
M  V30 8468 H 781.818 4.53998 -6.09746 0
M  V30 8469 N 783.393 0.737304 1.3929 0
M  V30 8470 C 784.642 0.283129 1.99703 0
M  V30 8471 C 784.955 -1.13677 1.59176 0
M  V30 8472 O 786.161 -1.69058 2.12442 0
M  V30 8473 C 784.617 0.455262 3.57009 0
M  V30 8474 C 784.225 1.88319 4.06497 0
M  V30 8475 C 785.969 0.0629786 4.24453 0
M  V30 8476 C 783.876 2.00475 5.56385 0
M  V30 8477 H 782.806 0.102106 0.747054 0
M  V30 8478 H 785.457 0.911515 1.5926 0
M  V30 8479 H 783.839 -0.242057 3.9526 0
M  V30 8480 H 785.013 2.61265 3.79575 0
M  V30 8481 H 783.328 2.2289 3.51723 0
M  V30 8482 H 785.925 0.132787 5.34535 0
M  V30 8483 H 786.268 -0.982128 4.04549 0
M  V30 8484 H 786.801 0.71154 3.91385 0
M  V30 8485 H 783.54 3.03182 5.81172 0
M  V30 8486 H 783.06 1.31969 5.85102 0
M  V30 8487 H 784.739 1.787 6.21832 0
M  V30 8488 N 784.871 -1.49948 0.485112 0
M  V30 8489 C 785.834 -2.27351 -0.290546 0
M  V30 8490 C 786.834 -1.32704 -0.908087 0
M  V30 8491 O 788.024 -1.56007 -0.775085 0
M  V30 8492 C 785.156 -3.10135 -1.41524 0
M  V30 8493 H 786.349 -2.97374 0.388454 0
M  V30 8494 H 783.902 -1.54453 0.239586 0
M  V30 8495 H 784.637 -2.44641 -2.12888 0
M  V30 8496 H 784.422 -3.79705 -0.978074 0
M  V30 8497 H 785.912 -3.68638 -1.96204 0
M  V30 8498 N 786.349 -0.21828 -1.56081 0
M  V30 8499 C 787.597 0.413488 -1.97825 0
M  V30 8500 C 787.918 1.60527 -1.10707 0
M  V30 8501 O 787.188 1.9504 -0.183378 0
M  V30 8502 H 785.768 0.155757 -0.730581 0
M  V30 8503 H 788.43 -0.310413 -1.92412 0
M  V30 8504 H 787.526 0.742024 -3.03151 0
M  V30 8505 N 787.827 1.57504 0.0551401 0
M  V30 8506 C 789.055 1.92294 0.76358 0
M  V30 8507 C 789.47 0.815774 1.70266 0
M  V30 8508 O 788.827 -0.209772 1.8129 0
M  V30 8509 C 788.878 3.26914 1.54302 0
M  V30 8510 O 788.599 4.33375 0.641666 0
M  V30 8511 C 790.1 3.75825 2.35097 0
M  V30 8512 H 787.32 0.635229 0.216159 0
M  V30 8513 H 789.864 2.0449 0.0204385 0
M  V30 8514 H 788.019 3.16196 2.23828 0
M  V30 8515 H 788.433 5.10927 1.1855 0
M  V30 8516 H 789.907 4.72603 2.8522 0
M  V30 8517 H 790.384 3.0568 3.15367 0
M  V30 8518 H 790.99 3.89542 1.70696 0
M  V30 8519 N 789.305 -0.326896 1.54172 0
M  V30 8520 C 790.554 -1.06274 1.71431 0
M  V30 8521 C 790.867 -1.89282 0.493123 0
M  V30 8522 O 792.073 -2.65933 0.54699 0
M  V30 8523 C 790.529 -1.93892 3.03206 0
M  V30 8524 C 790.137 -1.16011 4.32719 0
M  V30 8525 C 791.881 -2.67232 3.29829 0
M  V30 8526 C 789.788 -2.02755 5.55558 0
M  V30 8527 H 788.718 -0.400475 0.638855 0
M  V30 8528 H 791.369 -0.321184 1.80667 0
M  V30 8529 H 789.751 -2.71933 2.87869 0
M  V30 8530 H 790.925 -0.427643 4.58811 0
M  V30 8531 H 789.24 -0.54367 4.12836 0
M  V30 8532 H 791.837 -3.32434 4.18798 0
M  V30 8533 H 792.18 -3.34692 2.47562 0
M  V30 8534 H 792.713 -1.96255 3.46018 0
M  V30 8535 H 789.452 -1.3981 6.40417 0
M  V30 8536 H 788.972 -2.73745 5.33689 0
M  V30 8537 H 790.651 -2.61419 5.91835 0
M  V30 8538 N 790.784 -1.46188 -0.588786 0
M  V30 8539 C 791.716 -1.52319 -1.71265 0
M  V30 8540 C 792.729 -0.412096 -1.57498 0
M  V30 8541 O 793.918 -0.680146 -1.65034 0
M  V30 8542 C 791.018 -1.38164 -3.09458 0
M  V30 8543 C 790.191 -2.63284 -3.49286 0
M  V30 8544 C 789.25 -2.43415 -4.66514 0
M  V30 8545 O 788.276 -3.17113 -4.72682 0
M  V30 8546 N 789.478 -1.49187 -5.61002 0
M  V30 8547 H 792.243 -2.49219 -1.66463 0
M  V30 8548 H 789.804 -1.42167 -0.774601 0
M  V30 8549 H 791.796 -1.22653 -3.85666 0
M  V30 8550 H 790.366 -0.494678 -3.08661 0
M  V30 8551 H 789.586 -2.93779 -2.62845 0
M  V30 8552 H 790.874 -3.46413 -3.7266 0
M  V30 8553 H 790.272 -0.884027 -5.5875 0
M  V30 8554 H 788.829 -1.39642 -6.36666 0
M  V30 8555 N 792.262 0.832906 -1.33792 0
M  V30 8556 C 793.192 1.95828 -1.27176 0
M  V30 8557 C 794.173 1.69427 -0.15114 0
M  V30 8558 O 795.358 1.91167 -0.341886 0
M  V30 8559 C 792.488 3.32098 -1.01629 0
M  V30 8560 C 791.442 3.72912 -2.10049 0
M  V30 8561 C 790.768 5.07054 -1.69706 0
M  V30 8562 C 792.068 3.86064 -3.51783 0
M  V30 8563 H 793.762 2.01622 -2.21334 0
M  V30 8564 H 791.308 0.96866 -1.0655 0
M  V30 8565 H 793.261 4.10402 -0.956474 0
M  V30 8566 H 791.985 3.26577 -0.0390956 0
M  V30 8567 H 790.644 2.96876 -2.15082 0
M  V30 8568 H 790.292 4.9801 -0.706737 0
M  V30 8569 H 789.992 5.35333 -2.42264 0
M  V30 8570 H 791.516 5.87827 -1.65202 0
M  V30 8571 H 792.93 4.54665 -3.49218 0
M  V30 8572 H 791.327 4.25787 -4.22878 0
M  V30 8573 H 792.397 2.88344 -3.89854 0
M  V30 8574 N 793.74 1.17359 1.05189 0
M  V30 8575 C 794.965 0.98709 1.82404 0
M  V30 8576 C 795.39 -0.459848 1.82392 0
M  V30 8577 O 794.748 -1.32924 1.23292 0
M  V30 8578 C 794.796 1.53276 3.26403 0
M  V30 8579 O 793.9 0.746541 4.05587 0
M  V30 8580 H 793.241 0.35047 0.563974 0
M  V30 8581 H 795.771 1.55856 1.32552 0
M  V30 8582 H 795.781 1.55504 3.77203 0
M  V30 8583 H 794.456 2.58603 3.25726 0
M  V30 8584 H 793.033 0.795671 3.64312 0
M  V30 8585 N 795.218 -1.23913 0.973828 0
M  V30 8586 C 796.443 -1.96735 0.656511 0
M  V30 8587 C 796.868 -1.71682 -0.768571 0
M  V30 8588 O 796.226 -0.984267 -1.52256 0
M  V30 8589 C 796.274 -3.48004 0.944735 0
M  V30 8590 O 795.378 -4.12387 0.0333357 0
M  V30 8591 H 794.719 -0.616119 0.247575 0
M  V30 8592 H 797.249 -1.57525 1.30564 0
M  V30 8593 H 797.259 -3.98424 0.87876 0
M  V30 8594 H 795.934 -3.65567 1.98328 0
M  V30 8595 H 794.511 -3.72585 0.153157 0
M  V30 8596 N 796.696 -0.74468 -1.38897 0
M  V30 8597 C 797.628 -0.0713608 -2.29089 0
M  V30 8598 C 798.641 0.693224 -1.47303 0
M  V30 8599 O 799.83 0.535785 -1.70269 0
M  V30 8600 C 796.93 0.923078 -3.26087 0
M  V30 8601 C 796.103 0.217998 -4.36856 0
M  V30 8602 C 795.162 1.12192 -5.14101 0
M  V30 8603 O 794.188 0.595771 -5.66073 0
M  V30 8604 N 795.39 2.45082 -5.26227 0
M  V30 8605 H 798.155 -0.845906 -2.87514 0
M  V30 8606 H 795.716 -0.594712 -1.50581 0
M  V30 8607 H 797.708 1.53061 -3.74639 0
M  V30 8608 H 796.278 1.59876 -2.68623 0
M  V30 8609 H 795.498 -0.570134 -3.90055 0
M  V30 8610 H 796.786 -0.270248 -5.08082 0
M  V30 8611 H 796.184 2.90294 -4.85537 0
M  V30 8612 H 794.741 3.00907 -5.78185 0
M  V30 8613 N 798.174 1.49689 -0.493057 0
M  V30 8614 C 799.124 2.25901 0.308682 0
M  V30 8615 C 800.108 1.30408 0.94247 0
M  V30 8616 O 801.3 1.55179 0.851384 0
M  V30 8617 C 798.429 3.14463 1.37725 0
M  V30 8618 C 797.515 4.17414 0.7501 0
M  V30 8619 N 797.906 5.05599 -0.142597 0
M  V30 8620 C 796.204 4.34377 1.01159 0
M  V30 8621 C 796.905 5.7954 -0.500782 0
M  V30 8622 N 795.881 5.43446 0.129386 0
M  V30 8623 H 799.683 2.91451 -0.378652 0
M  V30 8624 H 797.197 1.59441 -0.308614 0
M  V30 8625 H 799.194 3.67687 1.965 0
M  V30 8626 H 797.854 2.50464 2.06635 0
M  V30 8627 H 798.865 5.15354 -0.512894 0
M  V30 8628 H 795.542 3.81588 1.69402 0
M  V30 8629 H 796.932 6.60534 -1.23063 0
M  V30 8630 N 799.652 0.226554 1.55963 0
M  V30 8631 C 800.562 -0.692725 2.24139 0
M  V30 8632 C 801.578 -1.20971 1.25068 0
M  V30 8633 O 802.754 -1.25027 1.57893 0
M  V30 8634 C 799.819 -1.88183 2.91184 0
M  V30 8635 C 798.88 -1.40633 4.05612 0
M  V30 8636 C 798.113 -2.53875 4.6945 0
M  V30 8637 O 798.336 -3.72129 4.32292 0
M  V30 8638 O 797.27 -2.24792 5.58348 0
M  V30 8639 H 801.096 -0.141921 3.03368 0
M  V30 8640 H 798.681 -0.0041049 1.49399 0
M  V30 8641 H 800.563 -2.57617 3.33484 0
M  V30 8642 H 799.238 -2.42064 2.14911 0
M  V30 8643 H 798.145 -0.67986 3.67871 0
M  V30 8644 H 799.478 -0.913838 4.83642 0
M  V30 8645 N 801.13 -1.57531 -0.0467866 0
M  V30 8646 C 802.541 -1.76945 -0.595603 0
M  V30 8647 C 802.892 -0.855354 -1.76573 0
M  V30 8648 O 802.017 -0.045668 -2.16352 0
M  V30 8649 C 802.612 -3.20881 -1.08725 0
M  V30 8650 C 801.171 -3.41553 -1.58172 0
M  V30 8651 C 800.318 -2.72533 -0.511968 0
M  V30 8652 H 803.269 -1.57682 0.179436 0
M  V30 8653 H 803.29 -3.26419 -1.95528 0
M  V30 8654 H 802.802 -3.87385 -0.235398 0
M  V30 8655 H 800.903 -2.80199 -2.456 0
M  V30 8656 H 801.016 -4.50104 -1.64143 0
M  V30 8657 H 799.38 -2.35797 -0.962899 0
M  V30 8658 H 800.163 -3.41709 0.330117 0
M  V30 8659 N 802.608 0.318715 -1.54344 0
M  V30 8660 C 803.836 1.0755 -1.7675 0
M  V30 8661 C 804.251 1.81543 -0.518422 0
M  V30 8662 O 803.608 1.75198 0.511078 0
M  V30 8663 C 803.659 2.06983 -2.96378 0
M  V30 8664 O 803.38 1.35995 -4.16458 0
M  V30 8665 C 804.881 2.94841 -3.31034 0
M  V30 8666 H 802.101 0.319711 -0.589937 0
M  V30 8667 H 804.645 0.363369 -2.01246 0
M  V30 8668 H 802.8 2.73724 -2.74142 0
M  V30 8669 H 803.214 2.02623 -4.83781 0
M  V30 8670 H 804.688 3.60496 -4.18027 0
M  V30 8671 H 805.165 3.62199 -2.48412 0
M  V30 8672 H 805.771 2.33656 -3.55366 0
M  V30 8673 N 804.086 1.46499 0.581025 0
M  V30 8674 C 805.363 1.42372 1.34125 0
M  V30 8675 C 805.743 0.108073 2.10823 0
M  V30 8676 O 805.091 -0.910366 2.09582 0
M  V30 8677 C 805.301 2.65445 2.26583 0
M  V30 8678 C 806.649 3.11664 2.88359 0
M  V30 8679 O 807.673 2.66006 2.36896 0
M  V30 8680 O 806.532 3.90974 3.81839 0
M  V30 8681 H 803.626 0.566262 0.602724 0
M  V30 8682 H 806.172 1.58667 0.601903 0
M  V30 8683 H 804.944 3.52756 1.69348 0
M  V30 8684 H 804.567 2.51618 3.07854 0
M  V30 8685 N 805.565 -0.825799 1.34232 0
M  V30 8686 C 806.811 -1.58419 1.26614 0
M  V30 8687 C 807.144 -1.93503 -0.164341 0
M  V30 8688 O 806.419 -1.59785 -1.109 0
M  V30 8689 C 806.702 -2.8856 2.15418 0
M  V30 8690 C 806.555 -2.60075 3.66989 0
M  V30 8691 C 807.874 -3.90107 2.03726 0
M  V30 8692 H 804.993 -0.574794 0.461282 0
M  V30 8693 H 807.635 -0.951519 1.64457 0
M  V30 8694 H 805.785 -3.42553 1.83275 0
M  V30 8695 H 807.457 -2.12414 4.09485 0
M  V30 8696 H 805.7 -1.93565 3.88221 0
M  V30 8697 H 806.371 -3.52866 4.24488 0
M  V30 8698 H 808.847 -3.45459 2.31942 0
M  V30 8699 H 807.723 -4.78976 2.68092 0
M  V30 8700 H 807.984 -4.30329 1.01337 0
M  V30 8701 N 807.043 -1.17915 -1.04565 0
M  V30 8702 C 808.289 -0.972863 -1.77942 0
M  V30 8703 C 808.622 0.496753 -1.87739 0
M  V30 8704 O 807.897 1.3688 -1.38181 0
M  V30 8705 C 808.18 -1.62227 -3.21488 0
M  V30 8706 C 808.033 -3.16441 -3.19664 0
M  V30 8707 C 809.352 -1.33137 -4.19479 0
M  V30 8708 H 806.471 -0.354843 -0.645953 0
M  V30 8709 H 809.113 -1.45508 -1.22178 0
M  V30 8710 H 807.263 -1.21224 -3.69103 0
M  V30 8711 H 808.935 -3.66544 -2.80077 0
M  V30 8712 H 807.178 -3.48863 -2.57832 0
M  V30 8713 H 807.849 -3.57012 -4.21006 0
M  V30 8714 H 810.325 -1.68654 -3.80388 0
M  V30 8715 H 809.201 -1.81151 -5.18146 0
M  V30 8716 H 809.462 -0.253319 -4.41374 0
M  V30 8717 N 808.521 1.23394 -0.980386 0
M  V30 8718 C 809.798 1.87242 -0.565667 0
M  V30 8719 C 810.178 1.88151 0.957197 0
M  V30 8720 O 809.526 1.36309 1.8339 0
M  V30 8721 C 809.736 3.28743 -1.17172 0
M  V30 8722 C 811.084 4.05335 -1.26446 0
M  V30 8723 O 812.108 3.37962 -1.12517 0
M  V30 8724 O 810.967 5.25908 -1.48604 0
M  V30 8725 H 808.061 0.80477 -0.190459 0
M  V30 8726 H 810.607 1.3127 -1.07547 0
M  V30 8727 H 809.379 3.22647 -2.21392 0
M  V30 8728 H 809.002 3.92305 -0.646739 0
M  V30 8729 N 809.999 0.752036 1.385 0
M  V30 8730 C 810.946 0.123288 2.3047 0
M  V30 8731 C 811.916 -0.711326 1.50098 0
M  V30 8732 O 813.101 -0.667775 1.78733 0
M  V30 8733 C 810.241 -0.765085 3.36512 0
M  V30 8734 C 809.354 0.0839885 4.31918 0
M  V30 8735 C 808.489 -0.807243 5.25031 0
M  V30 8736 C 807.528 0.0455583 6.12083 0
M  V30 8737 N 806.665 -0.802547 6.97498 0
M  V30 8738 H 811.505 0.913169 2.83664 0
M  V30 8739 H 809.042 0.46195 1.39658 0
M  V30 8740 H 811 -1.29476 3.966 0
M  V30 8741 H 809.63 -1.52077 2.84732 0
M  V30 8742 H 808.682 0.731276 3.73305 0
M  V30 8743 H 809.994 0.74265 4.9324 0
M  V30 8744 H 809.148 -1.40414 5.90228 0
M  V30 8745 H 807.887 -1.49964 4.64071 0
M  V30 8746 H 806.892 0.655137 5.45883 0
M  V30 8747 H 808.117 0.734994 6.75111 0
M  V30 8748 H 806.063 -1.47992 6.39089 0
M  V30 8749 H 805.98 -0.200747 7.55733 0
M  V30 8750 H 807.248 -1.38447 7.67107 0
M  V30 8751 N 811.477 -1.49425 0.500989 0
M  V30 8752 C 812.407 -2.31971 -0.266775 0
M  V30 8753 C 813.388 -1.40245 -0.962563 0
M  V30 8754 O 814.573 -1.69154 -0.953968 0
M  V30 8755 C 811.703 -3.20757 -1.33163 0
M  V30 8756 C 810.657 -4.21275 -0.75572 0
M  V30 8757 C 809.983 -4.98997 -1.92109 0
M  V30 8758 C 811.283 -5.21686 0.253213 0
M  V30 8759 H 812.977 -2.96408 0.422237 0
M  V30 8760 H 810.523 -1.4254 0.204505 0
M  V30 8761 H 812.476 -3.77315 -1.87646 0
M  V30 8762 H 811.2 -2.54263 -2.04983 0
M  V30 8763 H 809.859 -3.65861 -0.232637 0
M  V30 8764 H 809.507 -4.28951 -2.62698 0
M  V30 8765 H 809.207 -5.67011 -1.54182 0
M  V30 8766 H 810.731 -5.584 -2.47026 0
M  V30 8767 H 812.145 -5.72939 -0.203483 0
M  V30 8768 H 810.542 -5.9759 0.548322 0
M  V30 8769 H 811.612 -4.70596 1.16909 0
M  V30 8770 N 812.955 -0.234822 -1.55841 0
M  V30 8771 C 813.903 0.686145 -2.22249 0
M  V30 8772 C 814.897 1.18948 -1.20614 0
M  V30 8773 O 816.103 1.14777 -1.38659 0
M  V30 8774 H 812.478 0.239724 -0.712767 0
M  V30 8775 H 814.449 0.102762 -2.98223 0
M  V30 8776 C 813.198 1.8776 -2.92646 0
M  V30 8777 H 812.521 1.49943 -3.70617 0
M  V30 8778 H 813.961 2.4995 -3.42493 0
M  V30 8779 C 812.42 2.74127 -1.95847 0
M  V30 8780 O 812.95 3.7329 -1.48384 0
M  V30 8781 N 811.156 2.4044 -1.63209 0
M  V30 8782 H 810.703 1.59854 -2.02001 0
M  V30 8783 H 810.661 2.98504 -0.987063 0
M  V30 8784 N 814.433 1.57553 0.0384317 0
M  V30 8785 C 815.71 1.79977 0.766002 0
M  V30 8786 C 816.09 0.830625 1.94072 0
M  V30 8787 O 815.438 -0.129243 2.28134 0
M  V30 8788 C 815.648 3.27434 1.20781 0
M  V30 8789 C 816.996 3.92167 1.62758 0
M  V30 8790 O 818.02 3.31527 1.30263 0
M  V30 8791 O 816.879 4.98917 2.23035 0
M  V30 8792 H 813.973 0.739787 0.369654 0
M  V30 8793 H 816.519 1.69693 0.0159312 0
M  V30 8794 H 815.291 3.89558 0.368792 0
M  V30 8795 H 814.914 3.42571 2.01819 0
M  V30 8796 N 815.911 -0.310526 1.54511 0
M  V30 8797 C 816.841 -1.38757 1.878 0
M  V30 8798 C 817.822 -1.53353 0.735991 0
M  V30 8799 O 819.007 -1.67018 0.990887 0
M  V30 8800 C 816.137 -2.75327 2.11689 0
M  V30 8801 C 815.091 -2.75506 3.27537 0
M  V30 8802 C 814.417 -4.15275 3.36824 0
M  V30 8803 C 815.717 -2.38093 4.64875 0
M  V30 8804 H 817.411 -1.11146 2.78005 0
M  V30 8805 H 814.957 -0.533232 1.33763 0
M  V30 8806 H 816.91 -3.50752 2.33562 0
M  V30 8807 H 815.634 -3.04443 1.18245 0
M  V30 8808 H 814.293 -2.02538 3.05572 0
M  V30 8809 H 813.941 -4.41553 2.40915 0
M  V30 8810 H 813.641 -4.16299 4.14692 0
M  V30 8811 H 815.165 -4.92493 3.60947 0
M  V30 8812 H 816.579 -3.03232 4.86542 0
M  V30 8813 H 814.976 -2.50345 5.45387 0
M  V30 8814 H 816.046 -1.33227 4.66239 0
M  V30 8815 N 817.389 -1.46805 -0.573248 0
M  V30 8816 C 818.337 -1.58468 -1.70267 0
M  V30 8817 C 819.331 -0.452694 -1.63239 0
M  V30 8818 O 820.537 -0.629915 -1.68618 0
M  V30 8819 H 816.912 -0.498408 -0.56311 0
M  V30 8820 H 818.883 -2.5341 -1.57563 0
M  V30 8821 C 817.632 -1.60104 -3.08645 0
M  V30 8822 H 816.955 -2.4655 -3.14727 0
M  V30 8823 H 818.395 -1.72318 -3.87405 0
M  V30 8824 C 816.854 -0.33138 -3.35266 0
M  V30 8825 O 817.384 0.57438 -3.97572 0
M  V30 8826 N 815.59 -0.216358 -2.89793 0
M  V30 8827 H 815.137 -0.954345 -2.3927 0
M  V30 8828 H 815.095 0.632253 -3.07977 0
M  V30 8829 N 818.867 0.818669 -1.34668 0
M  V30 8830 C 820.092 1.61193 -1.30505 0
M  V30 8831 C 820.517 1.87734 0.117341 0
M  V30 8832 O 819.875 1.45591 1.08042 0
M  V30 8833 C 819.923 2.92733 -2.1057 0
M  V30 8834 O 819.027 3.85 -1.47813 0
M  V30 8835 H 818.368 0.490085 -0.44801 0
M  V30 8836 H 820.898 1.01701 -1.77534 0
M  V30 8837 H 820.908 3.42262 -2.22082 0
M  V30 8838 H 819.583 2.7274 -3.13984 0
M  V30 8839 H 818.16 3.43525 -1.45069 0
M  V30 8840 N 820.346 1.18468 1.03938 0
M  V30 8841 C 821.571 1.00638 1.81347 0
M  V30 8842 C 821.996 -0.440477 1.8287 0
M  V30 8843 O 821.354 -1.31609 1.24695 0
M  V30 8844 C 821.402 1.5673 3.24759 0
M  V30 8845 O 820.506 0.789517 4.04772 0
M  V30 8846 H 819.847 0.356432 0.560225 0
M  V30 8847 H 822.377 1.57253 1.30891 0
M  V30 8848 H 822.387 1.59496 3.75533 0
M  V30 8849 H 821.062 2.62043 3.22965 0
M  V30 8850 H 819.639 0.834267 3.63448 0
M  V30 8851 N 821.824 -1.22873 0.986916 0
M  V30 8852 C 823.07 -1.91746 0.660401 0
M  V30 8853 C 823.403 -1.76738 -0.804812 0
M  V30 8854 O 822.678 -1.13246 -1.58131 0
M  V30 8855 C 822.961 -3.44156 1.05966 0
M  V30 8856 C 822.814 -3.68242 2.58298 0
M  V30 8857 C 824.133 -4.35874 0.60842 0
M  V30 8858 H 821.252 -0.696347 0.241391 0
M  V30 8859 H 823.894 -1.44867 1.22937 0
M  V30 8860 H 822.044 -3.84213 0.575534 0
M  V30 8861 H 823.716 -3.37626 3.14335 0
M  V30 8862 H 821.959 -3.12728 3.00638 0
M  V30 8863 H 822.63 -4.74956 2.81285 0
M  V30 8864 H 825.106 -4.03299 1.02417 0
M  V30 8865 H 823.982 -5.41201 0.916142 0
M  V30 8866 H 824.243 -4.39364 -0.491086 0
M  V30 8867 N 823.302 -0.75937 -1.38099 0
M  V30 8868 C 824.527 -0.327859 -2.04792 0
M  V30 8869 C 824.952 1.03752 -1.56899 0
M  V30 8870 O 824.31 1.66235 -0.723581 0
M  V30 8871 C 824.358 -0.366264 -3.58735 0
M  V30 8872 O 823.462 0.637697 -4.0744 0
M  V30 8873 H 822.803 -0.144092 -0.648177 0
M  V30 8874 H 825.333 -1.03211 -1.7666 0
M  V30 8875 H 825.343 -0.219179 -4.07411 0
M  V30 8876 H 824.018 -1.36243 -3.92951 0
M  V30 8877 H 822.595 0.454749 -3.70117 0
M  V30 8878 N 824.78 1.49157 -0.508906 0
M  V30 8879 C 825.712 2.272 0.302115 0
M  V30 8880 C 826.725 1.3407 0.923529 0
M  V30 8881 O 827.914 1.5929 0.805532 0
M  V30 8882 C 825.014 3.06736 1.44105 0
M  V30 8883 C 824.187 4.27497 0.925477 0
M  V30 8884 C 823.246 4.89014 1.94297 0
M  V30 8885 O 822.272 5.48851 1.50834 0
M  V30 8886 N 823.474 4.7937 3.2739 0
M  V30 8887 H 826.239 2.97443 -0.367115 0
M  V30 8888 H 823.8 1.58248 -0.341933 0
M  V30 8889 H 825.792 3.44763 2.11944 0
M  V30 8890 H 824.362 2.3905 2.0143 0
M  V30 8891 H 823.582 3.94135 0.0717301 0
M  V30 8892 H 824.87 5.05714 0.55955 0
M  V30 8893 H 824.268 4.31869 3.65384 0
M  V30 8894 H 822.825 5.21559 3.90922 0
M  V30 8895 N 826.258 0.243083 1.55714 0
M  V30 8896 C 827.188 -0.652336 2.24203 0
M  V30 8897 C 828.169 -1.1843 1.221 0
M  V30 8898 O 829.354 -1.22435 1.50743 0
M  V30 8899 C 826.484 -1.85111 2.93856 0
M  V30 8900 C 825.438 -1.45208 4.02615 0
M  V30 8901 C 824.764 -2.73137 4.59674 0
M  V30 8902 C 826.064 -0.625988 5.18535 0
M  V30 8903 H 827.758 -0.0812504 2.9929 0
M  V30 8904 H 825.304 -0.0376388 1.43951 0
M  V30 8905 H 827.257 -2.48314 3.40468 0
M  V30 8906 H 825.981 -2.44751 2.16251 0
M  V30 8907 H 824.64 -0.843406 3.56766 0
M  V30 8908 H 824.288 -3.30967 3.78774 0
M  V30 8909 H 823.988 -2.47163 5.33089 0
M  V30 8910 H 825.512 -3.37245 5.09017 0
M  V30 8911 H 826.926 -1.16223 5.61396 0
M  V30 8912 H 825.323 -0.462465 5.98315 0
M  V30 8913 H 826.393 0.362652 4.83542 0
M  V30 8914 N 827.736 -1.57571 -0.0300757 0
M  V30 8915 C 828.646 -2.09892 -1.04798 0
M  V30 8916 C 829.662 -1.03732 -1.39698 0
M  V30 8917 O 830.838 -1.35461 -1.49038 0
M  V30 8918 C 827.903 -2.56707 -2.33028 0
M  V30 8919 C 826.964 -3.77345 -2.04718 0
M  V30 8920 C 826.197 -4.21918 -3.26834 0
M  V30 8921 O 826.42 -3.66025 -4.37472 0
M  V30 8922 O 825.354 -5.14362 -3.12594 0
M  V30 8923 H 829.18 -2.97023 -0.633344 0
M  V30 8924 H 826.765 -1.47344 -0.246991 0
M  V30 8925 H 828.647 -2.87154 -3.08417 0
M  V30 8926 H 827.322 -1.72688 -2.73789 0
M  V30 8927 H 826.229 -3.51919 -1.26901 0
M  V30 8928 H 827.562 -4.62345 -1.68813 0
M  V30 8929 N 829.214 0.302327 -1.54673 0
M  V30 8930 C 830.144 1.37759 -1.88533 0
M  V30 8931 C 831.125 1.52961 -0.744113 0
M  V30 8932 O 832.31 1.6649 -0.999731 0
M  V30 8933 C 829.44 2.74201 -2.13146 0
M  V30 8934 C 828.394 2.73765 -3.28993 0
M  V30 8935 C 827.72 4.13483 -3.39022 0
M  V30 8936 C 829.02 2.35624 -4.66132 0
M  V30 8937 H 830.714 1.0967 -2.78591 0
M  V30 8938 H 828.26 0.52613 -1.34044 0
M  V30 8939 H 830.213 3.49508 -2.35419 0
M  V30 8940 H 828.937 3.03812 -1.19858 0
M  V30 8941 H 827.596 2.00914 -3.06642 0
M  V30 8942 H 827.244 4.40269 -2.43253 0
M  V30 8943 H 826.944 4.14093 -4.16894 0
M  V30 8944 H 828.468 4.90572 -3.63553 0
M  V30 8945 H 829.882 3.00647 -4.88143 0
M  V30 8946 H 828.279 2.47449 -5.46707 0
M  V30 8947 H 829.349 1.30753 -4.66939 0
M  V30 8948 N 830.692 1.47107 0.565454 0
M  V30 8949 C 831.639 1.58974 1.6732 0
M  V30 8950 C 832.609 0.433146 1.60353 0
M  V30 8951 O 833.794 0.652141 1.79309 0
M  V30 8952 C 830.934 1.60224 3.05651 0
M  V30 8953 C 830.047 2.86741 3.23116 0
M  V30 8954 C 829.182 2.79381 4.51796 0
M  V30 8955 C 828.221 4.0076 4.62664 0
M  V30 8956 N 827.358 3.91685 5.8269 0
M  V30 8957 H 832.198 2.53588 1.56515 0
M  V30 8958 H 829.735 1.25791 0.762558 0
M  V30 8959 H 831.693 1.58933 3.85741 0
M  V30 8960 H 830.323 0.691285 3.15311 0
M  V30 8961 H 829.375 2.97936 2.36513 0
M  V30 8962 H 830.687 3.7665 3.27011 0
M  V30 8963 H 829.841 2.76293 5.40136 0
M  V30 8964 H 828.58 1.87142 4.50366 0
M  V30 8965 H 827.585 4.04162 3.72738 0
M  V30 8966 H 828.81 4.94117 4.6586 0
M  V30 8967 H 826.756 3.02243 5.82224 0
M  V30 8968 H 826.673 4.75264 5.87929 0
M  V30 8969 H 827.941 3.92599 6.73414 0
M  V30 8970 N 832.17 -0.811516 1.35101 0
M  V30 8971 C 833.395 -1.60499 1.31358 0
M  V30 8972 C 833.82 -1.87793 -0.107383 0
M  V30 8973 O 833.178 -1.46161 -1.07268 0
M  V30 8974 C 833.226 -2.91612 2.12119 0
M  V30 8975 O 832.33 -3.84211 1.49853 0
M  V30 8976 H 831.671 -0.487702 0.450603 0
M  V30 8977 H 834.201 -1.00758 1.7807 0
M  V30 8978 H 834.211 -3.4108 2.23894 0
M  V30 8979 H 832.886 -2.71071 3.15426 0
M  V30 8980 H 831.463 -3.42751 1.46889 0
M  V30 8981 N 833.648 -1.19017 -1.03309 0
M  V30 8982 C 834.578 -0.94772 -2.13402 0
M  V30 8983 C 835.559 0.117383 -1.69694 0
M  V30 8984 O 836.744 -0.0367733 -1.94165 0
M  V30 8985 C 833.874 -0.480977 -3.43953 0
M  V30 8986 C 832.828 -1.48743 -4.01322 0
M  V30 8987 C 832.154 -0.877924 -5.27443 0
M  V30 8988 C 833.454 -2.86642 -4.36616 0
M  V30 8989 H 835.148 -1.86846 -2.33942 0
M  V30 8990 H 832.694 -0.899781 -1.12427 0
M  V30 8991 H 834.647 -0.298677 -4.2034 0
M  V30 8992 H 833.371 0.475348 -3.23122 0
M  V30 8993 H 832.03 -1.65681 -3.27025 0
M  V30 8994 H 831.678 0.0858232 -5.02927 0
M  V30 8995 H 831.378 -1.54996 -5.66789 0
M  V30 8996 H 832.902 -0.706326 -6.06501 0
M  V30 8997 H 834.316 -2.73312 -5.03958 0
M  V30 8998 H 832.713 -3.50599 -4.87032 0
M  V30 8999 H 833.783 -3.39617 -3.46105 0
M  V30 9000 N 835.127 1.22348 -0.993418 0
M  V30 9001 C 836.376 1.90422 -0.665019 0
M  V30 9002 C 836.689 1.78199 0.806512 0
M  V30 9003 O 837.895 2.41193 1.24652 0
M  V30 9004 C 836.351 3.41403 -1.13893 0
M  V30 9005 C 835.959 3.62262 -2.63572 0
M  V30 9006 C 837.703 4.15175 -0.884884 0
M  V30 9007 C 835.61 5.06947 -3.04564 0
M  V30 9008 H 834.54 0.713073 -0.245037 0
M  V30 9009 H 837.191 1.3856 -1.20305 0
M  V30 9010 H 835.573 3.9245 -0.529027 0
M  V30 9011 H 836.747 3.21705 -3.29913 0
M  V30 9012 H 835.062 3.01824 -2.86865 0
M  V30 9013 H 837.659 5.21813 -1.16684 0
M  V30 9014 H 838.002 4.15915 0.178982 0
M  V30 9015 H 838.535 3.70157 -1.45701 0
M  V30 9016 H 835.274 5.11346 -4.10128 0
M  V30 9017 H 834.794 5.48404 -2.42927 0
M  V30 9018 H 836.473 5.75374 -2.95894 0
M  V30 9019 N 836.605 0.766683 1.37694 0
M  V30 9020 C 837.83 0.338715 2.04615 0
M  V30 9021 C 838.255 -1.02918 1.57447 0
M  V30 9022 O 837.613 -1.65849 0.732386 0
M  V30 9023 C 837.661 0.385284 3.58536 0
M  V30 9024 O 836.765 -0.616081 4.07772 0
M  V30 9025 H 836.106 0.147527 0.647404 0
M  V30 9026 H 838.636 1.04146 1.7611 0
M  V30 9027 H 838.646 0.240782 4.07289 0
M  V30 9028 H 837.321 1.38325 3.92223 0
M  V30 9029 H 835.898 -0.435115 3.70353 0
M  V30 9030 N 838.083 -1.48885 0.516809 0
M  V30 9031 C 839.03 -2.29408 -0.253125 0
M  V30 9032 C 840 -1.36533 -0.945935 0
M  V30 9033 O 841.185 -1.65495 -0.949527 0
M  V30 9034 C 838.325 -3.19592 -1.30211 0
M  V30 9035 C 837.438 -4.27535 -0.61948 0
M  V30 9036 C 836.573 -5.04916 -1.65026 0
M  V30 9037 C 835.612 -6.04677 -0.950368 0
M  V30 9038 N 834.749 -6.75164 -1.92608 0
M  V30 9039 H 839.589 -2.94738 0.439744 0
M  V30 9040 H 837.126 -1.45311 0.2287 0
M  V30 9041 H 839.084 -3.70267 -1.92245 0
M  V30 9042 H 837.714 -2.56213 -1.96353 0
M  V30 9043 H 836.766 -3.80228 0.114505 0
M  V30 9044 H 838.078 -4.98752 -0.0693016 0
M  V30 9045 H 837.232 -5.59539 -2.34523 0
M  V30 9046 H 835.971 -4.33508 -2.23432 0
M  V30 9047 H 834.976 -5.4927 -0.241252 0
M  V30 9048 H 836.201 -6.78077 -0.372599 0
M  V30 9049 H 834.147 -6.06517 -2.49946 0
M  V30 9050 H 834.064 -7.4241 -1.42699 0
M  V30 9051 H 835.332 -7.34384 -2.61345 0
M  V30 9052 N 839.561 -0.251338 -1.55583 0
M  V30 9053 C 840.786 0.379136 -2.03905 0
M  V30 9054 C 841.211 1.50428 -1.12929 0
M  V30 9055 O 840.569 1.80882 -0.123114 0
M  V30 9056 C 840.617 0.86009 -3.50193 0
M  V30 9057 O 839.721 1.96932 -3.62342 0
M  V30 9058 H 839.062 0.0820183 -0.658915 0
M  V30 9059 H 841.592 -0.378692 -2.01065 0
M  V30 9060 H 841.602 1.16214 -3.91099 0
M  V30 9061 H 840.277 0.0367559 -4.15884 0
M  V30 9062 H 838.854 1.67163 -3.33333 0
M  V30 9063 N 841.039 1.57585 0.0217189 0
M  V30 9064 C 842.285 1.89887 0.712099 0
M  V30 9065 C 842.618 0.849971 1.74611 0
M  V30 9066 O 841.893 -0.13407 1.94037 0
M  V30 9067 C 842.176 3.32815 1.37499 0
M  V30 9068 C 842.029 4.48405 0.353993 0
M  V30 9069 C 843.348 3.74786 2.30703 0
M  V30 9070 H 840.467 0.690588 0.257405 0
M  V30 9071 H 843.109 1.89983 -0.0251145 0
M  V30 9072 H 841.259 3.32863 2.00335 0
M  V30 9073 H 842.931 4.60491 -0.273015 0
M  V30 9074 H 841.174 4.32573 -0.32599 0
M  V30 9075 H 841.845 5.45316 0.85644 0
M  V30 9076 H 844.321 3.76151 1.77904 0
M  V30 9077 H 843.197 4.75585 2.74061 0
M  V30 9078 H 843.458 3.07449 3.17691 0
M  V30 9079 N 842.517 -0.29412 1.54831 0
M  V30 9080 C 843.742 -1.05156 1.78765 0
M  V30 9081 C 844.167 -1.79916 0.548809 0
M  V30 9082 O 843.525 -1.74243 -0.500909 0
M  V30 9083 C 843.573 -2.00242 2.99893 0
M  V30 9084 O 842.677 -3.08662 2.73499 0
M  V30 9085 H 842.018 -0.301737 0.591482 0
M  V30 9086 H 844.548 -0.329449 2.0193 0
M  V30 9087 H 844.558 -2.42583 3.28051 0
M  V30 9088 H 843.233 -1.45235 3.89717 0
M  V30 9089 H 841.81 -2.70786 2.56377 0
M  V30 9090 N 843.995 -1.47404 -0.557645 0
M  V30 9091 C 844.927 -1.55917 -1.67995 0
M  V30 9092 C 845.94 -0.445411 -1.56588 0
M  V30 9093 O 847.129 -0.714999 -1.63554 0
M  V30 9094 C 844.229 -1.44697 -3.06457 0
M  V30 9095 C 843.402 -2.70633 -3.43622 0
M  V30 9096 C 842.461 -2.53256 -4.61246 0
M  V30 9097 O 841.487 -3.27068 -4.65849 0
M  V30 9098 N 842.689 -1.61053 -5.57711 0
M  V30 9099 H 845.454 -2.52694 -1.61139 0
M  V30 9100 H 843.015 -1.43778 -0.744271 0
M  V30 9101 H 845.007 -1.30806 -3.82978 0
M  V30 9102 H 843.577 -0.560039 -3.07542 0
M  V30 9103 H 842.797 -2.99288 -2.56555 0
M  V30 9104 H 844.085 -3.5424 -3.65228 0
M  V30 9105 H 843.483 -1.00235 -5.56749 0
M  V30 9106 H 842.04 -1.53115 -6.33561 0
M  V30 9107 N 845.473 0.80434 -1.35529 0
M  V30 9108 C 846.383 1.94784 -1.30753 0
M  V30 9109 C 847.399 1.72703 -0.212071 0
M  V30 9110 O 848.575 1.96494 -0.441841 0
M  V30 9111 C 845.64 3.29406 -1.08133 0
M  V30 9112 C 844.701 3.64367 -2.27013 0
M  V30 9113 C 843.934 4.92566 -2.05463 0
M  V30 9114 O 844.157 5.61166 -1.02222 0
M  V30 9115 O 843.091 5.25838 -2.92879 0
M  V30 9116 H 846.917 2.01761 -2.26994 0
M  V30 9117 H 844.502 0.942448 -1.15924 0
M  V30 9118 H 846.384 4.09995 -0.973756 0
M  V30 9119 H 845.059 3.23355 -0.149444 0
M  V30 9120 H 843.966 2.84146 -2.43335 0
M  V30 9121 H 845.299 3.75125 -3.18656 0
M  V30 9122 N 846.951 1.19563 1.02676 0
M  V30 9123 C 847.898 0.935291 2.11 0
M  V30 9124 C 848.868 -0.130685 1.65585 0
M  V30 9125 O 850.053 0.0119062 1.90796 0
M  V30 9126 C 847.193 0.482384 3.41712 0
M  V30 9127 C 846.306 1.61537 4.00662 0
M  V30 9128 C 845.441 1.11378 5.19392 0
M  V30 9129 C 844.48 2.22052 5.70403 0
M  V30 9130 N 843.617 1.73185 6.80405 0
M  V30 9131 H 848.457 1.86275 2.32606 0
M  V30 9132 H 845.994 0.928656 1.14081 0
M  V30 9133 H 847.952 0.20118 4.16715 0
M  V30 9134 H 846.582 -0.408086 3.2021 0
M  V30 9135 H 845.634 2.01173 3.22852 0
M  V30 9136 H 846.946 2.44912 4.34534 0
M  V30 9137 H 846.1 0.787935 6.01562 0
M  V30 9138 H 844.839 0.249789 4.8706 0
M  V30 9139 H 843.844 2.55465 4.86845 0
M  V30 9140 H 845.069 3.08911 6.04774 0
M  V30 9141 H 843.015 0.890973 6.49921 0
M  V30 9142 H 842.932 2.50148 7.13416 0
M  V30 9143 H 844.2 1.4357 7.66164 0
M  V30 9144 N 848.429 -1.21819 0.999893 0
M  V30 9145 C 849.361 -2.23356 0.514256 0
M  V30 9146 C 850.374 -1.5795 -0.394413 0
M  V30 9147 O 851.563 -1.77427 -0.195428 0
M  V30 9148 C 848.663 -3.37797 -0.273207 0
M  V30 9149 C 847.836 -4.32791 0.633293 0
M  V30 9150 C 846.895 -5.26098 -0.103673 0
M  V30 9151 O 845.921 -5.66881 0.513269 0
M  V30 9152 N 847.123 -5.63764 -1.38383 0
M  V30 9153 H 849.888 -2.65653 1.3874 0
M  V30 9154 H 847.449 -1.3619 0.875431 0
M  V30 9155 H 849.441 -3.97209 -0.775053 0
M  V30 9156 H 848.011 -2.94527 -1.0475 0
M  V30 9157 H 847.231 -3.71595 1.31571 0
M  V30 9158 H 848.519 -4.93196 1.25039 0
M  V30 9159 H 847.917 -5.32614 -1.90627 0
M  V30 9160 H 846.474 -6.25562 -1.83073 0
M  V30 9161 N 849.908 -0.773975 -1.37286 0
M  V30 9162 C 850.818 -0.162571 -2.34036 0
M  V30 9163 C 851.834 0.677022 -1.60289 0
M  V30 9164 O 853.01 0.596423 -1.92366 0
M  V30 9165 C 850.075 0.70457 -3.39465 0
M  V30 9166 C 849.136 -0.151738 -4.29032 0
M  V30 9167 C 848.369 0.674111 -5.29426 0
M  V30 9168 O 848.592 1.91107 -5.37433 0
M  V30 9169 O 847.526 0.0821398 -6.01844 0
M  V30 9170 H 851.352 -0.962119 -2.88057 0
M  V30 9171 H 848.937 -0.53517 -1.39486 0
M  V30 9172 H 850.819 1.19954 -4.03967 0
M  V30 9173 H 849.494 1.48227 -2.87768 0
M  V30 9174 H 848.401 -0.693118 -3.67623 0
M  V30 9175 H 849.734 -0.892575 -4.84039 0
M  V30 9176 N 851.386 1.48609 -0.524698 0
M  V30 9177 C 852.333 2.29539 0.240956 0
M  V30 9178 C 853.303 1.37033 0.938681 0
M  V30 9179 O 854.488 1.65996 0.940737 0
M  V30 9180 C 851.628 3.20278 1.28514 0
M  V30 9181 C 850.741 4.27858 0.596798 0
M  V30 9182 C 849.876 5.05784 1.62346 0
M  V30 9183 C 848.915 6.05173 0.918287 0
M  V30 9184 N 848.052 6.76176 1.89025 0
M  V30 9185 H 852.892 2.945 -0.455368 0
M  V30 9186 H 850.429 1.45188 -0.236403 0
M  V30 9187 H 852.387 3.71281 1.90279 0
M  V30 9188 H 851.017 2.57251 1.94992 0
M  V30 9189 H 850.069 3.80162 -0.134668 0
M  V30 9190 H 851.381 4.98782 0.0428506 0
M  V30 9191 H 850.535 5.60775 2.31553 0
M  V30 9192 H 849.274 4.34687 2.2113 0
M  V30 9193 H 848.279 5.49391 0.21212 0
M  V30 9194 H 849.504 6.78265 0.336633 0
M  V30 9195 H 847.45 6.07834 2.46726 0
M  V30 9196 H 847.367 7.43157 1.3876 0
M  V30 9197 H 848.635 7.35759 2.57446 0
M  V30 9198 N 852.864 0.259585 1.55447 0
M  V30 9199 C 854.112 -0.360893 1.98852 0
M  V30 9200 C 854.433 -1.57535 1.14924 0
M  V30 9201 O 853.703 -1.94485 0.235025 0
M  V30 9202 H 852.283 -0.136332 0.734454 0
M  V30 9203 H 854.945 0.361319 1.91522 0
M  V30 9204 H 854.041 -0.661388 3.05012 0
M  V30 9205 N 854.342 -1.57594 -0.0133615 0
M  V30 9206 C 855.275 -2.02991 -1.04259 0
M  V30 9207 C 856.253 -0.917193 -1.34262 0
M  V30 9208 O 857.437 -1.18428 -1.46653 0
M  V30 9209 C 854.564 -2.41624 -2.37351 0
M  V30 9210 C 853.61 -3.63495 -2.231 0
M  V30 9211 S 854.443 -5.1198 -1.5696 0
M  V30 9212 C 855.599 -5.5387 -2.91511 0
M  V30 9213 H 855.832 -2.89973 -0.655985 0
M  V30 9214 H 853.365 -1.52769 -0.223827 0
M  V30 9215 H 855.323 -2.64551 -3.13884 0
M  V30 9216 H 853.984 -1.55065 -2.73155 0
M  V30 9217 H 853.177 -3.88233 -3.21389 0
M  V30 9218 H 852.779 -3.405 -1.54711 0
M  V30 9219 H 855.071 -5.55514 -3.87828 0
M  V30 9220 H 856.014 -6.53988 -2.71488 0
M  V30 9221 H 856.422 -4.81404 -2.94806 0
M  V30 9222 N 855.82 0.285905 -1.54985 0
M  V30 9223 C 856.783 1.33625 -1.86218 0
M  V30 9224 C 857.783 1.42971 -0.735936 0
M  V30 9225 O 858.973 1.42345 -1.00417 0
M  V30 9226 C 856.105 2.71926 -2.05595 0
M  V30 9227 H 857.298 1.07167 -2.80099 0
M  V30 9228 H 854.851 0.523335 -1.47278 0
M  V30 9229 H 855.586 3.03583 -1.14053 0
M  V30 9230 H 855.371 2.6653 -2.87583 0
M  V30 9231 H 856.861 3.47841 -2.31077 0
M  V30 9232 N 857.298 1.47698 0.54982 0
M  V30 9233 C 858.246 1.61156 1.67724 0
M  V30 9234 C 859.24 0.478606 1.62498 0
M  V30 9235 O 860.446 0.656661 1.67595 0
M  V30 9236 H 856.821 0.507304 0.55511 0
M  V30 9237 H 858.792 2.55884 1.53512 0
M  V30 9238 C 857.541 1.64994 3.06059 0
M  V30 9239 H 856.864 2.51525 3.10765 0
M  V30 9240 H 858.304 1.78459 3.84615 0
M  V30 9241 C 856.763 0.384677 3.34697 0
M  V30 9242 O 857.293 -0.511057 3.98436 0
M  V30 9243 N 855.499 0.262434 2.89413 0
M  V30 9244 H 855.046 0.99229 2.37721 0
M  V30 9245 H 855.004 -0.583177 3.08944 0
M  V30 9246 N 858.776 -0.797141 1.35954 0
M  V30 9247 C 859.706 -1.92387 1.32323 0
M  V30 9248 C 860.687 -1.68967 0.196007 0
M  V30 9249 O 861.872 -1.90193 0.39245 0
M  V30 9250 C 859.002 -3.29286 1.10398 0
M  V30 9251 C 857.956 -3.67212 2.19862 0
M  V30 9252 C 857.282 -5.02377 1.8309 0
M  V30 9253 C 858.582 -3.76602 3.61896 0
M  V30 9254 H 860.276 -1.95683 2.26602 0
M  V30 9255 H 857.822 -0.94007 1.09081 0
M  V30 9256 H 859.775 -4.07721 1.06495 0
M  V30 9257 H 858.499 -3.26358 0.125668 0
M  V30 9258 H 857.158 -2.91069 2.22878 0
M  V30 9259 H 856.806 -4.95961 0.838527 0
M  V30 9260 H 856.506 -5.28722 2.56372 0
M  V30 9261 H 858.03 -5.8324 1.80729 0
M  V30 9262 H 859.444 -4.45246 3.6115 0
M  V30 9263 H 857.841 -4.14425 4.34018 0
M  V30 9264 H 858.911 -2.77906 3.97361 0
M  V30 9265 N 860.254 -1.20106 -1.0204 0
M  V30 9266 C 861.217 -0.948261 -2.08664 0
M  V30 9267 C 862.217 0.0746753 -1.60627 0
M  V30 9268 O 863.407 -0.160981 -1.73455 0
M  V30 9269 C 860.539 -0.426854 -3.38217 0
M  V30 9270 H 861.732 -1.894 -2.32524 0
M  V30 9271 H 859.285 -1.0159 -1.18782 0
M  V30 9272 H 860.02 0.524532 -3.2003 0
M  V30 9273 H 859.805 -1.16451 -3.74408 0
M  V30 9274 H 861.295 -0.269346 -4.1673 0
M  V30 9275 N 861.732 1.21287 -1.00634 0
M  V30 9276 C 862.664 2.2308 -0.526094 0
M  V30 9277 C 863.677 1.58157 0.386031 0
M  V30 9278 O 864.866 1.77528 0.186016 0
M  V30 9279 C 861.966 3.37937 0.255289 0
M  V30 9280 C 861.139 4.32449 -0.656236 0
M  V30 9281 C 860.198 5.26145 0.0757714 0
M  V30 9282 O 859.224 5.66601 -0.543325 0
M  V30 9283 N 860.426 5.6449 1.35391 0
M  V30 9284 H 863.191 2.64913 -1.40147 0
M  V30 9285 H 860.752 1.35724 -0.882641 0
M  V30 9286 H 862.744 3.97614 0.753977 0
M  V30 9287 H 861.314 2.95078 1.03187 0
M  V30 9288 H 860.534 3.70892 -1.3354 0
M  V30 9289 H 861.822 4.92526 -1.27653 0
M  V30 9290 H 861.22 5.33617 1.878 0
M  V30 9291 H 859.777 6.26524 1.79753 0
M  V30 9292 N 863.21 0.781244 1.36873 0
M  V30 9293 C 864.14 0.188128 2.32741 0
M  V30 9294 C 865.121 -0.672326 1.56249 0
M  V30 9295 O 866.306 -0.607835 1.84442 0
M  V30 9296 C 863.436 -0.684341 3.40491 0
M  V30 9297 C 862.39 0.0755641 4.27933 0
M  V30 9298 C 861.716 -0.916968 5.26779 0
M  V30 9299 C 863.016 1.26006 5.06873 0
M  V30 9300 H 864.71 0.989016 2.82593 0
M  V30 9301 H 862.256 0.477038 1.35869 0
M  V30 9302 H 864.209 -1.10915 4.06541 0
M  V30 9303 H 862.933 -1.51785 2.89187 0
M  V30 9304 H 861.592 0.481258 3.63427 0
M  V30 9305 H 861.24 -1.74528 4.71751 0
M  V30 9306 H 860.94 -0.413 5.86147 0
M  V30 9307 H 862.464 -1.34052 5.95703 0
M  V30 9308 H 863.878 0.911425 5.66009 0
M  V30 9309 H 862.275 1.69676 5.75613 0
M  V30 9310 H 863.345 2.05948 4.38991 0
M  V30 9311 N 864.689 -1.48329 0.532571 0
M  V30 9312 C 865.599 -2.33445 -0.232546 0
M  V30 9313 C 866.615 -1.46651 -0.93645 0
M  V30 9314 O 867.791 -1.79627 -0.910834 0
M  V30 9315 C 864.856 -3.22824 -1.26434 0
M  V30 9316 C 863.917 -4.25492 -0.570511 0
M  V30 9317 C 863.15 -5.10601 -1.55315 0
M  V30 9318 O 863.373 -4.97733 -2.78599 0
M  V30 9319 O 862.307 -5.91927 -1.09112 0
M  V30 9320 H 866.133 -3.00119 0.464988 0
M  V30 9321 H 863.718 -1.46489 0.293462 0
M  V30 9322 H 865.6 -3.78103 -1.86055 0
M  V30 9323 H 864.275 -2.58807 -1.94424 0
M  V30 9324 H 863.182 -3.74041 0.0662587 0
M  V30 9325 H 864.515 -4.92154 0.0674904 0
M  V30 9326 N 866.167 -0.267825 -1.55308 0
M  V30 9327 C 867.13 0.60965 -2.20943 0
M  V30 9328 C 868.13 1.0869 -1.18504 0
M  V30 9329 O 869.32 0.988248 -1.43455 0
M  V30 9330 C 866.452 1.84027 -2.86961 0
M  V30 9331 H 867.645 0.0366806 -2.99878 0
M  V30 9332 H 865.198 -0.0183941 -1.56289 0
M  V30 9333 H 865.933 2.45394 -2.1202 0
M  V30 9334 H 865.718 1.50605 -3.62023 0
M  V30 9335 H 867.208 2.46442 -3.37129 0
M  V30 9336 N 867.645 1.57599 0.00500368 0
M  V30 9337 C 868.575 2.11143 0.99705 0
M  V30 9338 C 869.556 1.0194 1.3617 0
M  V30 9339 O 870.741 1.29596 1.44632 0
M  V30 9340 C 867.871 2.61062 2.2905 0
M  V30 9341 C 866.825 3.74745 2.0676 0
M  V30 9342 C 866.151 4.10961 3.42075 0
M  V30 9343 C 867.451 5.02222 1.43424 0
M  V30 9344 H 869.145 2.94281 0.551251 0
M  V30 9345 H 866.691 1.41565 0.263715 0
M  V30 9346 H 868.644 2.97146 2.98801 0
M  V30 9347 H 867.368 1.75038 2.75734 0
M  V30 9348 H 866.027 3.39047 1.39436 0
M  V30 9349 H 865.675 3.21968 3.86453 0
M  V30 9350 H 865.375 4.87549 3.27979 0
M  V30 9351 H 866.899 4.49599 4.1315 0
M  V30 9352 H 868.313 5.36109 2.03125 0
M  V30 9353 H 866.71 5.83581 1.39831 0
M  V30 9354 H 867.78 4.83224 0.40285 0
M  V30 9355 N 869.123 -0.277682 1.55134 0
M  V30 9356 C 870.353 -1.02677 1.79279 0
M  V30 9357 C 870.761 -1.80599 0.563962 0
M  V30 9358 O 870.104 -1.77416 -0.476378 0
M  V30 9359 C 870.166 -2.03617 2.96277 0
M  V30 9360 C 869.83 -1.44676 4.33495 0
M  V30 9361 C 870.827 -0.864811 5.12657 0
M  V30 9362 C 868.512 -1.47537 4.80144 0
M  V30 9363 C 870.506 -0.319322 6.366 0
M  V30 9364 C 868.193 -0.926016 6.04043 0
M  V30 9365 C 869.191 -0.348988 6.82108 0
M  V30 9366 O 868.879 0.191964 8.03671 0
M  V30 9367 H 868.611 -0.309232 0.601125 0
M  V30 9368 H 871.165 -0.315308 2.02965 0
M  V30 9369 H 869.395 -2.78509 2.68272 0
M  V30 9370 H 871.084 -2.64616 3.07788 0
M  V30 9371 H 871.85 -0.835438 4.7775 0
M  V30 9372 H 867.729 -1.91389 4.19394 0
M  V30 9373 H 871.273 0.131709 6.97476 0
M  V30 9374 H 867.17 -0.952613 6.38432 0
M  V30 9375 H 867.938 0.0808779 8.1846 0
M  V30 9376 N 870.601 -1.47988 -0.541979 0
M  V30 9377 C 871.533 -1.5769 -1.66332 0
M  V30 9378 C 872.546 -0.461994 -1.56107 0
M  V30 9379 O 873.735 -0.732306 -1.62787 0
M  V30 9380 C 870.835 -1.47939 -3.04905 0
M  V30 9381 C 870.008 -2.74263 -3.40733 0
M  V30 9382 C 869.067 -2.58133 -4.58534 0
M  V30 9383 O 868.093 -3.31991 -4.62354 0
M  V30 9384 N 869.295 -1.6696 -5.55972 0
M  V30 9385 H 872.06 -2.54389 -1.5845 0
M  V30 9386 H 869.621 -1.4456 -0.728979 0
M  V30 9387 H 871.613 -1.34861 -3.81569 0
M  V30 9388 H 870.183 -0.592626 -3.06931 0
M  V30 9389 H 869.403 -3.01992 -2.53366 0
M  V30 9390 H 870.691 -3.58094 -3.6145 0
M  V30 9391 H 870.089 -1.06134 -5.55655 0
M  V30 9392 H 868.646 -1.59826 -6.31901 0
M  V30 9393 N 872.079 0.78992 -1.36375 0
M  V30 9394 C 873.304 1.58389 -1.33895 0
M  V30 9395 C 873.729 1.8794 0.0774934 0
M  V30 9396 O 873.087 1.4785 1.0493 0
M  V30 9397 C 873.135 2.88201 -2.16732 0
M  V30 9398 O 872.239 3.81778 -1.55946 0
M  V30 9399 H 871.58 0.480471 -0.458305 0
M  V30 9400 H 874.11 0.979119 -1.79651 0
M  V30 9401 H 874.12 3.37475 -2.29292 0
M  V30 9402 H 872.795 2.66019 -3.19698 0
M  V30 9403 H 871.372 3.40371 -1.52323 0
M  V30 9404 N 873.557 1.20646 1.01402 0
M  V30 9405 C 874.782 1.04462 1.79172 0
M  V30 9406 C 875.207 -0.401588 1.83763 0
M  V30 9407 O 874.565 -1.28934 1.27459 0
M  V30 9408 C 874.613 1.63583 3.21361 0
M  V30 9409 O 873.717 0.875198 4.03006 0
M  V30 9410 H 873.058 0.368235 0.552539 0
M  V30 9411 H 875.588 1.59994 1.27526 0
M  V30 9412 H 875.598 1.67426 3.72065 0
M  V30 9413 H 874.273 2.68835 3.17334 0
M  V30 9414 H 872.85 0.911172 3.61597 0
M  V30 9415 N 875.035 -1.20752 1.01276 0
M  V30 9416 C 876.281 -1.90582 0.710627 0
M  V30 9417 C 876.636 -1.7713 -0.751184 0
M  V30 9418 O 875.929 -1.14223 -1.5383 0
M  V30 9419 C 876.123 -3.40808 1.07633 0
M  V30 9420 C 875.952 -3.68878 2.57214 0
M  V30 9421 C 874.722 -3.87805 3.23937 0
M  V30 9422 C 876.92 -3.71753 3.55393 0
M  V30 9423 N 874.902 -4.0336 4.62789 0
M  V30 9424 C 876.273 -3.92686 4.79789 0
M  V30 9425 C 878.328 -3.54697 3.4942 0
M  V30 9426 C 877.031 -3.98332 5.98936 0
M  V30 9427 C 879.057 -3.61612 4.67964 0
M  V30 9428 C 878.419 -3.83014 5.91168 0
M  V30 9429 H 874.518 -0.717219 0.311643 0
M  V30 9430 H 877.102 -1.45228 1.2968 0
M  V30 9431 H 875.273 -3.84923 0.518527 0
M  V30 9432 H 877.005 -3.98096 0.728128 0
M  V30 9433 H 873.76 -3.86029 2.74369 0
M  V30 9434 H 874.184 -4.15023 5.34869 0
M  V30 9435 H 878.826 -3.3712 2.55166 0
M  V30 9436 H 876.544 -4.14706 6.93574 0
M  V30 9437 H 880.13 -3.49728 4.64954 0
M  V30 9438 H 879.01 -3.88219 6.81363 0
M  V30 9439 N 876.513 -0.788492 -1.36457 0
M  V30 9440 C 877.79 -0.284484 -1.9352 0
M  V30 9441 C 878.17 1.2232 -1.7205 0
M  V30 9442 O 877.518 2.01424 -1.07892 0
M  V30 9443 C 877.728 -0.676106 -3.42388 0
M  V30 9444 C 879.076 -0.655327 -4.19512 0
M  V30 9445 O 880.1 -0.616523 -3.50824 0
M  V30 9446 O 878.959 -0.697391 -5.42032 0
M  V30 9447 H 876.053 -0.0701769 -0.824017 0
M  V30 9448 H 878.599 -0.870974 -1.45644 0
M  V30 9449 H 877.371 -1.71596 -3.51668 0
M  V30 9450 H 876.994 -0.0634517 -3.97549 0
M  V30 9451 N 877.991 1.48044 -0.54043 0
M  V30 9452 C 879.216 2.07396 -0.0124765 0
M  V30 9453 C 879.641 1.39288 1.26414 0
M  V30 9454 O 878.999 0.462252 1.75308 0
M  V30 9455 C 879.047 3.60131 0.18377 0
M  V30 9456 O 878.151 3.92995 1.25014 0
M  V30 9457 H 877.492 0.662554 -0.0438026 0
M  V30 9458 H 880.022 1.90306 -0.751327 0
M  V30 9459 H 880.032 4.06003 0.403197 0
M  V30 9460 H 878.707 4.09105 -0.74874 0
M  V30 9461 H 877.284 3.5889 1.01254 0
M  V30 9462 N 879.47 0.276058 1.55163 0
M  V30 9463 C 880.402 -0.644254 2.19959 0
M  V30 9464 C 881.415 -1.11675 1.18459 0
M  V30 9465 O 882.604 -1.0385 1.45181 0
M  V30 9466 C 879.704 -1.89093 2.81242 0
M  V30 9467 C 878.877 -1.56509 4.08441 0
M  V30 9468 C 877.936 -2.66433 4.53762 0
M  V30 9469 O 876.962 -2.32579 5.19515 0
M  V30 9470 N 878.164 -3.96509 4.23982 0
M  V30 9471 H 880.929 -0.0896808 2.99566 0
M  V30 9472 H 878.49 0.0971981 1.61608 0
M  V30 9473 H 880.482 -2.61929 3.08505 0
M  V30 9474 H 879.052 -2.35453 2.05622 0
M  V30 9475 H 878.272 -0.670522 3.88455 0
M  V30 9476 H 879.56 -1.32242 4.91314 0
M  V30 9477 H 878.958 -4.26834 3.71254 0
M  V30 9478 H 877.515 -4.6572 4.56014 0
M  V30 9479 N 880.948 -1.576 0.00335426 0
M  V30 9480 C 882.195 -1.90713 -0.680791 0
M  V30 9481 C 882.523 -0.877263 -1.73592 0
M  V30 9482 O 881.778 0.117497 -1.95347 0
M  V30 9483 C 882.077 -3.3058 -1.35837 0
M  V30 9484 C 881.743 -4.48786 -0.436111 0
M  V30 9485 C 880.405 -4.80855 -0.182195 0
M  V30 9486 C 882.757 -5.20821 0.198677 0
M  V30 9487 C 880.085 -5.8233 0.714747 0
M  V30 9488 C 882.437 -6.23252 1.08351 0
M  V30 9489 C 881.101 -6.53776 1.34658 0
M  V30 9490 H 880.371 -0.697869 -0.249119 0
M  V30 9491 H 883.018 -1.91407 0.0596011 0
M  V30 9492 H 881.323 -3.26026 -2.17289 0
M  V30 9493 H 883.02 -3.53462 -1.89383 0
M  V30 9494 H 879.61 -4.23731 -0.644186 0
M  V30 9495 H 883.794 -4.96298 0.0155259 0
M  V30 9496 H 879.05 -6.04339 0.926529 0
M  V30 9497 H 883.224 -6.78199 1.58172 0
M  V30 9498 H 880.851 -7.32225 2.04328 0
M  V30 9499 N 882.426 0.269451 -1.5528 0
M  V30 9500 C 883.672 1.00206 -1.76314 0
M  V30 9501 C 884.005 1.85812 -0.564581 0
M  V30 9502 O 883.28 1.89509 0.437769 0
M  V30 9503 C 883.563 1.88163 -3.07029 0
M  V30 9504 C 883.416 1.05527 -4.37246 0
M  V30 9505 C 884.735 2.8681 -3.33808 0
M  V30 9506 H 881.854 0.36288 -0.641473 0
M  V30 9507 H 884.496 0.274188 -1.88011 0
M  V30 9508 H 882.646 2.50224 -2.97187 0
M  V30 9509 H 884.318 0.455094 -4.5905 0
M  V30 9510 H 882.561 0.358842 -4.32313 0
M  V30 9511 H 883.232 1.70397 -5.25042 0
M  V30 9512 H 885.708 2.34884 -3.43466 0
M  V30 9513 H 884.584 3.45492 -4.26528 0
M  V30 9514 H 884.845 3.62118 -2.5362 0
M  V30 9515 N 883.904 1.48273 0.534124 0
M  V30 9516 C 885.129 1.59988 1.31979 0
M  V30 9517 C 885.554 0.258824 1.86311 0
M  V30 9518 O 884.912 -0.768885 1.64188 0
M  V30 9519 C 884.96 2.64642 2.44943 0
M  V30 9520 O 884.064 2.21515 3.47858 0
M  V30 9521 H 883.405 0.536625 0.391063 0
M  V30 9522 H 885.935 1.94229 0.643135 0
M  V30 9523 H 885.945 2.85786 2.91187 0
M  V30 9524 H 884.62 3.62004 2.04758 0
M  V30 9525 H 883.197 2.10567 3.0776 0
M  V30 9526 N 885.382 -0.782676 1.36792 0
M  V30 9527 C 886.63 -1.53778 1.31136 0
M  V30 9528 C 886.951 -1.94706 -0.107014 0
M  V30 9529 O 886.221 -1.65465 -1.04872 0
M  V30 9530 H 884.801 -0.570328 0.482426 0
M  V30 9531 H 887.463 -0.932181 1.71162 0
M  V30 9532 H 886.559 -2.44224 1.94321 0
M  V30 9533 N 886.86 -1.21182 -1.00761 0
M  V30 9534 C 888.108 -1.02543 -1.74153 0
M  V30 9535 C 888.429 0.442372 -1.89916 0
M  V30 9536 O 887.699 1.31927 -1.44818 0
M  V30 9537 H 886.279 -0.37644 -0.645214 0
M  V30 9538 H 888.941 -1.52446 -1.21434 0
M  V30 9539 H 888.037 -1.49122 -2.7417 0
M  V30 9540 N 888.338 1.20213 -1.01915 0
M  V30 9541 C 889.248 2.26763 -0.601311 0
M  V30 9542 C 890.264 1.70185 0.362369 0
M  V30 9543 O 891.44 2.00165 0.222682 0
M  V30 9544 C 888.505 3.46662 0.0512879 0
M  V30 9545 C 887.566 4.18459 -0.958659 0
M  V30 9546 C 886.799 5.32634 -0.337107 0
M  V30 9547 O 887.022 5.63841 0.86251 0
M  V30 9548 O 885.956 5.9258 -1.05511 0
M  V30 9549 H 889.782 2.64725 -1.48844 0
M  V30 9550 H 887.367 1.2688 -0.788784 0
M  V30 9551 H 889.249 4.19345 0.41564 0
M  V30 9552 H 887.924 3.1057 0.912572 0
M  V30 9553 H 886.831 3.47937 -1.37442 0
M  V30 9554 H 888.164 4.58498 -1.78999 0
M  V30 9555 N 889.816 0.795718 1.36037 0
M  V30 9556 C 891.093 0.294743 1.93367 0
M  V30 9557 C 891.473 -1.21406 1.72696 0
M  V30 9558 O 890.821 -2.00849 1.08959 0
M  V30 9559 C 891.031 0.694254 3.42025 0
M  V30 9560 C 892.379 0.677566 4.19159 0
M  V30 9561 O 893.403 0.635119 3.50492 0
M  V30 9562 O 892.262 0.726127 5.41655 0
M  V30 9563 H 889.356 0.0745459 0.823633 0
M  V30 9564 H 891.902 0.878685 1.4518 0
M  V30 9565 H 890.674 1.73458 3.50753 0
M  V30 9566 H 890.297 0.0845338 3.9751 0
M  V30 9567 N 891.294 -1.47756 0.548274 0
M  V30 9568 C 892.534 -2.04387 0.0231354 0
M  V30 9569 C 892.898 -1.41438 -1.29843 0
M  V30 9570 O 894.099 -1.89064 -1.91072 0
M  V30 9571 C 892.37 -3.57316 -0.077482 0
M  V30 9572 S 893.929 -4.35339 -0.550038 0
M  V30 9573 H 890.747 -0.710694 0.0208428 0
M  V30 9574 H 893.349 -1.81239 0.732984 0
M  V30 9575 H 892.053 -4.00658 0.88888 0
M  V30 9576 H 891.584 -3.84947 -0.811157 0
M  V30 9577 H 893.599 -4.61957 -1.81135 0
M  V30 9578 N 892.772 -0.284283 -1.55015 0
M  V30 9579 C 894.019 0.329864 -1.99795 0
M  V30 9580 C 894.347 1.55171 -1.1727 0
M  V30 9581 O 893.602 1.94312 -0.232667 0
M  V30 9582 C 893.901 0.747219 -3.49502 0
M  V30 9583 C 893.567 -0.37101 -4.49371 0
M  V30 9584 C 892.229 -0.678034 -4.76399 0
M  V30 9585 C 894.581 -1.12406 -5.08935 0
M  V30 9586 C 891.909 -1.74152 -5.60257 0
M  V30 9587 C 894.261 -2.17734 -5.93948 0
M  V30 9588 C 892.925 -2.49061 -6.19294 0
M  V30 9589 H 892.195 0.120706 -0.731103 0
M  V30 9590 H 894.842 -0.399904 -1.87278 0
M  V30 9591 H 893.147 1.55681 -3.59542 0
M  V30 9592 H 894.844 1.2333 -3.81563 0
M  V30 9593 H 891.434 -0.1216 -4.28427 0
M  V30 9594 H 895.618 -0.900119 -4.88069 0
M  V30 9595 H 890.874 -1.98915 -5.78137 0
M  V30 9596 H 895.048 -2.76553 -6.39133 0
M  V30 9597 H 892.675 -3.31602 -6.84064 0
M  V30 9598 N 894.251 1.57596 -0.0117121 0
M  V30 9599 C 895.498 1.91071 0.670667 0
M  V30 9600 C 895.826 0.886457 1.73125 0
M  V30 9601 O 895.081 -0.107135 1.95407 0
M  V30 9602 C 895.38 3.31296 1.34082 0
M  V30 9603 C 895.046 4.49011 0.412305 0
M  V30 9604 C 893.708 4.80945 0.156691 0
M  V30 9605 C 896.06 5.20709 -0.226294 0
M  V30 9606 C 893.388 5.81943 -0.745619 0
M  V30 9607 C 895.74 6.22668 -1.11655 0
M  V30 9608 C 894.404 6.53053 -1.38123 0
M  V30 9609 H 893.674 0.69918 0.245415 0
M  V30 9610 H 896.321 1.91373 -0.0697511 0
M  V30 9611 H 894.626 3.27174 2.15557 0
M  V30 9612 H 896.323 3.54461 1.87506 0
M  V30 9613 H 892.913 4.24067 0.621705 0
M  V30 9614 H 897.097 4.96282 -0.0418456 0
M  V30 9615 H 892.353 6.03839 -0.958566 0
M  V30 9616 H 896.527 6.77351 -1.61767 0
M  V30 9617 H 894.154 7.31132 -2.08208 0
M  V30 9618 N 895.729 -0.261212 1.5542 0
M  V30 9619 C 896.978 -0.989072 1.75785 0
M  V30 9620 C 897.291 -1.8702 0.572961 0
M  V30 9621 O 898.497 -2.63374 0.659289 0
M  V30 9622 C 896.953 -1.80857 3.11157 0
M  V30 9623 C 896.561 -0.975535 4.3725 0
M  V30 9624 C 898.305 -2.53003 3.40866 0
M  V30 9625 C 896.212 -1.7901 5.63657 0
M  V30 9626 H 895.142 -0.373019 0.655266 0
M  V30 9627 H 897.793 -0.244267 1.81867 0
M  V30 9628 H 896.175 -2.59479 2.99144 0
M  V30 9629 H 897.349 -0.232661 4.60212 0
M  V30 9630 H 895.664 -0.368083 4.1477 0
M  V30 9631 H 898.261 -3.14372 4.32521 0
M  V30 9632 H 898.604 -3.23891 2.61535 0
M  V30 9633 H 899.137 -1.81403 3.54031 0
M  V30 9634 H 895.876 -1.12522 6.4577 0
M  V30 9635 H 895.396 -2.50863 5.44819 0
M  V30 9636 H 897.075 -2.36082 6.0239 0
M  V30 9637 N 897.207 -1.48554 -0.526253 0
M  V30 9638 C 898.155 -1.63804 -1.65139 0
M  V30 9639 C 899.149 -0.504398 -1.61716 0
M  V30 9640 O 900.355 -0.683241 -1.66529 0
M  V30 9641 H 896.73 -0.516071 -0.546969 0
M  V30 9642 H 898.701 -2.58294 -1.49421 0
M  V30 9643 C 897.45 -1.69843 -3.03395 0
M  V30 9644 H 896.773 -2.56438 -3.06724 0
M  V30 9645 H 898.213 -1.84555 -3.81727 0
M  V30 9646 C 896.672 -0.437875 -3.34042 0
M  V30 9647 O 897.202 0.447604 -3.99198 0
M  V30 9648 N 895.408 -0.308444 -2.88958 0
M  V30 9649 H 894.955 -1.02998 -2.36112 0
M  V30 9650 H 894.913 0.533952 -3.09833 0
M  V30 9651 N 898.685 0.775411 -1.37205 0
M  V30 9652 C 899.617 1.89761 -1.28544 0
M  V30 9653 C 900.63 1.61542 -0.201996 0
M  V30 9654 O 901.819 1.72528 -0.457848 0
M  V30 9655 C 898.919 3.24904 -0.963885 0
M  V30 9656 C 898.092 3.80796 -2.15205 0
M  V30 9657 C 897.151 4.94407 -1.80135 0
M  V30 9658 O 896.177 5.10185 -2.52388 0
M  V30 9659 N 897.379 5.75722 -0.743298 0
M  V30 9660 H 900.144 1.97708 -2.25237 0
M  V30 9661 H 897.705 0.954348 -1.30782 0
M  V30 9662 H 899.697 3.9842 -0.710182 0
M  V30 9663 H 898.267 3.12483 -0.085632 0
M  V30 9664 H 897.487 2.99101 -2.56773 0
M  V30 9665 H 898.775 4.1487 -2.94552 0
M  V30 9666 H 898.173 5.65518 -0.143655 0
M  V30 9667 H 896.73 6.4948 -0.549446 0
M  V30 9668 N 900.163 1.21714 1.00117 0
M  V30 9669 C 901.41 1.0367 1.73951 0
M  V30 9670 C 901.738 -0.429289 1.89703 0
M  V30 9671 O 900.993 -1.33475 1.43119 0
M  V30 9672 C 901.292 1.68345 3.15269 0
M  V30 9673 C 900.958 3.18214 3.19454 0
M  V30 9674 C 899.62 3.59109 3.20303 0
M  V30 9675 C 901.972 4.14179 3.16394 0
M  V30 9676 C 899.3 4.94467 3.15783 0
M  V30 9677 C 901.652 5.49502 3.13416 0
M  V30 9678 C 900.316 5.8979 3.12577 0
M  V30 9679 H 899.586 0.379355 0.63653 0
M  V30 9680 H 902.233 1.51361 1.17312 0
M  V30 9681 H 900.538 1.12957 3.75164 0
M  V30 9682 H 902.235 1.51882 3.71124 0
M  V30 9683 H 898.825 2.85646 3.19538 0
M  V30 9684 H 903.009 3.83607 3.14895 0
M  V30 9685 H 898.265 5.24923 3.13473 0
M  V30 9686 H 902.439 6.23595 3.10003 0
M  V30 9687 H 900.066 6.94643 3.08829 0
M  V30 9688 N 901.641 -1.19671 1.02551 0
M  V30 9689 C 902.881 -1.90971 0.728668 0
M  V30 9690 C 903.245 -1.7762 -0.729057 0
M  V30 9691 O 904.446 -2.43484 -1.13882 0
M  V30 9692 C 902.717 -3.3794 1.16323 0
M  V30 9693 S 904.276 -4.27493 0.989722 0
M  V30 9694 H 901.094 -0.659617 0.265381 0
M  V30 9695 H 903.696 -1.44698 1.31463 0
M  V30 9696 H 902.4 -3.45181 2.21986 0
M  V30 9697 H 901.931 -3.89243 0.570417 0
M  V30 9698 H 903.946 -4.96096 -0.101666 0
M  V30 9699 N 903.119 -0.802921 -1.35613 0
M  V30 9700 C 904.029 -0.212177 -2.33639 0
M  V30 9701 C 905.045 0.642871 -1.61689 0
M  V30 9702 O 906.221 0.555485 -1.93588 0
M  V30 9703 C 903.286 0.632406 -3.40883 0
M  V30 9704 C 902.347 -0.242708 -4.28613 0
M  V30 9705 C 901.58 0.56166 -5.30736 0
M  V30 9706 O 901.803 1.79664 -5.41366 0
M  V30 9707 O 900.737 -0.0455387 -6.01883 0
M  V30 9708 H 904.563 -1.023 -2.85952 0
M  V30 9709 H 902.148 -0.564636 -1.38319 0
M  V30 9710 H 904.03 1.11358 -4.0642 0
M  V30 9711 H 902.705 1.42089 -2.90848 0
M  V30 9712 H 901.612 -0.77094 -3.6607 0
M  V30 9713 H 902.945 -0.995046 -4.82037 0
M  V30 9714 N 904.597 1.47463 -0.556102 0
M  V30 9715 C 905.843 2.02775 -0.0316806 0
M  V30 9716 C 906.176 1.42967 1.3143 0
M  V30 9717 O 905.451 0.584847 1.85499 0
M  V30 9718 C 905.734 3.60046 0.0625742 0
M  V30 9719 C 905.587 4.30288 -1.31043 0
M  V30 9720 C 906.906 4.33195 0.776553 0
M  V30 9721 H 904.025 0.736886 -0.0129869 0
M  V30 9722 H 906.667 1.75904 -0.718177 0
M  V30 9723 H 904.817 3.83071 0.647231 0
M  V30 9724 H 906.489 4.18607 -1.9382 0
M  V30 9725 H 904.732 3.90685 -1.8854 0
M  V30 9726 H 905.403 5.38861 -1.1972 0
M  V30 9727 H 907.879 4.15156 0.280147 0
M  V30 9728 H 906.755 5.42869 0.81146 0
M  V30 9729 H 907.016 4.02336 1.83244 0
M  V30 9730 N 906.075 0.2925 1.54862 0
M  V30 9731 C 907.491 -0.0611461 1.59483 0
M  V30 9732 C 907.691 -1.53141 1.30958 0
M  V30 9733 O 906.747 -2.28291 1.07887 0
M  V30 9734 C 908.06 0.329143 2.98893 0
M  V30 9735 C 909.608 0.2772 3.1177 0
M  V30 9736 C 910.083 0.642185 4.53475 0
M  V30 9737 N 911.574 0.594396 4.5937 0
M  V30 9738 C 912.309 0.849385 5.67074 0
M  V30 9739 N 911.805 1.1699 6.82851 0
M  V30 9740 N 913.598 0.777016 5.56704 0
M  V30 9741 H 905.749 1.25079 1.71665 0
M  V30 9742 H 908.012 0.506516 0.80134 0
M  V30 9743 H 907.718 1.35233 3.24661 0
M  V30 9744 H 907.592 -0.321442 3.75828 0
M  V30 9745 H 909.979 -0.736725 2.85756 0
M  V30 9746 H 910.06 0.962289 2.3701 0
M  V30 9747 H 909.704 1.65388 4.80218 0
M  V30 9748 H 909.634 -0.0648831 5.2656 0
M  V30 9749 H 912.125 0.357256 3.76208 0
M  V30 9750 H 912.438 1.35067 7.60905 0
M  V30 9751 H 910.783 1.20785 6.84424 0
M  V30 9752 H 913.974 0.526333 4.65132 0
M  V30 9753 H 914.147 0.979113 6.4056 0
M  V30 9754 N 907.553 -1.57587 0.0200696 0
M  V30 9755 C 908.5 -2.09667 -0.964791 0
M  V30 9756 C 909.47 -0.99664 -1.32877 0
M  V30 9757 O 910.655 -1.2703 -1.42366 0
M  V30 9758 C 907.795 -2.62101 -2.24493 0
M  V30 9759 C 906.908 -3.8608 -1.93821 0
M  V30 9760 C 906.043 -4.26939 -3.16064 0
M  V30 9761 C 905.082 -5.43701 -2.81169 0
M  V30 9762 N 904.219 -5.79759 -3.9601 0
M  V30 9763 H 909.059 -2.93538 -0.513751 0
M  V30 9764 H 906.596 -1.45096 -0.242 0
M  V30 9765 H 908.554 -2.90587 -2.99358 0
M  V30 9766 H 907.184 -1.81074 -2.6723 0
M  V30 9767 H 906.236 -3.64378 -1.09237 0
M  V30 9768 H 907.548 -4.71028 -1.64115 0
M  V30 9769 H 906.702 -4.56814 -3.99257 0
M  V30 9770 H 905.441 -3.40739 -3.48924 0
M  V30 9771 H 904.446 -5.13529 -1.96387 0
M  V30 9772 H 905.671 -6.31593 -2.49535 0
M  V30 9773 H 903.617 -4.96516 -4.28729 0
M  V30 9774 H 903.534 -6.59327 -3.69896 0
M  V30 9775 H 904.802 -6.14235 -4.79933 0
M  V30 9776 N 909.032 0.252966 -1.55557 0
M  V30 9777 C 910.309 1.00432 -1.67847 0
M  V30 9778 C 910.689 2.03587 -0.55816 0
M  V30 9779 O 910.037 2.24239 0.439197 0
M  V30 9780 C 910.247 1.64313 -3.079 0
M  V30 9781 C 911.595 2.14726 -3.66303 0
M  V30 9782 O 912.619 1.74264 -3.10661 0
M  V30 9783 O 911.478 2.89 -4.63833 0
M  V30 9784 H 908.572 0.467102 -0.682455 0
M  V30 9785 H 911.118 0.247233 -1.67889 0
M  V30 9786 H 909.89 0.896681 -3.80888 0
M  V30 9787 H 909.513 2.46657 -3.11843 0
M  V30 9788 N 910.51 1.48831 0.518367 0
M  V30 9789 C 911.42 1.6692 1.64848 0
M  V30 9790 C 912.436 0.551711 1.65022 0
M  V30 9791 O 913.612 0.824251 1.83761 0
M  V30 9792 C 910.677 1.71559 3.01278 0
M  V30 9793 C 909.738 2.9502 3.11868 0
M  V30 9794 C 908.971 2.99428 4.4179 0
M  V30 9795 O 909.194 2.11914 5.29574 0
M  V30 9796 O 908.128 3.91719 4.5699 0
M  V30 9797 H 911.954 2.62623 1.52521 0
M  V30 9798 H 909.539 1.32368 0.692749 0
M  V30 9799 H 911.421 1.77064 3.82396 0
M  V30 9800 H 910.096 0.790316 3.13904 0
M  V30 9801 H 909.003 2.95042 2.30003 0
M  V30 9802 H 910.336 3.8697 3.04163 0
M  V30 9803 N 911.988 -0.768124 1.37614 0
M  V30 9804 C 912.92 -1.89076 1.29548 0
M  V30 9805 C 913.933 -1.61433 0.21056 0
M  V30 9806 O 915.122 -1.72283 0.466992 0
M  V30 9807 C 912.222 -3.24388 0.981102 0
M  V30 9808 C 911.395 -3.79649 2.17222 0
M  V30 9809 C 910.454 -4.93444 1.82754 0
M  V30 9810 O 909.48 -5.0884 2.5509 0
M  V30 9811 N 910.682 -5.75319 0.773819 0
M  V30 9812 H 913.447 -1.9651 2.26283 0
M  V30 9813 H 911.008 -0.947399 1.31286 0
M  V30 9814 H 913 -3.98038 0.731301 0
M  V30 9815 H 911.57 -3.12433 0.102203 0
M  V30 9816 H 910.79 -2.97735 2.58355 0
M  V30 9817 H 912.078 -4.13302 2.96748 0
M  V30 9818 H 911.476 -5.65433 0.173644 0
M  V30 9819 H 910.033 -6.4918 0.583882 0
M  V30 9820 N 913.466 -1.22244 -0.994698 0
M  V30 9821 C 914.712 -1.04746 -1.73655 0
M  V30 9822 C 915.045 0.41668 -1.89677 0
M  V30 9823 O 914.32 1.30897 -1.43862 0
M  V30 9824 C 914.603 -1.75716 -3.14318 0
M  V30 9825 C 914.456 -3.29714 -3.05955 0
M  V30 9826 C 915.775 -1.50809 -4.13455 0
M  V30 9827 H 912.894 -0.381921 -0.630322 0
M  V30 9828 H 915.536 -1.50559 -1.15897 0
M  V30 9829 H 913.686 -1.3677 -3.63629 0
M  V30 9830 H 915.358 -3.78093 -2.64279 0
M  V30 9831 H 913.601 -3.59484 -2.42804 0
M  V30 9832 H 914.272 -3.74547 -4.05485 0
M  V30 9833 H 916.748 -1.84636 -3.72892 0
M  V30 9834 H 915.624 -2.02964 -5.09997 0
M  V30 9835 H 915.885 -0.440292 -4.39902 0
M  V30 9836 N 914.944 1.19125 -1.03184 0
M  V30 9837 C 915.854 2.26112 -0.625329 0
M  V30 9838 C 916.87 1.7056 0.344298 0
M  V30 9839 O 918.046 2.0039 0.20144 0
M  V30 9840 C 915.111 3.46697 0.0145169 0
M  V30 9841 C 914.172 4.17419 -1.00299 0
M  V30 9842 C 913.405 5.32247 -0.393581 0
M  V30 9843 O 913.628 5.64724 0.802659 0
M  V30 9844 O 912.562 5.91428 -1.1179 0
M  V30 9845 H 916.388 2.63131 -1.51643 0
M  V30 9846 H 913.973 1.26036 -0.802197 0
M  V30 9847 H 915.855 4.19762 0.371139 0
M  V30 9848 H 914.53 3.11521 0.879581 0
M  V30 9849 H 913.437 3.4646 -1.41125 0
M  V30 9850 H 914.77 4.56573 -1.83852 0
M  V30 9851 N 916.422 0.810101 1.35185 0
M  V30 9852 C 917.369 0.220927 2.2974 0
M  V30 9853 C 918.339 -0.647024 1.5298 0
M  V30 9854 O 919.524 -0.591367 1.81404 0
M  V30 9855 C 916.664 -0.62167 3.39454 0
M  V30 9856 C 915.777 0.267104 4.31173 0
M  V30 9857 C 914.912 -0.583833 5.27982 0
M  V30 9858 C 913.951 0.305123 6.11339 0
M  V30 9859 N 913.088 -0.505992 7.00274 0
M  V30 9860 H 917.928 1.03266 2.79536 0
M  V30 9861 H 915.465 0.520768 1.37573 0
M  V30 9862 H 917.423 -1.12539 4.01735 0
M  V30 9863 H 916.053 -1.39863 2.90926 0
M  V30 9864 H 915.105 0.88895 3.69867 0
M  V30 9865 H 916.417 0.951182 4.89647 0
M  V30 9866 H 915.571 -1.15254 5.95652 0
M  V30 9867 H 914.31 -1.30146 4.70014 0
M  V30 9868 H 913.315 0.886075 5.42613 0
M  V30 9869 H 914.54 1.02067 6.71386 0
M  V30 9870 H 912.486 -1.20753 6.4479 0
M  V30 9871 H 912.403 0.119966 7.55905 0
M  V30 9872 H 913.671 -1.05787 7.72288 0
M  V30 9873 N 917.9 -1.47166 0.563914 0
M  V30 9874 C 918.81 -2.33885 -0.182977 0
M  V30 9875 C 919.826 -1.48605 -0.905132 0
M  V30 9876 O 921.002 -1.81518 -0.872527 0
M  V30 9877 C 918.067 -3.25433 -1.19558 0
M  V30 9878 C 917.128 -4.26607 -0.480129 0
M  V30 9879 C 916.361 -5.1378 -1.44449 0
M  V30 9880 O 916.584 -5.03531 -2.67979 0
M  V30 9881 O 915.518 -5.94109 -0.965321 0
M  V30 9882 H 919.344 -2.99065 0.528544 0
M  V30 9883 H 916.929 -1.45834 0.324468 0
M  V30 9884 H 918.811 -3.81964 -1.77993 0
M  V30 9885 H 917.486 -2.62873 -1.8889 0
M  V30 9886 H 916.393 -3.73817 0.145583 0
M  V30 9887 H 917.726 -4.919 0.171868 0
M  V30 9888 N 919.378 -0.300708 -1.54705 0
M  V30 9889 C 920.326 0.591264 -2.2496 0
M  V30 9890 C 921.32 1.13725 -1.2555 0
M  V30 9891 O 922.526 1.08793 -1.43402 0
M  V30 9892 H 918.901 0.209278 -0.722293 0
M  V30 9893 H 920.872 -0.0238175 -2.9839 0
M  V30 9894 C 919.621 1.75179 -3.00346 0
M  V30 9895 H 918.944 1.34089 -3.76643 0
M  V30 9896 H 920.384 2.35198 -3.52786 0
M  V30 9897 C 918.843 2.65574 -2.07298 0
M  V30 9898 O 919.373 3.6666 -1.64083 0
M  V30 9899 N 917.579 2.33301 -1.7326 0
M  V30 9900 H 917.126 1.51142 -2.08599 0
M  V30 9901 H 917.084 2.94049 -1.11278 0
M  V30 9902 N 920.856 1.57574 -0.0284266 0
M  V30 9903 C 922.084 1.96071 0.660575 0
M  V30 9904 C 922.499 0.904881 1.65703 0
M  V30 9905 O 921.856 -0.113379 1.82147 0
M  V30 9906 C 921.907 3.34634 1.36756 0
M  V30 9907 O 921.628 4.36167 0.411041 0
M  V30 9908 C 923.129 3.87758 2.14845 0
M  V30 9909 H 920.349 0.645794 0.182183 0
M  V30 9910 H 922.893 2.04311 -0.0879858 0
M  V30 9911 H 921.048 3.27616 2.06753 0
M  V30 9912 H 921.462 5.16493 0.913 0
M  V30 9913 H 922.936 4.87058 2.59767 0
M  V30 9914 H 923.413 3.21967 2.9872 0
M  V30 9915 H 924.019 3.98043 1.49807 0
M  V30 9916 N 922.334 -0.244713 1.55689 0
M  V30 9917 C 923.564 -0.988508 1.81417 0
M  V30 9918 C 923.972 -1.79362 0.602143 0
M  V30 9919 O 923.315 -1.78386 -0.438639 0
M  V30 9920 C 923.377 -1.97287 3.0053 0
M  V30 9921 C 923.041 -1.35448 4.36466 0
M  V30 9922 C 924.038 -0.755874 5.14376 0
M  V30 9923 C 921.723 -1.37319 4.83165 0
M  V30 9924 C 923.717 -0.184218 6.37134 0
M  V30 9925 C 921.404 -0.797681 6.05871 0
M  V30 9926 C 922.402 -0.204224 6.82695 0
M  V30 9927 O 922.09 0.362392 8.03083 0
M  V30 9928 H 921.822 -0.296412 0.607549 0
M  V30 9929 H 924.376 -0.272185 2.03589 0
M  V30 9930 H 922.606 -2.72756 2.74119 0
M  V30 9931 H 924.295 -2.58028 3.13331 0
M  V30 9932 H 925.061 -0.733912 4.79415 0
M  V30 9933 H 920.94 -1.8245 4.23359 0
M  V30 9934 H 924.484 0.279624 6.97039 0
M  V30 9935 H 920.381 -0.816978 6.40309 0
M  V30 9936 H 921.149 0.254467 8.18104 0
M  V30 9937 N 923.813 -1.49104 -0.510467 0
M  V30 9938 C 925.041 -1.61806 -1.28944 0
M  V30 9939 C 925.456 -0.285774 -1.86625 0
M  V30 9940 O 924.813 0.727551 -1.67371 0
M  V30 9941 C 924.864 -2.67966 -2.42645 0
M  V30 9942 O 924.585 -3.96026 -1.87337 0
M  V30 9943 C 926.086 -2.91286 -3.34166 0
M  V30 9944 H 923.306 -0.544999 -0.391429 0
M  V30 9945 H 925.85 -1.95071 -0.613805 0
M  V30 9946 H 924.005 -2.37505 -3.06056 0
M  V30 9947 H 924.419 -4.54427 -2.61909 0
M  V30 9948 H 925.893 -3.69323 -4.1025 0
M  V30 9949 H 926.37 -2.00842 -3.90588 0
M  V30 9950 H 926.976 -3.23127 -2.76531 0
M  V30 9951 N 925.291 0.760815 -1.38019 0
M  V30 9952 C 926.516 1.55513 -1.37224 0
M  V30 9953 C 926.941 1.88062 0.037611 0
M  V30 9954 O 926.299 1.50042 1.0177 0
M  V30 9955 C 926.347 2.83539 -2.22796 0
M  V30 9956 O 925.451 3.78384 -1.64009 0
M  V30 9957 H 924.792 0.470642 -0.468393 0
M  V30 9958 H 927.322 0.940792 -1.81687 0
M  V30 9959 H 927.332 3.32535 -2.36399 0
M  V30 9960 H 926.007 2.59178 -3.25269 0
M  V30 9961 H 924.584 3.37063 -1.59508 0
M  V30 9962 N 926.769 1.22769 0.988202 0
M  V30 9963 C 927.999 1.07998 1.76125 0
M  V30 9964 C 928.407 -0.372062 1.85506 0
M  V30 9965 O 927.75 -1.26946 1.3278 0
M  V30 9966 C 927.812 1.6219 3.20834 0
M  V30 9967 C 927.476 3.1086 3.34986 0
M  V30 9968 C 928.473 4.08239 3.21927 0
M  V30 9969 C 926.158 3.50411 3.59886 0
M  V30 9970 C 928.152 5.43154 3.33561 0
M  V30 9971 C 925.839 4.85473 3.71159 0
M  V30 9972 C 926.837 5.81653 3.58006 0
M  V30 9973 O 926.525 7.14263 3.68895 0
M  V30 9974 H 926.257 0.378937 0.559806 0
M  V30 9975 H 928.811 1.62925 1.25078 0
M  V30 9976 H 927.041 1.01676 3.73094 0
M  V30 9977 H 928.73 1.43011 3.79872 0
M  V30 9978 H 929.496 3.79025 3.02597 0
M  V30 9979 H 925.375 2.76068 3.69198 0
M  V30 9980 H 928.919 6.18207 3.23211 0
M  V30 9981 H 924.816 5.14365 3.89998 0
M  V30 9982 H 925.584 7.21906 3.85739 0
M  V30 9983 N 928.247 -1.18576 1.03814 0
M  V30 9984 C 929.177 -2.24334 0.647795 0
M  V30 9985 C 930.158 -1.66508 -0.34774 0
M  V30 9986 O 931.343 -1.92852 -0.228401 0
M  V30 9987 C 928.473 -3.47299 0.00734922 0
M  V30 9988 C 927.427 -4.17859 0.926152 0
M  V30 9989 C 926.753 -5.34489 0.150317 0
M  V30 9990 C 928.053 -4.71632 2.24411 0
M  V30 9991 H 929.747 -2.57241 1.53191 0
M  V30 9992 H 927.293 -1.23649 0.738028 0
M  V30 9993 H 929.246 -4.20486 -0.277434 0
M  V30 9994 H 927.97 -3.13619 -0.911626 0
M  V30 9995 H 926.629 -3.46567 1.19528 0
M  V30 9996 H 926.277 -4.97056 -0.770985 0
M  V30 9997 H 925.977 -5.82633 0.762407 0
M  V30 9998 H 927.501 -6.10467 -0.127508 0
M  V30 9999 H 928.915 -5.36526 2.02021 0
M  V30 10000 H 927.312 -5.303 2.80894 0
M  V30 10001 H 928.382 -3.89192 2.89236 0
M  V30 10002 N 929.725 -0.817259 -1.34754 0
M  V30 10003 C 931.002 -0.325468 -1.92873 0
M  V30 10004 C 931.382 1.18643 -1.74606 0
M  V30 10005 O 930.73 1.9909 -1.1214 0
M  V30 10006 C 930.94 -0.74858 -3.40877 0
M  V30 10007 C 932.288 -0.744165 -4.18028 0
M  V30 10008 O 933.312 -0.690799 -3.49437 0
M  V30 10009 O 932.171 -0.812207 -5.40431 0
M  V30 10010 H 929.265 -0.0876397 -0.822343 0
M  V30 10011 H 931.811 -0.901671 -1.43764 0
M  V30 10012 H 930.583 -1.79017 -3.47949 0
M  V30 10013 H 930.206 -0.147764 -3.97325 0
M  V30 10014 N 931.203 1.46865 -0.571711 0
M  V30 10015 C 932.15 2.30189 0.167808 0
M  V30 10016 C 933.12 1.3995 0.89461 0
M  V30 10017 O 934.305 1.68905 0.887451 0
M  V30 10018 C 931.445 3.24205 1.1826 0
M  V30 10019 C 930.558 4.2954 0.460376 0
M  V30 10020 C 929.693 5.10693 1.46173 0
M  V30 10021 C 928.732 6.07788 0.725291 0
M  V30 10022 N 927.869 6.81847 1.67417 0
M  V30 10023 H 932.709 2.92902 -0.548831 0
M  V30 10024 H 930.246 1.44362 -0.282474 0
M  V30 10025 H 932.204 3.77147 1.7837 0
M  V30 10026 H 930.834 2.63324 1.86709 0
M  V30 10027 H 929.886 3.79541 -0.255546 0
M  V30 10028 H 931.198 4.98665 -0.115855 0
M  V30 10029 H 930.352 5.67857 2.13595 0
M  V30 10030 H 929.091 4.41502 2.07188 0
M  V30 10031 H 928.096 5.49787 0.037228 0
M  V30 10032 H 929.321 6.78993 0.120678 0
M  V30 10033 H 927.267 6.15376 2.27263 0
M  V30 10034 H 927.184 7.47195 1.15046 0
M  V30 10035 H 928.452 7.43577 2.33908 0
M  V30 10036 N 932.681 0.308908 1.54543 0
M  V30 10037 C 933.928 -0.298036 2.00295 0
M  V30 10038 C 934.256 -1.53285 1.19724 0
M  V30 10039 O 933.511 -1.93917 0.263551 0
M  V30 10040 C 933.81 -0.691522 3.50646 0
M  V30 10041 C 933.476 0.442454 4.48724 0
M  V30 10042 C 932.138 0.753739 4.7526 0
M  V30 10043 C 934.49 1.20488 5.07082 0
M  V30 10044 C 931.818 1.83044 5.57415 0
M  V30 10045 C 934.17 2.27156 5.90409 0
M  V30 10046 C 932.834 2.58882 6.15253 0
M  V30 10047 H 932.104 -0.109059 0.73293 0
M  V30 10048 H 934.751 0.429647 1.86618 0
M  V30 10049 H 933.056 -1.49941 3.61974 0
M  V30 10050 H 934.753 -1.17244 3.83477 0
M  V30 10051 H 931.343 0.189744 4.2818 0
M  V30 10052 H 935.527 0.977653 4.86575 0
M  V30 10053 H 930.783 2.08088 5.749 0
M  V30 10054 H 934.957 2.86687 6.34652 0
M  V30 10055 H 932.584 3.42443 6.78702 0
M  V30 10056 N 934.159 -1.57557 0.0367827 0
M  V30 10057 C 935.406 -1.92114 -0.640185 0
M  V30 10058 C 935.734 -0.913887 -1.71693 0
M  V30 10059 O 934.989 0.0760343 -1.95552 0
M  V30 10060 C 935.288 -3.33387 -1.28794 0
M  V30 10061 C 934.954 -4.4961 -0.340819 0
M  V30 10062 C 933.616 -4.81133 -0.0801574 0
M  V30 10063 C 935.968 -5.20283 0.309106 0
M  V30 10064 C 933.296 -5.80683 0.838107 0
M  V30 10065 C 935.648 -6.20813 1.21547 0
M  V30 10066 C 934.312 -6.50773 1.48495 0
M  V30 10067 H 933.582 -0.702996 -0.23426 0
M  V30 10068 H 936.229 -1.91238 0.100188 0
M  V30 10069 H 934.534 -3.30561 -2.10324 0
M  V30 10070 H 936.231 -3.57399 -1.81843 0
M  V30 10071 H 932.821 -4.25002 -0.554161 0
M  V30 10072 H 937.005 -4.96153 0.120794 0
M  V30 10073 H 932.261 -6.02238 1.05451 0
M  V30 10074 H 936.435 -6.74692 1.72522 0
M  V30 10075 H 934.062 -7.27727 2.19814 0
M  V30 10076 N 935.637 0.236453 -1.55816 0
M  V30 10077 C 936.862 0.98449 -1.82545 0
M  V30 10078 C 937.287 1.77755 -0.615206 0
M  V30 10079 O 936.645 1.75982 0.435895 0
M  V30 10080 C 936.693 1.88973 -3.07118 0
M  V30 10081 O 935.797 2.98298 -2.84766 0
M  V30 10082 H 935.138 0.279577 -0.602273 0
M  V30 10083 H 937.668 0.254277 -2.03014 0
M  V30 10084 H 937.678 2.3024 -3.36829 0
M  V30 10085 H 936.353 1.30671 -3.94839 0
M  V30 10086 H 934.93 2.61085 -2.6625 0
M  V30 10087 N 937.115 1.49373 0.502552 0
M  V30 10088 C 938.531 1.36101 0.833591 0
M  V30 10089 C 938.731 0.392911 1.97632 0
M  V30 10090 O 937.787 -0.175975 2.51886 0
M  V30 10091 C 939.1 2.76782 1.17526 0
M  V30 10092 C 940.648 2.85471 1.28356 0
M  V30 10093 C 941.123 4.26915 1.65853 0
M  V30 10094 N 942.614 4.29719 1.72905 0
M  V30 10095 C 943.349 5.36127 2.0336 0
M  V30 10096 N 942.845 6.52782 2.32049 0
M  V30 10097 N 944.638 5.23542 2.04598 0
M  V30 10098 H 936.789 2.10912 -0.251008 0
M  V30 10099 H 939.052 0.946696 -0.0497037 0
M  V30 10100 H 938.758 3.49314 0.408965 0
M  V30 10101 H 938.632 3.1205 2.11907 0
M  V30 10102 H 941.019 2.13177 2.04058 0
M  V30 10103 H 941.1 2.53787 0.320304 0
M  V30 10104 H 940.744 4.99735 0.907022 0
M  V30 10105 H 940.674 4.56063 2.63276 0
M  V30 10106 H 943.165 3.45586 1.529 0
M  V30 10107 H 943.478 7.29701 2.54471 0
M  V30 10108 H 941.823 6.56011 2.29509 0
M  V30 10109 H 945.014 4.31413 1.8166 0
M  V30 10110 H 945.187 6.06565 2.27998 0
M  V30 10111 N 938.594 -0.753485 1.38421 0
M  V30 10112 C 939.541 -1.86723 1.35659 0
M  V30 10113 C 940.511 -1.64648 0.219121 0
M  V30 10114 O 941.696 -1.86313 0.411366 0
M  V30 10115 C 938.836 -3.24023 1.18758 0
M  V30 10116 C 937.949 -3.57928 2.41892 0
M  V30 10117 C 937.084 -4.84532 2.17721 0
M  V30 10118 C 936.123 -5.11224 3.36626 0
M  V30 10119 N 935.26 -6.29023 3.11889 0
M  V30 10120 H 940.1 -1.88419 2.30873 0
M  V30 10121 H 937.637 -0.920934 1.14705 0
M  V30 10122 H 939.595 -4.03252 1.06974 0
M  V30 10123 H 938.225 -3.21654 0.27182 0
M  V30 10124 H 937.277 -2.73541 2.64347 0
M  V30 10125 H 938.589 -3.73581 3.30513 0
M  V30 10126 H 937.743 -5.71704 2.03074 0
M  V30 10127 H 936.482 -4.71018 1.26465 0
M  V30 10128 H 935.487 -4.2252 3.51791 0
M  V30 10129 H 936.712 -5.26635 4.28757 0
M  V30 10130 H 934.658 -6.16832 2.2328 0
M  V30 10131 H 934.575 -6.45177 3.9406 0
M  V30 10132 H 935.843 -7.19083 3.00898 0
M  V30 10133 N 940.072 -1.23292 -0.981677 0
M  V30 10134 C 940.982 -1.02964 -2.10798 0
M  V30 10135 C 941.998 0.0254674 -1.73981 0
M  V30 10136 O 943.174 -0.169706 -2.00684 0
M  V30 10137 C 940.239 -0.621934 -3.41076 0
M  V30 10138 C 939.3 -1.75194 -3.91926 0
M  V30 10139 C 938.533 -1.36359 -5.15986 0
M  V30 10140 O 938.756 -0.247265 -5.69864 0
M  V30 10141 O 937.69 -2.18421 -5.60871 0
M  V30 10142 H 941.516 -1.97354 -2.30836 0
M  V30 10143 H 939.101 -1.01986 -1.09175 0
M  V30 10144 H 940.983 -0.405446 -4.19445 0
M  V30 10145 H 939.658 0.29299 -3.22371 0
M  V30 10146 H 938.565 -2.02305 -3.1468 0
M  V30 10147 H 939.898 -2.64513 -4.15083 0
M  V30 10148 N 941.55 1.18024 -1.04442 0
M  V30 10149 C 942.827 1.8398 -0.664125 0
M  V30 10150 C 943.207 1.92961 0.856116 0
M  V30 10151 O 942.555 1.45839 1.75907 0
M  V30 10152 C 942.765 3.22069 -1.34433 0
M  V30 10153 C 944.113 3.98063 -1.47754 0
M  V30 10154 O 945.137 3.31523 -1.30274 0
M  V30 10155 O 943.996 5.17291 -1.76272 0
M  V30 10156 H 941.09 0.793543 -0.23285 0
M  V30 10157 H 943.636 1.25385 -1.14354 0
M  V30 10158 H 942.408 3.10458 -2.38184 0
M  V30 10159 H 942.031 3.88325 -0.853782 0
M  V30 10160 N 943.028 0.824394 1.34319 0
M  V30 10161 C 944.256 0.426194 2.02463 0
M  V30 10162 C 944.671 -0.968298 1.62078 0
M  V30 10163 O 944.028 -1.62689 0.82696 0
M  V30 10164 C 944.079 0.520465 3.57734 0
M  V30 10165 O 943.8 1.86 3.96656 0
M  V30 10166 C 945.301 0.117353 4.43145 0
M  V30 10167 H 942.521 0.170864 0.648881 0
M  V30 10168 H 945.065 1.11296 1.71562 0
M  V30 10169 H 943.22 -0.118233 3.8722 0
M  V30 10170 H 943.634 1.83528 4.91343 0
M  V30 10171 H 945.108 0.234395 5.51502 0
M  V30 10172 H 945.585 -0.939271 4.29039 0
M  V30 10173 H 946.191 0.729908 4.1899 0
M  V30 10174 N 944.506 -1.46559 0.579492 0
M  V30 10175 C 945.416 -2.34066 -0.15816 0
M  V30 10176 C 946.432 -1.49556 -0.88932 0
M  V30 10177 O 947.608 -1.82434 -0.853226 0
M  V30 10178 C 944.673 -3.26683 -1.161 0
M  V30 10179 C 943.734 -4.27092 -0.434855 0
M  V30 10180 C 942.967 -5.15283 -1.38992 0
M  V30 10181 O 943.19 -5.06345 -2.62623 0
M  V30 10182 O 942.124 -5.95099 -0.902253 0
M  V30 10183 H 945.95 -2.98488 0.560234 0
M  V30 10184 H 943.535 -1.45482 0.339918 0
M  V30 10185 H 945.417 -3.8383 -1.73932 0
M  V30 10186 H 944.092 -2.64862 -1.86091 0
M  V30 10187 H 942.999 -3.73641 0.185224 0
M  V30 10188 H 944.332 -4.9169 0.224031 0
M  V30 10189 N 945.984 -0.3171 -1.54377 0
M  V30 10190 C 946.917 0.594178 -2.20329 0
M  V30 10191 C 947.895 1.12067 -1.17812 0
M  V30 10192 O 949.079 1.18588 -1.46524 0
M  V30 10193 C 946.206 1.81463 -2.85987 0
M  V30 10194 C 945.252 1.41996 -4.02168 0
M  V30 10195 S 946.085 0.462159 -5.33502 0
M  V30 10196 C 947.241 1.69004 -6.02651 0
M  V30 10197 H 947.474 0.0339261 -2.97281 0
M  V30 10198 H 945.007 -0.101196 -1.54068 0
M  V30 10199 H 946.965 2.51494 -3.2444 0
M  V30 10200 H 945.626 2.34606 -2.08851 0
M  V30 10201 H 944.819 2.32921 -4.4695 0
M  V30 10202 H 944.421 0.799423 -3.65356 0
M  V30 10203 H 946.713 2.62839 -6.24437 0
M  V30 10204 H 947.656 1.28451 -6.96352 0
M  V30 10205 H 948.064 1.87408 -5.32483 0
M  V30 10206 N 947.462 1.57535 -0.0451378 0
M  V30 10207 C 948.392 2.14208 0.929372 0
M  V30 10208 C 949.373 1.06221 1.32858 0
M  V30 10209 O 950.558 1.34132 1.40436 0
M  V30 10210 C 947.688 2.68217 2.20629 0
M  V30 10211 C 946.642 3.81134 1.94734 0
M  V30 10212 C 945.968 4.21636 3.28828 0
M  V30 10213 C 947.268 5.06531 1.27374 0
M  V30 10214 H 948.962 2.95886 0.457348 0
M  V30 10215 H 946.508 1.42332 0.218544 0
M  V30 10216 H 948.461 3.06502 2.89196 0
M  V30 10217 H 947.185 1.83722 2.70026 0
M  V30 10218 H 945.844 3.43312 1.28579 0
M  V30 10219 H 945.492 3.34099 3.76014 0
M  V30 10220 H 945.192 4.97736 3.12302 0
M  V30 10221 H 946.716 4.62516 3.98637 0
M  V30 10222 H 948.13 5.423 1.85967 0
M  V30 10223 H 946.527 5.87735 1.21194 0
M  V30 10224 H 947.597 4.84261 0.248913 0
M  V30 10225 N 948.94 -0.228186 1.55939 0
M  V30 10226 C 949.85 -1.30386 1.9503 0
M  V30 10227 C 950.866 -1.51645 0.853218 0
M  V30 10228 O 952.042 -1.64904 1.15623 0
M  V30 10229 C 949.107 -2.63489 2.25332 0
M  V30 10230 C 948.168 -2.5059 3.48573 0
M  V30 10231 C 947.401 -3.77345 3.7742 0
M  V30 10232 O 947.624 -4.80067 3.08045 0
M  V30 10233 O 946.558 -3.74855 4.70922 0
M  V30 10234 H 950.384 -1.0022 2.86687 0
M  V30 10235 H 947.969 -0.430503 1.43063 0
M  V30 10236 H 949.851 -3.4211 2.46046 0
M  V30 10237 H 948.526 -2.93349 1.3685 0
M  V30 10238 H 947.433 -1.70191 3.33145 0
M  V30 10239 H 948.766 -2.2567 4.37417 0
M  V30 10240 N 950.418 -1.49637 -0.494624 0
M  V30 10241 C 951.646 -1.63164 -1.2722 0
M  V30 10242 C 952.061 -0.305552 -1.86311 0
M  V30 10243 O 951.418 0.709758 -1.68133 0
M  V30 10244 C 951.469 -2.70524 -2.39789 0
M  V30 10245 O 951.19 -3.97991 -1.83126 0
M  V30 10246 C 952.691 -2.94814 -3.31058 0
M  V30 10247 H 949.911 -0.54912 -0.385627 0
M  V30 10248 H 952.455 -1.95711 -0.593081 0
M  V30 10249 H 950.61 -2.40738 -3.03519 0
M  V30 10250 H 951.024 -4.57179 -2.57075 0
M  V30 10251 H 952.498 -3.73653 -4.06309 0
M  V30 10252 H 952.975 -2.04974 -3.88436 0
M  V30 10253 H 953.581 -3.26042 -2.73088 0
M  V30 10254 N 951.896 0.746133 -1.38819 0
M  V30 10255 C 952.806 1.89063 -1.38897 0
M  V30 10256 C 953.822 1.71648 -0.28513 0
M  V30 10257 O 954.998 1.94443 -0.524783 0
M  V30 10258 C 952.063 3.24523 -1.22007 0
M  V30 10259 C 951.124 3.54411 -2.42263 0
M  V30 10260 C 950.357 4.83408 -2.26169 0
M  V30 10261 O 950.58 5.56325 -1.25931 0
M  V30 10262 O 949.514 5.12943 -3.14918 0
M  V30 10263 H 953.34 1.91951 -2.35347 0
M  V30 10264 H 950.925 0.892433 -1.19816 0
M  V30 10265 H 952.807 4.05496 -1.14677 0
M  V30 10266 H 951.482 3.2243 -0.286455 0
M  V30 10267 H 950.389 2.73569 -2.55168 0
M  V30 10268 H 951.722 3.61273 -3.3428 0
M  V30 10269 N 953.375 1.23811 0.975125 0
M  V30 10270 C 954.786 1.0675 1.53171 0
M  V30 10271 C 955.137 -0.363475 1.92804 0
M  V30 10272 O 954.262 -1.25089 1.76583 0
M  V30 10273 C 954.857 1.93161 2.78342 0
M  V30 10274 C 953.416 1.80346 3.30382 0
M  V30 10275 C 952.563 1.88544 2.03338 0
M  V30 10276 H 955.514 1.37396 0.79423 0
M  V30 10277 H 955.535 1.45951 3.51395 0
M  V30 10278 H 955.047 2.97302 2.49465 0
M  V30 10279 H 953.148 0.790077 3.64127 0
M  V30 10280 H 953.261 2.64026 3.99784 0
M  V30 10281 H 951.625 1.32186 2.17713 0
M  V30 10282 H 952.408 2.94252 1.76836 0
M  V30 10283 N 954.853 -1.17469 1.05066 0
M  V30 10284 C 956.099 -1.87976 0.761113 0
M  V30 10285 C 956.432 -1.80756 -0.709995 0
M  V30 10286 O 955.707 -1.21469 -1.51906 0
M  V30 10287 C 955.99 -3.38055 1.2406 0
M  V30 10288 C 955.843 -3.54032 2.77455 0
M  V30 10289 C 957.162 -4.32036 0.838612 0
M  V30 10290 H 954.281 -0.682573 0.277963 0
M  V30 10291 H 956.923 -1.38147 1.30443 0
M  V30 10292 H 955.073 -3.80622 0.778388 0
M  V30 10293 H 956.745 -3.20489 3.3179 0
M  V30 10294 H 954.988 -2.96352 3.16793 0
M  V30 10295 H 955.659 -4.59377 3.06066 0
M  V30 10296 H 958.135 -3.97303 1.23651 0
M  V30 10297 H 957.011 -5.35583 1.20173 0
M  V30 10298 H 957.272 -4.41349 -0.257498 0
M  V30 10299 N 956.331 -0.831506 -1.3388 0
M  V30 10300 C 957.241 -0.261688 -2.33136 0
M  V30 10301 C 958.257 0.608429 -1.63016 0
M  V30 10302 O 959.433 0.514297 -1.94723 0
M  V30 10303 C 956.498 0.559957 -3.42148 0
M  V30 10304 C 955.559 -0.333569 -4.28002 0
M  V30 10305 C 954.792 0.448956 -5.31808 0
M  V30 10306 O 955.015 1.6814 -5.45055 0
M  V30 10307 O 953.949 -0.173197 -6.01651 0
M  V30 10308 H 957.775 -1.08343 -2.83717 0
M  V30 10309 H 955.36 -0.593849 -1.3709 0
M  V30 10310 H 957.242 1.02712 -4.08691 0
M  V30 10311 H 955.917 1.35888 -2.93796 0
M  V30 10312 H 954.824 -0.848416 -3.64352 0
M  V30 10313 H 956.157 -1.09707 -4.79818 0
M  V30 10314 N 957.809 1.4625 -0.587256 0
M  V30 10315 C 959.086 1.95599 -0.00750181 0
M  V30 10316 C 959.466 1.52989 1.45457 0
M  V30 10317 O 958.814 0.782731 2.14676 0
M  V30 10318 C 959.024 3.48513 -0.184309 0
M  V30 10319 C 960.372 4.24565 -0.0544972 0
M  V30 10320 O 961.396 3.5602 -0.113378 0
M  V30 10321 O 960.255 5.46445 0.0774075 0
M  V30 10322 H 957.349 0.825649 0.0472495 0
M  V30 10323 H 959.895 1.56512 -0.655893 0
M  V30 10324 H 958.667 3.72428 -1.20053 0
M  V30 10325 H 958.29 3.9444 0.500301 0
M  V30 10326 N 959.287 0.325282 1.54207 0
M  V30 10327 C 960.535 -0.276229 2.00203 0
M  V30 10328 C 960.856 -1.52519 1.21503 0
M  V30 10329 O 960.126 -1.93313 0.317302 0
M  V30 10330 H 958.706 -0.105059 0.739575 0
M  V30 10331 H 961.368 0.442225 1.89817 0
M  V30 10332 H 960.464 -0.531427 3.07542 0
M  V30 10333 N 960.765 -1.57509 0.0534917 0
M  V30 10334 C 961.712 -2.11667 -0.920101 0
M  V30 10335 C 962.682 -1.0246 -1.30733 0
M  V30 10336 O 963.867 -1.30021 -1.39639 0
M  V30 10337 C 961.007 -2.66803 -2.18883 0
M  V30 10338 C 960.12 -3.90104 -1.85588 0
M  V30 10339 C 959.255 -4.33547 -3.06937 0
M  V30 10340 C 958.294 -5.49542 -2.69573 0
M  V30 10341 N 957.431 -5.88029 -3.83623 0
M  V30 10342 H 962.271 -2.94562 -0.451371 0
M  V30 10343 H 959.808 -1.45576 -0.211168 0
M  V30 10344 H 961.766 -2.96871 -2.93127 0
M  V30 10345 H 960.396 -1.86702 -2.63329 0
M  V30 10346 H 959.448 -3.66613 -1.01484 0
M  V30 10347 H 960.76 -4.74404 -1.54087 0
M  V30 10348 H 959.914 -4.6518 -3.89477 0
M  V30 10349 H 958.653 -3.48064 -3.41618 0
M  V30 10350 H 957.658 -5.17579 -1.8545 0
M  V30 10351 H 958.883 -6.36743 -2.36082 0
M  V30 10352 H 956.829 -5.05498 -4.181 0
M  V30 10353 H 956.746 -6.67025 -3.55828 0
M  V30 10354 H 958.014 -6.24277 -4.66796 0
M  V30 10355 N 962.243 0.219913 -1.56058 0
M  V30 10356 C 963.173 1.27572 -1.9557 0
M  V30 10357 C 964.154 1.48801 -0.824148 0
M  V30 10358 O 965.339 1.60957 -1.08658 0
M  V30 10359 C 962.469 2.62517 -2.27381 0
M  V30 10360 C 961.423 2.55941 -3.43042 0
M  V30 10361 C 960.749 3.94931 -3.60463 0
M  V30 10362 C 962.049 2.10584 -4.77966 0
M  V30 10363 H 963.743 0.947482 -2.84013 0
M  V30 10364 H 961.289 0.454337 -1.36645 0
M  V30 10365 H 963.242 3.36538 -2.53615 0
M  V30 10366 H 961.966 2.97031 -1.35794 0
M  V30 10367 H 960.625 1.84377 -3.1686 0
M  V30 10368 H 960.273 4.26756 -2.66249 0
M  V30 10369 H 959.973 3.91413 -4.38258 0
M  V30 10370 H 961.497 4.70611 -3.89046 0
M  V30 10371 H 962.911 2.74349 -5.03394 0
M  V30 10372 H 961.308 2.18122 -5.59055 0
M  V30 10373 H 962.378 1.05818 -4.73213 0
M  V30 10374 N 963.721 1.49897 0.486681 0
M  V30 10375 C 964.969 1.59789 1.23742 0
M  V30 10376 C 965.29 0.293056 1.92785 0
M  V30 10377 O 964.56 -0.688534 1.83401 0
M  V30 10378 H 963.14 0.588775 0.459731 0
M  V30 10379 H 965.802 1.86597 0.562808 0
M  V30 10380 H 964.898 2.40121 1.9937 0
M  V30 10381 N 965.199 -0.738761 1.39212 0
M  V30 10382 C 966.109 -1.88324 1.39897 0
M  V30 10383 C 967.125 -1.71494 0.294229 0
M  V30 10384 O 968.301 -1.94162 0.535087 0
M  V30 10385 C 965.366 -3.23871 1.23726 0
M  V30 10386 C 964.427 -3.53121 2.44139 0
M  V30 10387 C 963.66 -4.82202 2.2873 0
M  V30 10388 O 963.883 -5.55649 1.28879 0
M  V30 10389 O 962.817 -5.11265 3.17634 0
M  V30 10390 H 966.643 -1.90701 2.36362 0
M  V30 10391 H 964.228 -0.886067 1.20288 0
M  V30 10392 H 966.11 -4.04882 1.16826 0
M  V30 10393 H 964.785 -3.22274 0.303551 0
M  V30 10394 H 963.692 -2.72212 2.56615 0
M  V30 10395 H 965.025 -3.59495 3.36191 0
M  V30 10396 N 966.677 -1.24326 -0.968545 0
M  V30 10397 C 968.093 -1.00847 -1.23701 0
M  V30 10398 C 968.293 0.283235 -1.99499 0
M  V30 10399 O 967.349 0.999607 -2.31871 0
M  V30 10400 C 968.662 -2.22295 -2.02498 0
M  V30 10401 C 970.21 -2.26911 -2.15593 0
M  V30 10402 C 970.685 -3.47978 -2.97784 0
M  V30 10403 N 972.176 -3.48289 -3.05367 0
M  V30 10404 C 972.911 -4.38625 -3.69318 0
M  V30 10405 N 972.407 -5.39213 -4.34995 0
M  V30 10406 N 974.2 -4.26339 -3.66322 0
M  V30 10407 H 966.351 -2.07335 -0.461087 0
M  V30 10408 H 968.614 -0.909805 -0.26638 0
M  V30 10409 H 968.32 -3.161 -1.54188 0
M  V30 10410 H 968.194 -2.24344 -3.03232 0
M  V30 10411 H 970.581 -1.33639 -2.63106 0
M  V30 10412 H 970.662 -2.28888 -1.14209 0
M  V30 10413 H 970.306 -4.41564 -2.50965 0
M  V30 10414 H 970.236 -3.43244 -3.99364 0
M  V30 10415 H 972.727 -2.75517 -2.58648 0
M  V30 10416 H 973.04 -6.04378 -4.81608 0
M  V30 10417 H 971.385 -5.43101 -4.33667 0
M  V30 10418 H 974.576 -3.46991 -3.14189 0
M  V30 10419 H 974.749 -4.9694 -4.15878 0
M  V30 10420 N 968.156 1.1691 -1.05688 0
M  V30 10421 C 969.404 1.86922 -0.768409 0
M  V30 10422 C 969.725 1.81735 0.706921 0
M  V30 10423 O 968.995 1.24671 1.51109 0
M  V30 10424 H 967.575 0.69203 -0.281253 0
M  V30 10425 H 970.237 1.41803 -1.33708 0
M  V30 10426 H 969.333 2.92528 -1.08783 0
M  V30 10427 N 969.634 0.838594 1.33437 0
M  V30 10428 C 970.584 0.243681 2.26694 0
M  V30 10429 C 971.568 -0.601168 1.49247 0
M  V30 10430 O 972.76 -0.453181 1.711 0
M  V30 10431 C 969.889 -0.580525 3.38356 0
M  V30 10432 C 968.975 0.275819 4.23202 0
M  V30 10433 N 969.366 1.3544 4.87329 0
M  V30 10434 C 967.664 0.0628047 4.45956 0
M  V30 10435 C 968.365 1.87991 5.50486 0
M  V30 10436 N 967.341 1.18143 5.30607 0
M  V30 10437 H 971.143 1.06849 2.73789 0
M  V30 10438 H 968.657 0.683019 1.47338 0
M  V30 10439 H 970.654 -1.02301 4.04153 0
M  V30 10440 H 969.314 -1.40331 2.92809 0
M  V30 10441 H 970.325 1.73729 4.87892 0
M  V30 10442 H 967.002 -0.726563 4.11129 0
M  V30 10443 H 968.392 2.78312 6.11549 0
M  V30 10444 N 971.112 -1.45937 0.595003 0
M  V30 10445 C 972.022 -2.34221 -0.133325 0
M  V30 10446 C 973.038 -1.50491 -0.873407 0
M  V30 10447 O 974.214 -1.83328 -0.833828 0
M  V30 10448 C 971.279 -3.27896 -1.12628 0
M  V30 10449 C 970.34 -4.27529 -0.389532 0
M  V30 10450 C 969.573 -5.16729 -1.33519 0
M  V30 10451 O 969.796 -5.09102 -2.57238 0
M  V30 10452 O 968.73 -5.96023 -0.839084 0
M  V30 10453 H 972.556 -2.97877 0.591861 0
M  V30 10454 H 970.141 -1.45113 0.355329 0
M  V30 10455 H 972.023 -3.85654 -1.69851 0
M  V30 10456 H 970.698 -2.6682 -1.83272 0
M  V30 10457 H 969.605 -3.73424 0.224843 0
M  V30 10458 H 970.938 -4.91425 0.276169 0
M  V30 10459 N 972.59 -0.333456 -1.54032 0
M  V30 10460 C 973.5 0.536674 -2.28379 0
M  V30 10461 C 974.516 1.12068 -1.33104 0
M  V30 10462 O 975.692 1.13853 -1.66131 0
M  V30 10463 C 972.757 1.67677 -3.03456 0
M  V30 10464 C 971.818 1.12357 -4.14336 0
M  V30 10465 C 971.051 2.20933 -4.85823 0
M  V30 10466 O 971.274 3.41466 -4.569 0
M  V30 10467 O 970.208 1.85795 -5.72507 0
M  V30 10468 H 974.034 -0.0674003 -3.03625 0
M  V30 10469 H 971.619 -0.098823 -1.49073 0
M  V30 10470 H 973.501 2.34032 -3.50438 0
M  V30 10471 H 972.176 2.26684 -2.31076 0
M  V30 10472 H 971.083 0.424827 -3.7168 0
M  V30 10473 H 972.416 0.578497 -4.88789 0
M  V30 10474 N 974.068 1.57479 -0.061844 0
M  V30 10475 C 975.316 1.92727 0.608336 0
M  V30 10476 C 975.637 0.941799 1.70749 0
M  V30 10477 O 974.907 -0.0116608 1.95897 0
M  V30 10478 H 973.487 0.71145 0.2277 0
M  V30 10479 H 976.149 1.94546 -0.117359 0
M  V30 10480 H 975.245 2.9426 1.04007 0
M  V30 10481 N 975.546 -0.211634 1.56173 0
M  V30 10482 C 976.793 -0.93455 1.79645 0
M  V30 10483 C 977.121 -1.83936 0.632294 0
M  V30 10484 O 976.376 -1.91919 -0.382841 0
M  V30 10485 C 976.675 -1.79657 3.08963 0
M  V30 10486 C 976.341 -1.04415 4.38644 0
M  V30 10487 C 975.003 -0.836351 4.73876 0
M  V30 10488 C 977.355 -0.51355 5.18664 0
M  V30 10489 C 974.683 -0.0861976 5.86637 0
M  V30 10490 C 977.035 0.223309 6.32206 0
M  V30 10491 C 975.699 0.442279 6.66033 0
M  V30 10492 H 974.969 -0.341976 0.657368 0
M  V30 10493 H 977.616 -0.202024 1.90431 0
M  V30 10494 H 975.921 -2.59726 2.93342 0
M  V30 10495 H 977.618 -2.35823 3.24328 0
M  V30 10496 H 974.208 -1.21611 4.10985 0
M  V30 10497 H 978.392 -0.661541 4.91871 0
M  V30 10498 H 973.648 0.0935866 6.11328 0
M  V30 10499 H 977.822 0.641917 6.93435 0
M  V30 10500 H 975.449 1.02547 7.53252 0
M  V30 10501 N 977.024 -1.50153 -0.478725 0
M  V30 10502 C 977.954 -1.71384 -1.58587 0
M  V30 10503 C 978.935 -0.562705 -1.60523 0
M  V30 10504 O 980.12 -0.80101 -1.76911 0
M  V30 10505 C 977.25 -1.80094 -2.96957 0
M  V30 10506 C 976.204 -2.95218 -3.09888 0
M  V30 10507 C 975.53 -2.89063 -4.49829 0
M  V30 10508 C 976.83 -4.35841 -2.8782 0
M  V30 10509 H 978.524 -2.64081 -1.41073 0
M  V30 10510 H 976.07 -1.27081 -0.677239 0
M  V30 10511 H 978.023 -1.93531 -3.74331 0
M  V30 10512 H 976.747 -0.840131 -3.1561 0
M  V30 10513 H 975.406 -2.81419 -2.34944 0
M  V30 10514 H 975.054 -1.90844 -4.6539 0
M  V30 10515 H 974.754 -3.66345 -4.59418 0
M  V30 10516 H 976.278 -3.04539 -5.29234 0
M  V30 10517 H 977.692 -4.50205 -3.54948 0
M  V30 10518 H 976.089 -5.14515 -3.0886 0
M  V30 10519 H 977.159 -4.48739 -1.83742 0
M  V30 10520 N 978.502 0.731368 -1.39602 0
M  V30 10521 C 979.45 1.86676 -1.38761 0
M  V30 10522 C 980.444 1.6723 -0.270247 0
M  V30 10523 O 981.65 1.74528 -0.440471 0
M  V30 10524 H 978.025 0.614553 -0.433391 0
M  V30 10525 H 979.996 1.84501 -2.34525 0
M  V30 10526 C 978.745 3.24394 -1.25155 0
M  V30 10527 H 978.068 3.39955 -2.10406 0
M  V30 10528 H 979.508 4.04019 -1.28625 0
M  V30 10529 C 977.967 3.36877 0.0396976 0
M  V30 10530 O 978.497 3.88833 1.00854 0
M  V30 10531 N 976.703 2.90414 0.103965 0
M  V30 10532 H 976.25 2.48321 -0.685155 0
M  V30 10533 H 976.208 2.99146 0.967435 0
M  V30 10534 N 979.98 1.24838 0.961938 0
M  V30 10535 C 980.928 1.0436 2.07874 0
M  V30 10536 C 981.922 -0.0232531 1.69384 0
M  V30 10537 O 983.128 0.131773 1.79517 0
M  V30 10538 H 979.503 0.320492 0.680286 0
M  V30 10539 H 981.474 1.99055 2.22306 0
M  V30 10540 C 980.223 0.671246 3.41159 0
M  V30 10541 H 979.546 1.48395 3.7124 0
M  V30 10542 H 980.986 0.567608 4.20184 0
M  V30 10543 C 979.445 -0.622124 3.31106 0
M  V30 10544 O 979.975 -1.66627 3.65511 0
M  V30 10545 N 978.181 -0.605009 2.84232 0
M  V30 10546 H 977.728 0.245052 2.56432 0
M  V30 10547 H 977.686 -1.47056 2.77888 0
M  V30 10548 N 981.458 -1.16348 1.06306 0
M  V30 10549 C 982.683 -1.91323 0.800636 0
M  V30 10550 C 983.108 -1.7691 -0.639105 0
M  V30 10551 O 982.466 -1.0945 -1.44535 0
M  V30 10552 C 982.514 -3.40038 1.20027 0
M  V30 10553 O 981.618 -4.11003 0.339142 0
M  V30 10554 H 980.959 -0.596057 0.292595 0
M  V30 10555 H 983.489 -1.47406 1.41889 0
M  V30 10556 H 983.499 -3.90808 1.17188 0
M  V30 10557 H 982.174 -3.49848 2.24898 0
M  V30 10558 H 980.751 -3.70423 0.42911 0
M  V30 10559 N 982.937 -0.845659 -1.3299 0
M  V30 10560 C 984.185 -0.443774 -1.97168 0
M  V30 10561 C 984.506 1.00192 -1.67292 0
M  V30 10562 O 983.776 1.69891 -0.975397 0
M  V30 10563 H 982.356 -0.161111 -0.729419 0
M  V30 10564 H 985.018 -1.08011 -1.62233 0
M  V30 10565 H 984.114 -0.581414 -3.06637 0
M  V30 10566 N 984.415 1.45619 -0.602734 0
M  V30 10567 C 985.325 2.34288 0.120902 0
M  V30 10568 C 986.341 1.50952 0.865414 0
M  V30 10569 O 987.517 1.83768 0.824094 0
M  V30 10570 C 984.582 3.28489 1.10888 0
M  V30 10571 C 983.643 4.2773 0.366853 0
M  V30 10572 C 982.876 5.17429 1.30776 0
M  V30 10573 O 983.099 5.10459 2.54535 0
M  V30 10574 O 982.033 5.96459 0.807464 0
M  V30 10575 H 985.859 2.97559 -0.60765 0
M  V30 10576 H 983.444 1.44922 -0.363019 0
M  V30 10577 H 985.326 3.86549 1.67803 0
M  V30 10578 H 984.001 2.67789 1.81854 0
M  V30 10579 H 982.908 3.73299 -0.244643 0
M  V30 10580 H 984.241 4.91271 -0.302226 0
M  V30 10581 N 985.893 0.34162 1.53853 0
M  V30 10582 C 987.14 -0.255484 2.00882 0
M  V30 10583 C 987.468 -1.50711 1.22949 0
M  V30 10584 O 986.723 -1.93315 0.304625 0
M  V30 10585 C 987.022 -0.616989 3.52034 0
M  V30 10586 C 986.688 0.537536 4.47684 0
M  V30 10587 C 985.35 0.854379 4.73554 0
M  V30 10588 C 987.702 1.31217 5.04412 0
M  V30 10589 C 985.03 1.94826 5.53407 0
M  V30 10590 C 987.382 2.39628 5.85458 0
M  V30 10591 C 986.046 2.71874 6.09623 0
M  V30 10592 H 985.316 -0.0934881 0.735079 0
M  V30 10593 H 987.963 0.469135 1.85665 0
M  V30 10594 H 986.268 -1.42229 3.65073 0
M  V30 10595 H 987.965 -1.09084 3.85878 0
M  V30 10596 H 984.555 0.280524 4.27681 0
M  V30 10597 H 988.739 1.08064 4.84392 0
M  V30 10598 H 983.995 2.20235 5.70356 0
M  V30 10599 H 988.169 3.00084 6.28429 0
M  V30 10600 H 985.796 3.56762 6.71286 0
M  V30 10601 N 987.371 -1.57444 0.0701946 0
M  V30 10602 C 988.301 -2.15659 -0.895176 0
M  V30 10603 C 989.282 -1.08321 -1.31151 0
M  V30 10604 O 990.467 -1.36349 -1.38284 0
M  V30 10605 C 987.597 -2.71693 -2.16334 0
M  V30 10606 C 986.551 -3.84183 -1.88645 0
M  V30 10607 C 985.877 -4.26814 -3.22078 0
M  V30 10608 C 987.177 -5.08493 -1.19299 0
M  V30 10609 H 988.871 -2.96576 -0.410217 0
M  V30 10610 H 986.417 -1.42662 -0.195872 0
M  V30 10611 H 988.37 -3.11064 -2.84284 0
M  V30 10612 H 987.094 -1.87994 -2.67069 0
M  V30 10613 H 985.753 -3.45314 -1.23101 0
M  V30 10614 H 985.401 -3.40039 -3.70651 0
M  V30 10615 H 985.101 -5.02642 -3.04344 0
M  V30 10616 H 986.625 -4.68799 -3.91228 0
M  V30 10617 H 988.039 -5.4519 -1.77316 0
M  V30 10618 H 986.436 -5.89588 -1.11828 0
M  V30 10619 H 987.506 -4.84595 -0.171839 0
M  V30 10620 N 988.849 0.203349 -1.56283 0
M  V30 10621 C 990.096 0.92501 -1.80138 0
M  V30 10622 C 990.424 1.83598 -0.64204 0
M  V30 10623 O 989.679 1.92119 0.372658 0
M  V30 10624 C 989.978 1.78016 -3.09912 0
M  V30 10625 C 989.644 1.02088 -4.39191 0
M  V30 10626 C 988.306 0.811208 -4.74313 0
M  V30 10627 C 990.658 0.486037 -5.18929 0
M  V30 10628 C 987.986 0.0550856 -5.86674 0
M  V30 10629 C 990.338 -0.256833 -6.32078 0
M  V30 10630 C 989.002 -0.477594 -6.65789 0
M  V30 10631 H 988.272 0.338485 -0.659173 0
M  V30 10632 H 990.919 0.191923 -1.90536 0
M  V30 10633 H 989.224 2.58167 -2.94715 0
M  V30 10634 H 990.921 2.341 -3.25574 0
M  V30 10635 H 987.511 1.1943 -4.11624 0
M  V30 10636 H 991.695 0.635446 -4.92215 0
M  V30 10637 H 986.951 -0.126006 -6.1127 0
M  V30 10638 H 991.125 -0.678683 -6.93085 0
M  V30 10639 H 988.752 -1.0654 -7.52697 0
M  V30 10640 N 990.327 1.50405 0.470755 0
M  V30 10641 C 991.275 1.6982 1.58946 0
M  V30 10642 C 992.269 0.56407 1.59733 0
M  V30 10643 O 993.475 0.744576 1.63878 0
M  V30 10644 H 989.85 0.536016 0.527438 0
M  V30 10645 H 991.821 2.63662 1.39732 0
M  V30 10646 C 990.57 1.80986 2.96883 0
M  V30 10647 H 989.893 2.67645 2.96996 0
M  V30 10648 H 991.333 1.98596 3.74614 0
M  V30 10649 C 989.792 0.561551 3.32187 0
M  V30 10650 O 990.322 -0.299136 4.00585 0
M  V30 10651 N 988.528 0.415476 2.87615 0
M  V30 10652 H 988.075 1.11691 2.32127 0
M  V30 10653 H 988.033 -0.418592 3.11601 0
M  V30 10654 N 991.805 -0.723954 1.39988 0
M  V30 10655 C 992.752 -1.83803 1.39589 0
M  V30 10656 C 993.722 -1.64146 0.253996 0
M  V30 10657 O 994.907 -1.85398 0.450793 0
M  V30 10658 C 992.047 -3.21431 1.25604 0
M  V30 10659 C 991.16 -3.52717 2.49429 0
M  V30 10660 C 990.295 -4.79805 2.27949 0
M  V30 10661 C 989.334 -5.03968 3.47394 0
M  V30 10662 N 988.471 -6.22266 3.25161 0
M  V30 10663 H 993.311 -1.83479 2.34818 0
M  V30 10664 H 990.848 -0.896396 1.16633 0
M  V30 10665 H 992.806 -4.00892 1.15504 0
M  V30 10666 H 991.436 -3.21005 0.339986 0
M  V30 10667 H 990.488 -2.67872 2.7009 0
M  V30 10668 H 991.8 -3.66486 3.38363 0
M  V30 10669 H 990.954 -5.67268 2.15155 0
M  V30 10670 H 989.693 -4.68229 1.36428 0
M  V30 10671 H 988.698 -4.14963 3.60674 0
M  V30 10672 H 989.923 -5.17422 4.39831 0
M  V30 10673 H 987.869 -6.11957 2.36314 0
M  V30 10674 H 987.786 -6.36673 4.07656 0
M  V30 10675 H 989.054 -7.12539 3.16083 0
M  V30 10676 N 993.283 -1.25346 -0.955304 0
M  V30 10677 C 994.215 -1.0146 -2.0552 0
M  V30 10678 C 995.228 0.0202256 -1.62787 0
M  V30 10679 O 996.417 -0.218251 -1.77161 0
M  V30 10680 C 993.517 -0.511727 -3.35014 0
M  V30 10681 C 992.69 -1.61256 -4.0659 0
M  V30 10682 C 991.749 -1.11017 -5.14356 0
M  V30 10683 O 990.775 -1.80443 -5.39842 0
M  V30 10684 N 991.977 0.0489001 -5.80479 0
M  V30 10685 H 994.742 -1.96166 -2.26581 0
M  V30 10686 H 992.303 -1.16543 -1.12381 0
M  V30 10687 H 994.295 -0.160123 -4.04383 0
M  V30 10688 H 992.865 0.341377 -3.1073 0
M  V30 10689 H 992.085 -2.13577 -3.31328 0
M  V30 10690 H 993.373 -2.35213 -4.51168 0
M  V30 10691 H 992.771 0.629021 -5.62192 0
M  V30 10692 H 991.328 0.341542 -6.50905 0
M  V30 10693 N 994.761 1.15782 -1.06922 0
M  V30 10694 C 995.691 2.22538 -0.707045 0
M  V30 10695 C 996.672 1.67371 0.303471 0
M  V30 10696 O 997.857 1.9339 0.177189 0
M  V30 10697 C 994.987 3.47158 -0.0994269 0
M  V30 10698 C 993.941 4.15257 -1.03661 0
M  V30 10699 C 993.267 5.33902 -0.291974 0
M  V30 10700 C 994.567 4.65516 -2.36837 0
M  V30 10701 H 996.261 2.53089 -1.59958 0
M  V30 10702 H 993.807 1.21649 -0.770552 0
M  V30 10703 H 995.76 4.21073 0.165852 0
M  V30 10704 H 994.484 3.15926 0.828155 0
M  V30 10705 H 993.143 3.43276 -1.28674 0
M  V30 10706 H 992.791 4.98926 0.638928 0
M  V30 10707 H 992.491 5.80407 -0.916613 0
M  V30 10708 H 994.015 6.1059 -0.0343915 0
M  V30 10709 H 995.429 5.30981 -2.16175 0
M  V30 10710 H 993.826 5.22666 -2.94856 0
M  V30 10711 H 994.896 3.81387 -2.99453 0
M  V30 10712 N 996.239 0.8527 1.3254 0
M  V30 10713 C 997.149 0.298744 2.3269 0
M  V30 10714 C 998.165 -0.582418 1.63963 0
M  V30 10715 O 999.341 -0.483253 1.95516 0
M  V30 10716 C 996.406 -0.505453 3.42996 0
M  V30 10717 C 995.467 0.401618 4.27417 0
M  V30 10718 C 994.7 -0.364294 5.32455 0
M  V30 10719 O 994.923 -1.59448 5.47661 0
M  V30 10720 O 993.857 0.268892 6.01299 0
M  V30 10721 H 997.683 1.12843 2.81958 0
M  V30 10722 H 995.268 0.615584 1.36128 0
M  V30 10723 H 997.15 -0.961974 4.10273 0
M  V30 10724 H 995.825 -1.31197 2.95921 0
M  V30 10725 H 994.732 0.906274 3.62957 0
M  V30 10726 H 996.065 1.17327 4.78012 0
M  V30 10727 N 997.718 -1.45297 0.610449 0
M  V30 10728 C 998.943 -2.07101 0.111414 0
M  V30 10729 C 999.368 -1.45161 -1.19625 0
M  V30 10730 O 998.726 -0.545368 -1.72903 0
M  V30 10731 C 998.774 -3.60598 -0.0117372 0
M  V30 10732 O 997.878 -3.98512 -1.06122 0
M  V30 10733 H 997.219 -0.659709 0.075364 0
M  V30 10734 H 999.749 -1.86504 0.841269 0
M  V30 10735 H 999.759 -4.07464 -0.209028 0
M  V30 10736 H 998.434 -4.05067 0.943076 0
M  V30 10737 H 997.011 -3.63312 -0.840158 0
M  V30 10738 N 999.196 -0.349774 -1.5367 0
M  V30 10739 C 1000.44 0.245862 -2.00196 0
M  V30 10740 C 1000.76 1.51154 -1.24144 0
M  V30 10741 O 1001.96 2.18481 -1.61178 0
M  V30 10742 C 1000.42 0.488665 -3.56567 0
M  V30 10743 C 1000.03 -0.761475 -4.41481 0
M  V30 10744 C 1001.77 1.04282 -4.11492 0
M  V30 10745 C 999.679 -0.489128 -5.89374 0
M  V30 10746 H 998.609 0.0956493 -0.747909 0
M  V30 10747 H 1001.26 -0.466068 -1.77483 0
M  V30 10748 H 999.642 1.26145 -3.75371 0
M  V30 10749 H 1000.82 -1.53585 -4.34452 0
M  V30 10750 H 999.131 -1.23771 -3.9758 0
M  V30 10751 H 1001.73 1.26164 -5.19603 0
M  V30 10752 H 1002.07 2.00023 -3.65098 0
M  V30 10753 H 1002.6 0.330582 -3.96424 0
M  V30 10754 H 999.343 -1.41643 -6.40014 0
M  V30 10755 H 998.863 0.247039 -5.99291 0
M  V30 10756 H 1000.54 -0.1087 -6.46909 0
M  V30 10757 N 1000.67 1.57404 -0.0785433 0
M  V30 10758 C 1001.92 1.93361 0.58786 0
M  V30 10759 C 1002.24 0.959856 1.6974 0
M  V30 10760 O 1001.51 0.0091173 1.95898 0
M  V30 10761 H 1000.09 0.713825 0.220141 0
M  V30 10762 H 1002.75 1.94411 -0.137986 0
M  V30 10763 H 1001.85 2.95346 1.00881 0
M  V30 10764 N 1002.15 -0.195058 1.56388 0
M  V30 10765 C 1003.4 -0.913626 1.79821 0
M  V30 10766 C 1003.71 -1.84422 0.651767 0
M  V30 10767 O 1004.92 -2.6034 0.770402 0
M  V30 10768 C 1003.38 -1.67497 3.18548 0
M  V30 10769 C 1002.98 -0.789205 4.40994 0
M  V30 10770 C 1004.73 -2.38318 3.5129 0
M  V30 10771 C 1002.63 -1.54942 5.70742 0
M  V30 10772 H 1001.56 -0.344891 0.670497 0
M  V30 10773 H 1004.22 -0.166912 1.82739 0
M  V30 10774 H 1002.6 -2.46557 3.0988 0
M  V30 10775 H 1003.77 -0.0372595 4.60785 0
M  V30 10776 H 1002.09 -0.191834 4.15958 0
M  V30 10777 H 1004.68 -2.95745 4.45465 0
M  V30 10778 H 1005.03 -3.12507 2.75037 0
M  V30 10779 H 1005.56 -1.66224 3.61406 0
M  V30 10780 H 1002.3 -0.85031 6.49962 0
M  V30 10781 H 1001.82 -2.2753 5.54969 0
M  V30 10782 H 1003.5 -2.1032 6.11861 0
M  V30 10783 N 1003.63 -1.50653 -0.462772 0
M  V30 10784 C 1005.04 -1.54821 -1.04342 0
M  V30 10785 C 1005.39 -0.356595 -1.92932 0
M  V30 10786 O 1004.52 0.529579 -2.0982 0
M  V30 10787 C 1005.11 -2.80571 -1.89909 0
M  V30 10788 C 1003.67 -2.87394 -2.43067 0
M  V30 10789 C 1002.82 -2.49206 -1.21621 0
M  V30 10790 H 1005.77 -1.56797 -0.245048 0
M  V30 10791 H 1005.79 -2.62897 -2.75074 0
M  V30 10792 H 1005.3 -3.67281 -1.25405 0
M  V30 10793 H 1003.4 -2.05055 -3.111 0
M  V30 10794 H 1003.52 -3.90477 -2.77605 0
M  V30 10795 H 1001.88 -2.01829 -1.55361 0
M  V30 10796 H 1002.66 -3.38233 -0.587669 0
M  V30 10797 N 1005.11 0.71652 -1.4037 0
M  V30 10798 C 1006.04 1.84138 -1.36477 0
M  V30 10799 C 1007.05 1.6054 -0.27033 0
M  V30 10800 O 1008.24 1.70431 -0.530612 0
M  V30 10801 C 1005.34 3.20523 -1.10082 0
M  V30 10802 C 1004.52 3.71326 -2.31162 0
M  V30 10803 C 1003.57 4.86322 -2.00942 0
M  V30 10804 O 1002.6 4.99022 -2.73799 0
M  V30 10805 N 1003.8 5.72051 -0.986812 0
M  V30 10806 H 1006.57 1.87977 -2.3342 0
M  V30 10807 H 1004.13 0.89802 -1.34712 0
M  V30 10808 H 1006.12 3.95049 -0.878526 0
M  V30 10809 H 1004.69 3.11838 -0.21809 0
M  V30 10810 H 1003.91 2.87941 -2.69227 0
M  V30 10811 H 1005.2 4.02003 -3.11883 0
M  V30 10812 H 1004.6 5.64399 -0.383381 0
M  V30 10813 H 1003.15 6.46565 -0.824419 0
M  V30 10814 N 1006.59 1.25851 0.948643 0
M  V30 10815 C 1007.83 1.10954 1.69397 0
M  V30 10816 C 1008.16 -0.348443 1.91353 0
M  V30 10817 O 1007.42 -1.27285 1.48651 0
M  V30 10818 C 1007.72 1.81565 3.07846 0
M  V30 10819 C 1007.38 3.31477 3.0567 0
M  V30 10820 C 1006.04 3.72371 3.04784 0
M  V30 10821 C 1008.4 4.27225 2.98543 0
M  V30 10822 C 1005.72 5.07416 2.94527 0
M  V30 10823 C 1008.08 5.62301 2.89828 0
M  V30 10824 C 1006.74 6.02516 2.87281 0
M  V30 10825 H 1006.01 0.406011 0.619868 0
M  V30 10826 H 1008.66 1.562 1.10787 0
M  V30 10827 H 1006.96 1.28767 3.70035 0
M  V30 10828 H 1008.66 1.67486 3.64348 0
M  V30 10829 H 1005.25 2.98941 3.07135 0
M  V30 10830 H 1009.43 3.96618 2.98342 0
M  V30 10831 H 1004.69 5.37746 2.90928 0
M  V30 10832 H 1008.86 6.36182 2.83276 0
M  V30 10833 H 1006.49 7.07116 2.79089 0
M  V30 10834 N 1008.06 -1.15214 1.07534 0
M  V30 10835 C 1009.01 -2.18022 0.667108 0
M  V30 10836 C 1010 -1.57911 -0.308714 0
M  V30 10837 O 1011.19 -1.76578 -0.122147 0
M  V30 10838 C 1008.32 -3.43232 0.0684348 0
M  V30 10839 C 1007.41 -4.10393 1.06951 0
M  V30 10840 N 1007.8 -4.53013 2.24973 0
M  V30 10841 C 1006.09 -4.36758 0.903262 0
M  V30 10842 C 1006.8 -5.05118 2.88498 0
M  V30 10843 N 1005.77 -4.98777 2.16153 0
M  V30 10844 H 1009.57 -2.48706 1.56597 0
M  V30 10845 H 1007.09 -1.31801 0.948796 0
M  V30 10846 H 1009.08 -4.16197 -0.241934 0
M  V30 10847 H 1007.74 -3.14031 -0.825525 0
M  V30 10848 H 1008.76 -4.4634 2.6268 0
M  V30 10849 H 1005.43 -4.17453 0.0623543 0
M  V30 10850 H 1006.82 -5.48039 3.8872 0
M  V30 10851 N 1009.54 -0.859717 -1.32086 0
M  V30 10852 C 1010.77 -0.478865 -2.01796 0
M  V30 10853 C 1011.19 0.918274 -1.64163 0
M  V30 10854 O 1010.55 1.60409 -0.844896 0
M  V30 10855 C 1010.6 -0.631356 -3.5503 0
M  V30 10856 O 1009.7 0.333712 -4.11048 0
M  V30 10857 H 1009.04 -0.191775 -0.635703 0
M  V30 10858 H 1011.57 -1.16031 -1.68517 0
M  V30 10859 H 1011.58 -0.520783 -4.04663 0
M  V30 10860 H 1010.26 -1.65015 -3.81763 0
M  V30 10861 H 1008.84 0.178953 -3.7247 0
M  V30 10862 N 1011.02 1.44971 -0.618145 0
M  V30 10863 C 1012.43 1.85611 -0.201334 0
M  V30 10864 C 1012.78 1.51698 1.24427 0
M  V30 10865 O 1011.91 0.94875 1.94493 0
M  V30 10866 C 1012.5 3.36897 -0.358619 0
M  V30 10867 C 1011.06 3.764 0.00358196 0
M  V30 10868 C 1010.21 2.68881 -0.678118 0
M  V30 10869 H 1013.16 1.35622 -0.824152 0
M  V30 10870 H 1013.18 3.78326 0.406176 0
M  V30 10871 H 1012.69 3.61548 -1.41084 0
M  V30 10872 H 1010.79 3.57365 1.05457 0
M  V30 10873 H 1010.91 4.77449 -0.397427 0
M  V30 10874 H 1009.27 2.54442 -0.114699 0
M  V30 10875 H 1010.05 2.96367 -1.73268 0
M  V30 10876 N 1012.5 0.357919 1.53482 0
M  V30 10877 C 1013.74 -0.23451 2.0144 0
M  V30 10878 C 1014.08 -1.49044 1.24497 0
M  V30 10879 O 1013.35 -1.91566 0.336535 0
M  V30 10880 C 1013.64 -0.534193 3.56116 0
M  V30 10881 C 1013.49 0.734834 4.43757 0
M  V30 10882 C 1014.81 -1.33793 4.1927 0
M  V30 10883 H 1011.93 -0.0837595 0.732225 0
M  V30 10884 H 1014.57 0.481297 1.83803 0
M  V30 10885 H 1012.72 -1.144 3.71275 0
M  V30 10886 H 1014.39 1.37251 4.40409 0
M  V30 10887 H 1012.63 1.35678 4.12036 0
M  V30 10888 H 1013.3 0.48021 5.49907 0
M  V30 10889 H 1015.78 -0.822158 4.07897 0
M  V30 10890 H 1014.66 -1.51636 5.27539 0
M  V30 10891 H 1014.92 -2.34423 3.74831 0
M  V30 10892 N 1013.98 -1.5736 0.0868897 0
M  V30 10893 C 1015.22 -1.9367 -0.577598 0
M  V30 10894 C 1015.55 -0.968844 -1.69229 0
M  V30 10895 O 1014.82 -0.0195061 -1.9589 0
M  V30 10896 H 1013.4 -0.714983 -0.216353 0
M  V30 10897 H 1016.06 -1.94335 0.148294 0
M  V30 10898 H 1015.15 -2.95877 -0.993128 0
M  V30 10899 N 1015.45 0.186762 -1.56489 0
M  V30 10900 C 1016.68 0.925916 -1.85584 0
M  V30 10901 C 1017.1 1.75708 -0.671446 0
M  V30 10902 O 1016.46 1.7728 0.379687 0
M  V30 10903 C 1016.51 1.79107 -3.12975 0
M  V30 10904 O 1015.61 2.89088 -2.94112 0
M  V30 10905 H 1014.96 0.260275 -0.610863 0
M  V30 10906 H 1017.49 0.189561 -2.0372 0
M  V30 10907 H 1017.5 2.19408 -3.43983 0
M  V30 10908 H 1016.17 1.18044 -3.98796 0
M  V30 10909 H 1014.75 2.52482 -2.74422 0
M  V30 10910 N 1016.93 1.50896 0.454776 0
M  V30 10911 C 1018.34 1.55372 1.0352 0
M  V30 10912 C 1018.69 0.366822 1.9274 0
M  V30 10913 O 1017.82 -0.518444 2.10098 0
M  V30 10914 C 1018.41 2.81574 1.88418 0
M  V30 10915 C 1016.97 2.88679 2.4154 0
M  V30 10916 C 1016.12 2.49847 1.20298 0
M  V30 10917 H 1019.07 1.56924 0.236729 0
M  V30 10918 H 1019.09 2.64352 2.73676 0
M  V30 10919 H 1018.6 3.67941 1.23455 0
M  V30 10920 H 1016.71 2.06702 3.10008 0
M  V30 10921 H 1016.82 3.91944 2.7553 0
M  V30 10922 H 1015.18 2.02651 1.54288 0
M  V30 10923 H 1015.97 3.3854 0.569723 0
M  V30 10924 N 1018.41 -0.709066 1.40748 0
M  V30 10925 C 1019.34 -1.83583 1.4429 0
M  V30 10926 C 1020.32 -1.67378 0.303067 0
M  V30 10927 O 1021.51 -1.87312 0.512612 0
M  V30 10928 C 1018.64 -3.21599 1.31116 0
M  V30 10929 C 1017.59 -3.52486 2.4277 0
M  V30 10930 C 1016.92 -4.89716 2.14668 0
M  V30 10931 C 1018.22 -3.52824 3.85113 0
M  V30 10932 H 1019.91 -1.80876 2.38588 0
M  V30 10933 H 1017.46 -0.868795 1.14839 0
M  V30 10934 H 1019.41 -4.00123 1.32209 0
M  V30 10935 H 1018.13 -3.24898 0.332965 0
M  V30 10936 H 1016.79 -2.76305 2.40937 0
M  V30 10937 H 1016.44 -4.89625 1.15224 0
M  V30 10938 H 1016.14 -5.11347 2.89478 0
M  V30 10939 H 1017.66 -5.70566 2.17455 0
M  V30 10940 H 1019.08 -4.21377 3.88734 0
M  V30 10941 H 1017.48 -3.85984 4.59496 0
M  V30 10942 H 1018.55 -2.52073 4.14231 0
M  V30 10943 N 1019.89 -1.26353 -0.941956 0
M  V30 10944 C 1020.84 -1.07842 -2.04056 0
M  V30 10945 C 1021.81 0.0163064 -1.66092 0
M  V30 10946 O 1022.99 -0.143313 -1.90261 0
M  V30 10947 C 1020.13 -0.716636 -3.37577 0
M  V30 10948 C 1019.24 -1.88754 -3.88582 0
M  V30 10949 C 1018.38 -1.46893 -5.10486 0
M  V30 10950 C 1017.42 -2.60819 -5.53751 0
M  V30 10951 N 1016.56 -2.19646 -6.66858 0
M  V30 10952 H 1021.4 -2.01856 -2.19221 0
M  V30 10953 H 1018.93 -1.00504 -1.07412 0
M  V30 10954 H 1020.89 -0.487768 -4.14339 0
M  V30 10955 H 1019.52 0.18653 -3.22261 0
M  V30 10956 H 1018.57 -2.22936 -3.08227 0
M  V30 10957 H 1019.88 -2.74264 -4.1663 0
M  V30 10958 H 1019.04 -1.20047 -5.94705 0
M  V30 10959 H 1017.78 -0.584721 -4.84182 0
M  V30 10960 H 1016.78 -2.88396 -4.6809 0
M  V30 10961 H 1018.01 -3.49838 -5.82057 0
M  V30 10962 H 1015.95 -1.33657 -6.4224 0
M  V30 10963 H 1015.87 -2.987 -6.94489 0
M  V30 10964 H 1017.14 -1.96009 -7.54454 0
M  V30 10965 N 1021.37 1.14642 -1.08144 0
M  V30 10966 C 1022.59 1.90025 -0.830972 0
M  V30 10967 C 1023.02 1.77904 0.610879 0
M  V30 10968 O 1022.38 1.11735 1.42776 0
M  V30 10969 C 1022.42 3.38085 -1.25422 0
M  V30 10970 O 1021.53 4.10412 -0.404486 0
M  V30 10971 H 1020.87 0.591327 -0.302041 0
M  V30 10972 H 1023.4 1.4513 -1.44216 0
M  V30 10973 H 1023.41 3.88894 -1.23391 0
M  V30 10974 H 1022.08 3.46226 -2.30435 0
M  V30 10975 H 1020.66 3.69693 -0.487987 0
M  V30 10976 N 1022.85 0.866709 1.31628 0
M  V30 10977 C 1024.09 0.472185 1.96095 0
M  V30 10978 C 1024.41 -0.979873 1.69286 0
M  V30 10979 O 1025.61 -1.48039 2.27589 0
M  V30 10980 C 1024.07 0.793468 3.51044 0
M  V30 10981 C 1023.68 2.26206 3.86697 0
M  V30 10982 C 1025.42 0.467255 4.21921 0
M  V30 10983 C 1023.33 2.52593 5.34743 0
M  V30 10984 H 1022.26 0.172846 0.733921 0
M  V30 10985 H 1024.91 1.05916 1.49847 0
M  V30 10986 H 1023.29 0.135783 3.95767 0
M  V30 10987 H 1024.47 2.96254 3.52945 0
M  V30 10988 H 1022.78 2.55399 3.28877 0
M  V30 10989 H 1025.38 0.641669 5.30836 0
M  V30 10990 H 1025.72 -0.592065 4.12068 0
M  V30 10991 H 1026.25 1.08134 3.82821 0
M  V30 10992 H 1022.99 3.57196 5.49628 0
M  V30 10993 H 1022.51 1.87136 5.6986 0
M  V30 10994 H 1024.19 2.37156 6.01968 0
M  V30 10995 N 1024.32 -1.44642 0.625825 0
M  V30 10996 C 1025.26 -2.28882 -0.120614 0
M  V30 10997 C 1026.27 -1.40985 -0.81407 0
M  V30 10998 O 1027.46 -1.65188 -0.676404 0
M  V30 10999 C 1024.56 -3.17217 -1.19274 0
M  V30 11000 C 1023.73 -4.33499 -0.582839 0
M  V30 11001 C 1022.79 -5.02908 -1.54823 0
M  V30 11002 O 1021.82 -5.59102 -1.06743 0
M  V30 11003 N 1023.02 -5.0387 -2.88262 0
M  V30 11004 H 1025.78 -2.93585 0.602318 0
M  V30 11005 H 1023.34 -1.5503 0.466604 0
M  V30 11006 H 1025.34 -3.60515 -1.83878 0
M  V30 11007 H 1023.91 -2.54301 -1.81797 0
M  V30 11008 H 1023.13 -3.93458 0.241696 0
M  V30 11009 H 1024.41 -5.08561 -0.155914 0
M  V30 11010 H 1023.81 -4.59539 -3.2991 0
M  V30 11011 H 1022.37 -5.50974 -3.4824 0
M  V30 11012 N 1025.8 -0.366053 -1.5329 0
M  V30 11013 C 1026.76 0.467904 -2.24373 0
M  V30 11014 C 1027.76 1.00934 -1.25176 0
M  V30 11015 O 1028.95 0.895015 -1.49449 0
M  V30 11016 C 1026.09 1.65405 -2.98084 0
M  V30 11017 H 1027.28 -0.154105 -2.99504 0
M  V30 11018 H 1024.83 -0.117751 -1.55856 0
M  V30 11019 H 1025.57 2.31413 -2.27197 0
M  V30 11020 H 1025.35 1.27277 -3.70868 0
M  V30 11021 H 1026.84 2.24503 -3.52119 0
M  V30 11022 N 1027.28 1.57312 -0.0952337 0
M  V30 11023 C 1028.51 1.98697 0.57682 0
M  V30 11024 C 1028.92 0.974347 1.61716 0
M  V30 11025 O 1028.28 -0.036022 1.82464 0
M  V30 11026 C 1028.33 3.40133 1.2244 0
M  V30 11027 O 1028.05 4.37518 0.225678 0
M  V30 11028 C 1029.55 3.96522 1.98205 0
M  V30 11029 H 1026.77 0.65294 0.154629 0
M  V30 11030 H 1029.32 2.03754 -0.174562 0
M  V30 11031 H 1027.47 3.3609 1.92671 0
M  V30 11032 H 1027.89 5.199 0.693116 0
M  V30 11033 H 1029.36 4.97637 2.38875 0
M  V30 11034 H 1029.84 3.34347 2.84796 0
M  V30 11035 H 1030.44 4.04038 1.3279 0
M  V30 11036 N 1028.76 -0.17846 1.56586 0
M  V30 11037 C 1029.69 -1.22342 1.98884 0
M  V30 11038 C 1030.67 -1.46564 0.86331 0
M  V30 11039 O 1031.85 -1.58019 1.12887 0
M  V30 11040 C 1028.98 -2.56396 2.34261 0
M  V30 11041 C 1027.94 -2.46756 3.49708 0
M  V30 11042 C 1027.26 -3.85235 3.70807 0
M  V30 11043 C 1028.56 -1.97838 4.83381 0
M  V30 11044 H 1030.26 -0.871848 2.86425 0
M  V30 11045 H 1027.8 -0.417948 1.37801 0
M  V30 11046 H 1029.76 -3.29695 2.62448 0
M  V30 11047 H 1028.48 -2.93327 1.43621 0
M  V30 11048 H 1027.14 -1.75912 3.21637 0
M  V30 11049 H 1026.79 -4.19547 2.7747 0
M  V30 11050 H 1026.49 -3.79655 4.48481 0
M  V30 11051 H 1028.01 -4.60131 4.01387 0
M  V30 11052 H 1029.43 -2.60906 5.10491 0
M  V30 11053 H 1027.82 -2.03223 5.64642 0
M  V30 11054 H 1028.89 -0.932339 4.75852 0
M  V30 11055 N 1030.24 -1.51135 -0.446768 0
M  V30 11056 C 1031.46 -1.67129 -1.21965 0
M  V30 11057 C 1031.88 -0.36467 -1.85245 0
M  V30 11058 O 1031.24 0.655908 -1.70306 0
M  V30 11059 C 1031.29 -2.78016 -2.31061 0
M  V30 11060 O 1031.01 -4.03615 -1.70371 0
M  V30 11061 C 1032.51 -3.05197 -3.21511 0
M  V30 11062 H 1029.73 -0.561111 -0.367961 0
M  V30 11063 H 1032.27 -1.97499 -0.530517 0
M  V30 11064 H 1030.43 -2.50272 -2.95707 0
M  V30 11065 H 1030.84 -4.65126 -2.424 0
M  V30 11066 H 1032.32 -3.8639 -3.94216 0
M  V30 11067 H 1032.79 -2.17228 -3.81718 0
M  V30 11068 H 1033.4 -3.34565 -2.62577 0
M  V30 11069 N 1031.71 0.701592 -1.41122 0
M  V30 11070 C 1033.12 1.28129 -1.35793 0
M  V30 11071 C 1033.48 1.96163 -0.0381185 0
M  V30 11072 O 1032.6 1.98416 0.863723 0
M  V30 11073 C 1033.2 2.33005 -2.45955 0
M  V30 11074 C 1031.75 2.86566 -2.44043 0
M  V30 11075 C 1030.9 1.60526 -2.26112 0
M  V30 11076 H 1033.85 0.496756 -1.50725 0
M  V30 11077 H 1033.87 3.14163 -2.14667 0
M  V30 11078 H 1033.39 1.8346 -3.42 0
M  V30 11079 H 1031.49 3.40304 -1.51737 0
M  V30 11080 H 1031.6 3.37406 -3.40138 0
M  V30 11081 H 1029.96 1.86113 -1.7388 0
M  V30 11082 H 1030.75 1.12985 -3.24175 0
M  V30 11083 N 1033.19 1.2685 0.935242 0
M  V30 11084 C 1034.42 1.15645 1.72165 0
M  V30 11085 C 1034.84 -0.283909 1.85945 0
M  V30 11086 O 1034.2 -1.20567 1.354 0
M  V30 11087 C 1034.25 1.83689 3.10307 0
M  V30 11088 O 1033.35 1.12972 3.96625 0
M  V30 11089 H 1032.69 0.402629 0.528002 0
M  V30 11090 H 1035.22 1.67781 1.17093 0
M  V30 11091 H 1035.23 1.90749 3.60664 0
M  V30 11092 H 1033.91 2.88472 2.99595 0
M  V30 11093 H 1032.48 1.13929 3.5507 0
M  V30 11094 N 1034.67 -1.14067 1.0875 0
M  V30 11095 C 1035.63 -2.17453 0.724341 0
M  V30 11096 C 1036.63 -1.58959 -0.242614 0
M  V30 11097 O 1037.82 -1.74186 -0.0217008 0
M  V30 11098 C 1034.96 -3.40828 0.0700236 0
M  V30 11099 H 1036.15 -2.51094 1.63987 0
M  V30 11100 H 1033.7 -1.28775 0.885813 0
M  V30 11101 H 1034.44 -3.1277 -0.857061 0
M  V30 11102 H 1034.22 -3.84551 0.76569 0
M  V30 11103 H 1035.71 -4.17258 -0.168905 0
M  V30 11104 N 1036.15 -0.873678 -1.31166 0
M  V30 11105 C 1037.08 -0.276805 -2.26515 0
M  V30 11106 C 1038.06 0.596166 -1.51277 0
M  V30 11107 O 1039.24 0.548769 -1.80335 0
M  V30 11108 C 1036.37 0.607711 -3.33203 0
M  V30 11109 C 1035.42 -0.194411 -4.26057 0
M  V30 11110 S 1036.25 -1.57534 -5.11804 0
M  V30 11111 C 1037.41 -0.697047 -6.22006 0
M  V30 11112 H 1037.64 -1.08505 -2.76792 0
M  V30 11113 H 1035.17 -0.672419 -1.38989 0
M  V30 11114 H 1037.13 1.11234 -3.95142 0
M  V30 11115 H 1035.79 1.38994 -2.81673 0
M  V30 11116 H 1034.98 0.480094 -5.01708 0
M  V30 11117 H 1034.59 -0.631262 -3.68634 0
M  V30 11118 H 1036.88 0.0907919 -6.77439 0
M  V30 11119 H 1037.82 -1.42481 -6.93617 0
M  V30 11120 H 1038.23 -0.262954 -5.63887 0
M  V30 11121 N 1037.63 1.44308 -0.633487 0
M  V30 11122 C 1038.57 2.30694 0.0700257 0
M  V30 11123 C 1039.54 1.43618 0.834447 0
M  V30 11124 O 1040.73 1.72517 0.815014 0
M  V30 11125 C 1037.87 3.28929 1.04403 0
M  V30 11126 C 1036.98 4.31106 0.277779 0
M  V30 11127 C 1036.12 5.16433 1.24381 0
M  V30 11128 C 1035.16 6.10317 0.466855 0
M  V30 11129 N 1034.29 6.88335 1.38347 0
M  V30 11130 H 1039.13 2.90311 -0.672567 0
M  V30 11131 H 1036.67 1.43034 -0.343449 0
M  V30 11132 H 1038.63 3.84373 1.62214 0
M  V30 11133 H 1037.26 2.71006 1.75372 0
M  V30 11134 H 1036.31 3.78115 -0.416292 0
M  V30 11135 H 1037.62 4.97725 -0.327251 0
M  V30 11136 H 1036.78 5.76406 1.89318 0
M  V30 11137 H 1035.51 4.49893 1.88276 0
M  V30 11138 H 1034.52 5.49451 -0.195989 0
M  V30 11139 H 1035.74 6.78894 -0.167414 0
M  V30 11140 H 1033.69 6.24461 2.00959 0
M  V30 11141 H 1033.61 7.51402 0.832517 0
M  V30 11142 H 1034.88 7.52829 2.0216 0
M  V30 11143 N 1039.1 0.374177 1.53094 0
M  V30 11144 C 1040.33 -0.215903 2.06273 0
M  V30 11145 C 1040.75 -1.40979 1.24526 0
M  V30 11146 O 1040.11 -1.79331 0.266462 0
M  V30 11147 C 1040.16 -0.579089 3.5592 0
M  V30 11148 O 1039.26 -1.67516 3.76845 0
M  V30 11149 H 1038.61 -0.0293981 0.663349 0
M  V30 11150 H 1041.14 0.537271 1.9742 0
M  V30 11151 H 1041.15 -0.847678 3.99097 0
M  V30 11152 H 1039.82 0.293843 4.14861 0
M  V30 11153 H 1038.4 -1.40146 3.45563 0
M  V30 11154 N 1040.58 -1.57259 0.103575 0
M  V30 11155 C 1041.81 -1.99424 -0.569638 0
M  V30 11156 C 1042.23 -0.982475 -1.60403 0
M  V30 11157 O 1041.59 0.0479231 -1.81237 0
M  V30 11158 C 1041.64 -3.40527 -1.18633 0
M  V30 11159 O 1040.74 -3.42167 -2.30208 0
M  V30 11160 H 1040.08 -0.648251 -0.143759 0
M  V30 11161 H 1042.61 -2.03739 0.187493 0
M  V30 11162 H 1042.62 -3.78404 -1.5256 0
M  V30 11163 H 1041.3 -4.13686 -0.428582 0
M  V30 11164 H 1039.88 -3.16093 -1.97837 0
M  V30 11165 N 1042.06 0.170153 -1.56679 0
M  V30 11166 C 1043.47 0.732502 -1.7173 0
M  V30 11167 C 1043.82 1.82736 -0.71428 0
M  V30 11168 O 1042.95 2.16044 0.124102 0
M  V30 11169 C 1043.54 1.33548 -3.11368 0
M  V30 11170 C 1042.1 1.84464 -3.281 0
M  V30 11171 C 1041.25 0.724069 -2.6768 0
M  V30 11172 H 1044.2 -0.0552543 -1.58604 0
M  V30 11173 H 1044.22 2.20519 -3.10083 0
M  V30 11174 H 1043.73 0.5384 -3.84347 0
M  V30 11175 H 1041.83 2.66813 -2.6008 0
M  V30 11176 H 1041.95 1.98928 -4.35849 0
M  V30 11177 H 1040.31 1.14481 -2.27522 0
M  V30 11178 H 1041.09 -0.0611861 -3.43245 0
M  V30 11179 N 1043.54 1.5137 0.438746 0
M  V30 11180 C 1044.47 1.68774 1.55074 0
M  V30 11181 C 1045.48 0.568436 1.52554 0
M  V30 11182 O 1046.67 0.842707 1.57355 0
M  V30 11183 C 1043.77 1.68592 2.9399 0
M  V30 11184 C 1042.95 2.97084 3.2103 0
M  V30 11185 C 1042 2.89108 4.39663 0
M  V30 11186 O 1041.03 3.63052 4.38385 0
M  V30 11187 N 1042.23 2.04863 5.4315 0
M  V30 11188 H 1045 2.647 1.40549 0
M  V30 11189 H 1042.56 1.49238 0.627663 0
M  V30 11190 H 1044.55 1.60826 3.71372 0
M  V30 11191 H 1043.12 0.802657 3.02119 0
M  V30 11192 H 1042.34 3.18729 2.3196 0
M  V30 11193 H 1043.63 3.82143 3.35923 0
M  V30 11194 H 1043.03 1.4416 5.47023 0
M  V30 11195 H 1041.58 2.02977 6.1939 0
M  V30 11196 N 1045.02 -0.694098 1.41492 0
M  V30 11197 C 1046.27 -1.4498 1.40227 0
M  V30 11198 C 1046.58 -1.95594 0.0151253 0
M  V30 11199 O 1047.78 -2.71234 -0.120146 0
M  V30 11200 C 1046.24 -2.62171 2.46565 0
M  V30 11201 C 1045.85 -2.18337 3.91194 0
M  V30 11202 C 1047.59 -3.39796 2.54439 0
M  V30 11203 C 1045.5 -3.32495 4.89082 0
M  V30 11204 H 1044.43 -0.544584 0.521483 0
M  V30 11205 H 1047.08 -0.75337 1.67322 0
M  V30 11206 H 1045.46 -3.34089 2.12604 0
M  V30 11207 H 1046.64 -1.53698 4.34412 0
M  V30 11208 H 1044.95 -1.53702 3.86994 0
M  V30 11209 H 1047.55 -4.2478 3.24755 0
M  V30 11210 H 1047.89 -3.85082 1.5817 0
M  V30 11211 H 1048.42 -2.74935 2.87499 0
M  V30 11212 H 1045.16 -2.92219 5.86761 0
M  V30 11213 H 1044.68 -3.95978 4.50512 0
M  V30 11214 H 1046.36 -3.98251 5.09907 0
M  V30 11215 N 1046.49 -1.27344 -0.928501 0
M  V30 11216 C 1047.91 -1.12361 -1.49103 0
M  V30 11217 C 1048.26 0.291667 -1.9402 0
M  V30 11218 O 1047.38 1.18449 -1.81104 0
M  V30 11219 C 1047.98 -2.03358 -2.70981 0
M  V30 11220 C 1046.54 -1.92483 -3.23461 0
M  V30 11221 C 1045.68 -1.95961 -1.962 0
M  V30 11222 H 1048.63 -1.40249 -0.742689 0
M  V30 11223 H 1048.65 -1.58892 -3.45736 0
M  V30 11224 H 1048.17 -3.06356 -2.38259 0
M  V30 11225 H 1046.27 -0.924676 -3.60944 0
M  V30 11226 H 1046.38 -2.78682 -3.89709 0
M  V30 11227 H 1044.74 -1.40175 -2.12657 0
M  V30 11228 H 1045.53 -3.00612 -1.65793 0
M  V30 11229 N 1047.97 1.13488 -1.09353 0
M  V30 11230 C 1048.92 2.16933 -0.701709 0
M  V30 11231 C 1049.91 1.58382 0.283553 0
M  V30 11232 O 1051.1 1.7675 0.0940391 0
M  V30 11233 C 1048.23 3.43079 -0.123031 0
M  V30 11234 C 1047.31 4.08639 -1.13466 0
M  V30 11235 N 1047.7 4.49377 -2.32152 0
M  V30 11236 C 1046 4.35265 -0.972632 0
M  V30 11237 C 1046.7 5.00464 -2.96497 0
M  V30 11238 N 1045.68 4.95275 -2.24061 0
M  V30 11239 H 1049.48 2.46183 -1.60534 0
M  V30 11240 H 1047 1.30275 -0.969644 0
M  V30 11241 H 1048.99 4.1653 0.17569 0
M  V30 11242 H 1047.65 3.15304 0.775461 0
M  V30 11243 H 1048.66 4.42105 -2.69748 0
M  V30 11244 H 1045.34 4.17301 -0.12876 0
M  V30 11245 H 1046.73 5.41785 -3.9739 0
M  V30 11246 N 1049.45 0.880621 1.30701 0
M  V30 11247 C 1050.38 0.301443 2.27209 0
M  V30 11248 C 1051.4 -0.541533 1.53529 0
M  V30 11249 O 1052.59 -0.361791 1.74795 0
M  V30 11250 C 1049.69 -0.59038 3.33718 0
M  V30 11251 C 1048.86 0.222549 4.36833 0
M  V30 11252 C 1047.92 -0.599083 5.22779 0
M  V30 11253 O 1046.94 -0.0233267 5.69195 0
M  V30 11254 N 1048.15 -1.90904 5.48211 0
M  V30 11255 H 1050.91 1.13083 2.77547 0
M  V30 11256 H 1048.47 0.743168 1.43835 0
M  V30 11257 H 1050.46 -1.14599 3.88135 0
M  V30 11258 H 1049.03 -1.32044 2.83343 0
M  V30 11259 H 1048.25 0.959606 3.82342 0
M  V30 11260 H 1049.54 0.779965 5.02786 0
M  V30 11261 H 1048.94 -2.3998 5.12275 0
M  V30 11262 H 1047.5 -2.4122 6.05521 0
M  V30 11263 N 1050.93 -1.4397 0.641131 0
M  V30 11264 C 1052.16 -2.06303 0.157006 0
M  V30 11265 C 1052.57 -1.47981 -1.17248 0
M  V30 11266 O 1051.93 -0.606471 -1.72128 0
M  V30 11267 C 1051.98 -3.6147 0.0468425 0
M  V30 11268 O 1051.7 -4.17622 1.32376 0
M  V30 11269 C 1053.2 -4.40857 -0.464795 0
M  V30 11270 H 1050.42 -0.665684 0.0842946 0
M  V30 11271 H 1052.97 -1.84675 0.878363 0
M  V30 11272 H 1051.12 -3.82325 -0.625006 0
M  V30 11273 H 1051.54 -5.11167 1.17509 0
M  V30 11274 H 1053.01 -5.49813 -0.490862 0
M  V30 11275 H 1053.49 -4.13016 -1.4938 0
M  V30 11276 H 1054.09 -4.24943 0.174146 0
M  V30 11277 N 1052.41 -0.382291 -1.52893 0
M  V30 11278 C 1053.64 0.202114 -2.05609 0
M  V30 11279 C 1054.05 1.4164 -1.25438 0
M  V30 11280 O 1053.39 1.81359 -0.292324 0
M  V30 11281 C 1053.45 0.64356 -3.53693 0
M  V30 11282 C 1053.11 -0.456305 -4.54716 0
M  V30 11283 C 1054.11 -1.3115 -5.03086 0
M  V30 11284 C 1051.8 -0.621329 -4.98442 0
M  V30 11285 C 1053.79 -2.3169 -5.938 0
M  V30 11286 C 1051.48 -1.63008 -5.88958 0
M  V30 11287 C 1052.48 -2.47629 -6.36529 0
M  V30 11288 O 1052.16 -3.46781 -7.25257 0
M  V30 11289 H 1051.9 0.0358014 -0.675051 0
M  V30 11290 H 1054.45 -0.543935 -1.98067 0
M  V30 11291 H 1052.68 1.44148 -3.58829 0
M  V30 11292 H 1054.37 1.15284 -3.89184 0
M  V30 11293 H 1055.13 -1.19528 -4.70041 0
M  V30 11294 H 1051.01 0.027593 -4.60992 0
M  V30 11295 H 1054.56 -2.97776 -6.30853 0
M  V30 11296 H 1050.45 -1.74671 -6.21418 0
M  V30 11297 H 1051.22 -3.42707 -7.433 0
M  V30 11298 N 1053.89 1.57202 -0.111913 0
M  V30 11299 C 1055.11 1.99723 0.559054 0
M  V30 11300 C 1055.54 0.990968 1.59879 0
M  V30 11301 O 1054.89 -0.038311 1.8126 0
M  V30 11302 C 1054.94 3.41151 1.16826 0
M  V30 11303 O 1054.05 3.43383 2.2839 0
M  V30 11304 H 1053.39 0.649004 0.140319 0
M  V30 11305 H 1055.92 2.03637 -0.198295 0
M  V30 11306 H 1055.93 3.79208 1.50551 0
M  V30 11307 H 1054.6 4.13907 0.406637 0
M  V30 11308 H 1053.18 3.17138 1.96158 0
M  V30 11309 N 1055.36 -0.161842 1.56767 0
M  V30 11310 C 1056.59 -0.896274 1.87034 0
M  V30 11311 C 1057.01 -1.74617 0.699314 0
M  V30 11312 O 1056.37 -1.77861 -0.351435 0
M  V30 11313 C 1056.42 -1.74105 3.15784 0
M  V30 11314 O 1055.52 -2.84372 2.98674 0
M  V30 11315 H 1054.86 -0.250523 0.614926 0
M  V30 11316 H 1057.39 -0.157127 2.03996 0
M  V30 11317 H 1057.4 -2.13907 3.4743 0
M  V30 11318 H 1056.08 -1.11684 4.00624 0
M  V30 11319 H 1054.66 -2.48084 2.78404 0
M  V30 11320 N 1056.84 -1.516 -0.430713 0
M  V30 11321 C 1058.09 -1.63829 -1.17657 0
M  V30 11322 C 1058.4 -0.363605 -1.92191 0
M  V30 11323 O 1059.61 -0.365358 -2.6903 0
M  V30 11324 C 1058.07 -2.89357 -2.14011 0
M  V30 11325 C 1057.67 -4.23854 -1.45094 0
M  V30 11326 C 1059.42 -3.10944 -2.88988 0
M  V30 11327 C 1057.32 -5.40526 -2.3997 0
M  V30 11328 H 1056.25 -0.610221 -0.442884 0
M  V30 11329 H 1058.91 -1.78073 -0.442984 0
M  V30 11330 H 1057.29 -2.68762 -2.90832 0
M  V30 11331 H 1058.46 -4.54854 -0.737853 0
M  V30 11332 H 1056.78 -4.08197 -0.822429 0
M  V30 11333 H 1059.37 -3.95286 -3.60074 0
M  V30 11334 H 1059.72 -2.24291 -3.50712 0
M  V30 11335 H 1060.25 -3.3191 -2.19272 0
M  V30 11336 H 1056.99 -6.29459 -1.82925 0
M  V30 11337 H 1056.51 -5.13893 -3.09313 0
M  V30 11338 H 1058.19 -5.72741 -3.00959 0
M  V30 11339 N 1058.32 0.686584 -1.41858 0
M  V30 11340 C 1059.25 1.81264 -1.47193 0
M  V30 11341 C 1060.23 1.66875 -0.329657 0
M  V30 11342 O 1061.42 1.86473 -0.542347 0
M  V30 11343 C 1058.55 3.19472 -1.36216 0
M  V30 11344 C 1057.5 3.4858 -2.48347 0
M  V30 11345 C 1056.83 4.86239 -2.22432 0
M  V30 11346 C 1058.13 3.46653 -3.90678 0
M  V30 11347 H 1059.82 1.77057 -2.41436 0
M  V30 11348 H 1057.37 0.850415 -1.16206 0
M  V30 11349 H 1059.32 3.97969 -1.38558 0
M  V30 11350 H 1058.04 3.24327 -0.384611 0
M  V30 11351 H 1056.7 2.72437 -2.45303 0
M  V30 11352 H 1056.35 4.8773 -1.22999 0
M  V30 11353 H 1056.05 5.06677 -2.97577 0
M  V30 11354 H 1057.57 5.67034 -2.26505 0
M  V30 11355 H 1058.99 4.15139 -3.95389 0
M  V30 11356 H 1057.38 3.78625 -4.65578 0
M  V30 11357 H 1058.45 2.45451 -4.18189 0
M  V30 11358 N 1059.8 1.27835 0.921735 0
M  V30 11359 C 1060.74 1.11075 2.02314 0
M  V30 11360 C 1061.71 0.0101195 1.66097 0
M  V30 11361 O 1062.9 0.173564 1.90009 0
M  V30 11362 C 1060.04 0.770251 3.36394 0
M  V30 11363 C 1059.15 1.94912 3.8553 0
M  V30 11364 C 1058.29 1.54996 5.08084 0
M  V30 11365 C 1057.33 2.69595 5.49531 0
M  V30 11366 N 1056.46 2.30227 6.6328 0
M  V30 11367 H 1061.3 2.05319 2.15982 0
M  V30 11368 H 1058.84 1.022 1.058 0
M  V30 11369 H 1060.8 0.553624 4.1351 0
M  V30 11370 H 1059.43 -0.135238 3.22517 0
M  V30 11371 H 1058.48 2.27811 3.04641 0
M  V30 11372 H 1059.79 2.80858 4.12214 0
M  V30 11373 H 1058.95 1.29493 5.9272 0
M  V30 11374 H 1057.69 0.661676 4.83191 0
M  V30 11375 H 1056.69 2.95806 4.63442 0
M  V30 11376 H 1057.92 3.59054 5.76417 0
M  V30 11377 H 1055.86 1.43858 6.40032 0
M  V30 11378 H 1055.78 3.09711 6.89649 0
M  V30 11379 H 1057.05 2.07987 7.5124 0
M  V30 11380 N 1061.28 -1.12907 1.09954 0
M  V30 11381 C 1062.23 -2.16558 0.713204 0
M  V30 11382 C 1063.21 -1.5853 -0.27515 0
M  V30 11383 O 1064.4 -1.76797 -0.0846643 0
M  V30 11384 C 1061.53 -3.43009 0.141224 0
M  V30 11385 C 1060.62 -4.08032 1.15632 0
M  V30 11386 N 1061.01 -4.48139 2.34531 0
M  V30 11387 C 1059.31 -4.34743 0.995701 0
M  V30 11388 C 1060.01 -4.98885 2.99147 0
M  V30 11389 N 1058.98 -4.9408 2.26684 0
M  V30 11390 H 1062.78 -2.45328 1.61838 0
M  V30 11391 H 1060.3 -1.29759 0.976539 0
M  V30 11392 H 1062.3 -4.16617 -0.153598 0
M  V30 11393 H 1060.96 -3.15711 -0.758729 0
M  V30 11394 H 1061.97 -4.40668 2.72089 0
M  V30 11395 H 1058.64 -4.17227 0.150888 0
M  V30 11396 H 1060.03 -5.3967 4.00257 0
M  V30 11397 N 1062.75 -0.88754 -1.30232 0
M  V30 11398 C 1063.68 -0.372481 -2.3051 0
M  V30 11399 C 1064.66 0.546037 -1.61098 0
M  V30 11400 O 1065.85 0.459345 -1.88689 0
M  V30 11401 C 1062.98 0.411605 -3.44852 0
M  V30 11402 C 1061.93 -0.415383 -4.2598 0
M  V30 11403 C 1061.26 0.495463 -5.324 0
M  V30 11404 C 1062.56 -1.65886 -4.95257 0
M  V30 11405 H 1064.25 -1.21045 -2.7384 0
M  V30 11406 H 1061.8 -0.583498 -1.31648 0
M  V30 11407 H 1063.75 0.782584 -4.1407 0
M  V30 11408 H 1062.48 1.28325 -3.00334 0
M  V30 11409 H 1061.14 -0.768534 -3.58454 0
M  V30 11410 H 1060.78 1.36489 -4.84128 0
M  V30 11411 H 1060.48 -0.0540885 -5.87575 0
M  V30 11412 H 1062.01 0.862901 -6.04472 0
M  V30 11413 H 1063.42 -1.35832 -5.56976 0
M  V30 11414 H 1061.82 -2.14881 -5.60309 0
M  V30 11415 H 1062.89 -2.40181 -4.21237 0
M  V30 11416 N 1064.23 1.43628 -0.648757 0
M  V30 11417 C 1065.18 2.32529 0.057536 0
M  V30 11418 C 1066.17 1.48358 0.817699 0
M  V30 11419 O 1067.38 1.64595 0.728605 0
M  V30 11420 H 1063.76 0.75107 0.037388 0
M  V30 11421 H 1065.73 2.89829 -0.710062 0
M  V30 11422 C 1064.48 3.32605 1.01336 0
M  V30 11423 H 1063.8 3.97395 0.437855 0
M  V30 11424 H 1065.24 3.97453 1.47672 0
M  V30 11425 C 1063.7 2.62865 2.10722 0
M  V30 11426 O 1064.23 2.4408 3.19042 0
M  V30 11427 N 1062.43 2.22312 1.87152 0
M  V30 11428 H 1061.98 2.3779 0.990644 0
M  V30 11429 H 1061.94 1.75979 2.60536 0
M  V30 11430 O 1065.75 0.532575 1.52466 0
M  V30 11431 H 1066.44 0.0233553 1.93686 0
M  V30 END ATOM
M  V30 BEGIN BOND
M  V30 END BOND
M  V30 END CTAB
M  END
$$$$
