drugbank_target|Q16644 MAP kinase-activated protein kinase 3 (DB07728; DB08358)
 OpenBabel12092120463D

  0  0  0     0  0            999 V3000
M  V30 BEGIN CTAB
M  V30 COUNTS 5997 6065 0 0 0
M  V30 BEGIN ATOM
M  V30 1 H -0.908 1.98254 -0.117106 0
M  V30 2 N 0 1.576 0 0
M  V30 3 C 0.933 2.03868 1.02534 0
M  V30 4 C 1.911 0.928543 1.3348 0
M  V30 5 O 3.095 1.19667 1.45644 0
M  V30 6 C 0.222 2.43627 2.35294 0
M  V30 7 C -0.732 3.65373 2.2001 0
M  V30 8 S 0.101 5.13292 1.52614 0
M  V30 9 C 1.257 5.56322 2.86805 0
M  V30 10 H 1.49 2.90518 0.631377 0
M  V30 11 H -0.977 1.52953 0.210867 0
M  V30 12 H 0.981 2.67203 3.11629 0
M  V30 13 H -0.358 1.57376 2.7183 0
M  V30 14 H -1.165 3.90944 3.18086 0
M  V30 15 H -1.563 3.418 1.51819 0
M  V30 16 H 0.729 5.58782 3.83104 0
M  V30 17 H 1.672 6.56266 2.65933 0
M  V30 18 H 2.08 4.83886 2.90714 0
M  V30 19 N 1.4781 -0.272755 1.55222 0
M  V30 20 C 2.7551 -1.02562 1.66555 0
M  V30 21 C 3.1351 -2.04282 0.532189 0
M  V30 22 O 2.4831 -2.23662 -0.467717 0
M  V30 23 C 2.6931 -1.6822 3.05782 0
M  V30 24 C 4.0411 -2.19373 3.63539 0
M  V30 25 O 5.0651 -1.78206 3.08417 0
M  V30 26 O 3.9241 -2.94883 4.60115 0
M  V30 27 H 1.0181 -0.475755 0.676451 0
M  V30 28 H 3.5641 -0.268593 1.67561 0
M  V30 29 H 2.3361 -0.945112 3.79715 0
M  V30 30 H 1.9591 -2.50609 3.08676 0
M  V30 31 N 2.9562 -1.48159 -0.537278 0
M  V30 32 C 4.2042 -1.55497 -1.29094 0
M  V30 33 C 4.5252 -0.227454 -1.93669 0
M  V30 34 O 3.7952 0.750386 -1.80959 0
M  V30 35 H 2.3752 -0.572832 -0.47945 0
M  V30 36 H 5.0372 -1.84579 -0.625818 0
M  V30 37 H 4.1332 -2.33216 -2.07405 0
M  V30 38 N 4.4343 0.785586 -1.36625 0
M  V30 39 C 5.3443 1.92964 -1.33425 0
M  V30 40 C 6.3603 1.72394 -0.235851 0
M  V30 41 O 7.5363 1.95866 -0.468878 0
M  V30 42 C 4.6013 3.27884 -1.12662 0
M  V30 43 C 3.6623 3.61204 -2.32013 0
M  V30 44 C 2.8953 4.89687 -2.12231 0
M  V30 45 O 3.1183 5.59704 -1.09945 0
M  V30 46 O 2.0523 5.21752 -3.00098 0
M  V30 47 H 5.8783 1.98613 -2.29753 0
M  V30 48 H 3.4633 0.926384 -1.17211 0
M  V30 49 H 5.3453 4.08614 -1.03016 0
M  V30 50 H 4.0203 3.23118 -0.193991 0
M  V30 51 H 2.9273 2.80765 -2.47228 0
M  V30 52 H 4.2603 3.70698 -3.23796 0
M  V30 53 N 5.9124 1.20967 1.01018 0
M  V30 54 C 7.1404 1.04956 1.78303 0
M  V30 55 C 7.5554 -0.400915 1.84494 0
M  V30 56 O 6.9124 -1.27826 1.30257 0
M  V30 57 C 6.9634 1.63403 3.22462 0
M  V30 58 O 6.6844 3.02775 3.16637 0
M  V30 59 C 8.1854 1.52432 4.16268 0
M  V30 60 H 5.4054 0.368858 0.560522 0
M  V30 61 H 7.9494 1.60193 1.27116 0
M  V30 62 H 6.1044 1.1227 3.70775 0
M  V30 63 H 6.5184 3.30626 4.07169 0
M  V30 64 H 7.9924 1.98078 5.15237 0
M  V30 65 H 8.4694 0.477875 4.36592 0
M  V30 66 H 9.0754 2.02787 3.73841 0
M  V30 67 N 7.3905 -1.2043 1.01659 0
M  V30 68 C 8.3535 -2.21433 0.591616 0
M  V30 69 C 9.3535 -1.57203 -0.338226 0
M  V30 70 O 10.5435 -1.73737 -0.126918 0
M  V30 71 C 7.6755 -3.40628 -0.136058 0
M  V30 72 H 8.8685 -2.60545 1.48514 0
M  V30 73 H 6.4215 -1.33893 0.806379 0
M  V30 74 H 7.1565 -3.07019 -1.04449 0
M  V30 75 H 6.9415 -3.88475 0.531917 0
M  V30 76 H 8.4315 -4.15475 -0.420735 0
M  V30 77 N 8.8686 -0.792821 -1.36206 0
M  V30 78 C 9.7786 -0.194808 -2.3379 0
M  V30 79 C 10.7946 0.654869 -1.61206 0
M  V30 80 O 11.9706 0.569856 -1.9317 0
M  V30 81 C 9.0356 0.657721 -3.40404 0
M  V30 82 C 8.0966 -0.210849 -4.28782 0
M  V30 83 C 7.3296 0.601086 -5.30304 0
M  V30 84 O 7.5526 1.83682 -5.40016 0
M  V30 85 O 6.4866 -0.000808277 -6.019 0
M  V30 86 H 10.3126 -1.00172 -2.86704 0
M  V30 87 H 7.8976 -0.554341 -1.38735 0
M  V30 88 H 9.7796 1.14375 -4.05581 0
M  V30 89 H 8.4546 1.44247 -2.89784 0
M  V30 90 H 7.3616 -0.743714 -3.66633 0
M  V30 91 H 8.6946 -0.959195 -4.82763 0
M  V30 92 N 10.3467 1.47872 -0.545128 0
M  V30 93 C 11.2567 2.33633 0.212746 0
M  V30 94 C 12.2727 1.4744 0.923983 0
M  V30 95 O 13.4487 1.80393 0.895572 0
M  V30 96 C 10.5137 3.23884 1.23693 0
M  V30 97 C 9.5747 4.25961 0.534417 0
M  V30 98 C 8.8077 5.11899 1.5098 0
M  V30 99 O 9.0307 5.00077 2.7437 0
M  V30 100 O 7.9647 5.92831 1.0409 0
M  V30 101 H 11.7907 2.99714 -0.490416 0
M  V30 102 H 9.3757 1.46235 -0.305871 0
M  V30 103 H 11.2577 3.79666 1.82843 0
M  V30 104 H 9.9327 2.60446 1.92222 0
M  V30 105 H 8.8397 3.73972 -0.0979679 0
M  V30 106 H 10.1727 4.92079 -0.109213 0
M  V30 107 N 11.8248 0.280983 1.55075 0
M  V30 108 C 12.7568 -0.637268 2.20163 0
M  V30 109 C 13.7698 -1.11298 1.18813 0
M  V30 110 O 14.9588 -1.03388 1.4551 0
M  V30 111 C 12.0588 -1.88199 2.81841 0
M  V30 112 C 11.2318 -1.55211 4.08936 0
M  V30 113 C 10.2908 -2.64991 4.54606 0
M  V30 114 O 9.3168 -2.30929 5.2025 0
M  V30 115 N 10.5188 -3.95161 4.25238 0
M  V30 116 H 13.2838 -0.0801694 2.99593 0
M  V30 117 H 10.8448 0.102329 1.61576 0
M  V30 118 H 12.8368 -2.60948 3.09335 0
M  V30 119 H 11.4068 -2.34799 2.06369 0
M  V30 120 H 10.6268 -0.658185 3.88666 0
M  V30 121 H 11.9148 -1.30681 4.91732 0
M  V30 122 H 11.3128 -4.25653 3.72607 0
M  V30 123 H 9.8698 -4.6427 4.5749 0
M  V30 124 N 13.3029 -1.57598 0.00835791 0
M  V30 125 C 14.5509 -1.90551 -0.6734 0
M  V30 126 C 14.8719 -0.883301 -1.73847 0
M  V30 127 O 14.1419 0.0781442 -1.95744 0
M  V30 128 H 12.7219 -0.703312 -0.251717 0
M  V30 129 H 15.3839 -1.94833 0.0512592 0
M  V30 130 H 14.4799 -2.9056 -1.13935 0
M  V30 131 N 14.781 0.264519 -1.55364 0
M  V30 132 C 16.029 0.993021 -1.76021 0
M  V30 133 C 16.35 1.86511 -0.569099 0
M  V30 134 O 15.62 1.91438 0.415735 0
M  V30 135 H 14.2 0.369639 -0.649135 0
M  V30 136 H 16.862 0.286707 -1.9278 0
M  V30 137 H 15.958 1.62502 -2.66457 0
M  V30 138 N 16.2591 1.48442 0.529413 0
M  V30 139 C 17.6701 1.5002 1.11134 0
M  V30 140 C 18.0211 0.27031 1.94329 0
M  V30 141 O 17.1461 -0.622507 2.07253 0
M  V30 142 C 17.7411 2.71834 2.02217 0
M  V30 143 C 16.3001 2.76283 2.55627 0
M  V30 144 C 15.4471 2.43542 1.326 0
M  V30 145 H 18.3981 1.5555 0.314641 0
M  V30 146 H 18.4191 2.50384 2.8651 0
M  V30 147 H 17.9311 3.61331 1.41639 0
M  V30 148 H 16.0321 1.90995 3.19924 0
M  V30 149 H 16.1451 3.77725 2.94721 0
M  V30 150 H 14.5091 1.94709 1.64196 0
M  V30 151 H 15.2921 3.3528 0.737734 0
M  V30 152 N 17.7372 -0.778329 1.37039 0
M  V30 153 C 18.9832 -1.53892 1.32079 0
M  V30 154 C 19.3162 -1.9396 -0.0965386 0
M  V30 155 O 18.5912 -1.63568 -1.05242 0
M  V30 156 C 18.8742 -2.80847 2.25382 0
M  V30 157 C 18.7272 -2.47076 3.75864 0
M  V30 158 C 20.0462 -3.82741 2.1725 0
M  V30 159 H 17.1652 -0.558303 0.48111 0
M  V30 160 H 19.8072 -0.893397 1.67685 0
M  V30 161 H 17.9572 -3.35931 1.95148 0
M  V30 162 H 19.6292 -1.97957 4.16666 0
M  V30 163 H 17.8722 -1.79863 3.94755 0
M  V30 164 H 18.5432 -3.37798 4.36574 0
M  V30 165 H 21.0192 -3.37133 2.43887 0
M  V30 166 H 19.8952 -4.69303 2.84686 0
M  V30 167 H 20.1562 -4.2652 1.16331 0
M  V30 168 N 19.2153 -1.21501 -1.00376 0
M  V30 169 C 20.6263 -1.03146 -1.55621 0
M  V30 170 C 20.9773 0.408375 -1.91903 0
M  V30 171 O 20.1023 1.29177 -1.73616 0
M  V30 172 C 20.6973 -1.86612 -2.82775 0
M  V30 173 C 19.2563 -1.72586 -3.34501 0
M  V30 174 C 18.4033 -1.83747 -2.07683 0
M  V30 175 H 21.3543 -1.35505 -0.826081 0
M  V30 176 H 21.3753 -1.3771 -3.54706 0
M  V30 177 H 20.8873 -2.91399 -2.56336 0
M  V30 178 H 18.9883 -0.704877 -3.65872 0
M  V30 179 H 19.1013 -2.54623 -4.05837 0
M  V30 180 H 17.4653 -1.27069 -2.20739 0
M  V30 181 H 18.2483 -2.90044 -1.83655 0
M  V30 182 N 20.6934 1.19889 -1.02296 0
M  V30 183 C 22.1044 1.71124 -0.746568 0
M  V30 184 C 22.4554 1.81939 0.734335 0
M  V30 185 O 21.5804 1.48639 1.57275 0
M  V30 186 C 22.1754 3.10804 -1.34857 0
M  V30 187 C 20.7344 3.59323 -1.1209 0
M  V30 188 C 19.8814 2.3635 -1.45031 0
M  V30 189 H 22.8324 1.04813 -1.19163 0
M  V30 190 H 22.8534 3.73186 -0.742437 0
M  V30 191 H 22.3654 3.029 -2.42638 0
M  V30 192 H 20.4664 3.7255 -0.0610337 0
M  V30 193 H 20.5794 4.4378 -1.80544 0
M  V30 194 H 18.9434 2.39399 -0.869487 0
M  V30 195 H 19.7264 2.31081 -2.53883 0
M  V30 196 N 22.1715 0.800033 1.35784 0
M  V30 197 C 23.5825 0.439142 1.81462 0
M  V30 198 C 23.9335 -1.03813 1.66485 0
M  V30 199 O 23.0585 -1.80626 1.19177 0
M  V30 200 C 23.6535 0.790314 3.29453 0
M  V30 201 C 22.2125 0.482111 3.733 0
M  V30 202 C 21.3595 1.01938 2.57883 0
M  V30 203 H 24.3105 0.992254 1.23855 0
M  V30 204 H 24.3315 0.0853677 3.80404 0
M  V30 205 H 23.8435 1.86554 3.40322 0
M  V30 206 H 21.9445 -0.584652 3.67984 0
M  V30 207 H 22.0575 1.01015 4.6833 0
M  V30 208 H 20.4215 0.442043 2.50835 0
M  V30 209 H 21.2045 2.10059 2.71533 0
M  V30 210 N 23.6496 -1.47581 0.552962 0
M  V30 211 C 24.8956 -2.02782 0.0273648 0
M  V30 212 C 25.2286 -1.42687 -1.31734 0
M  V30 213 O 24.5036 -0.580897 -1.85623 0
M  V30 214 C 24.7866 -3.60031 -0.0702371 0
M  V30 215 C 24.6396 -4.30566 1.30126 0
M  V30 216 C 25.9586 -4.33028 -0.785771 0
M  V30 217 H 23.0776 -0.736912 0.0114185 0
M  V30 218 H 25.7196 -1.76056 0.714432 0
M  V30 219 H 23.8696 -3.82932 -0.655382 0
M  V30 220 H 25.5416 -4.19018 1.92929 0
M  V30 221 H 23.7846 -3.91086 1.87709 0
M  V30 222 H 24.4556 -5.39114 1.18573 0
M  V30 223 H 26.9316 -4.15095 -0.288982 0
M  V30 224 H 25.8076 -5.42695 -0.823013 0
M  V30 225 H 26.0686 -4.01945 -1.841 0
M  V30 226 N 25.1277 -0.289203 -1.54924 0
M  V30 227 C 26.0907 0.579144 -2.21762 0
M  V30 228 C 27.0907 1.07047 -1.1999 0
M  V30 229 O 28.2807 0.968384 -1.44803 0
M  V30 230 C 25.4127 1.80055 -2.8947 0
M  V30 231 H 26.6057 -0.00464908 -2.999 0
M  V30 232 H 24.1587 -0.0399306 -1.56249 0
M  V30 233 H 24.8937 2.42449 -2.15381 0
M  V30 234 H 24.6787 1.45602 -3.64064 0
M  V30 235 H 26.1687 2.41773 -3.40493 0
M  V30 236 N 26.6058 1.57591 -0.0167156 0
M  V30 237 C 28.0168 1.79201 0.523834 0
M  V30 238 C 28.3678 0.925796 1.72984 0
M  V30 239 O 27.4928 0.132792 2.15992 0
M  V30 240 C 28.0878 3.25 0.957091 0
M  V30 241 C 26.6468 3.47648 1.44283 0
M  V30 242 C 25.7938 2.74374 0.401757 0
M  V30 243 H 28.7448 1.56831 -0.242816 0
M  V30 244 H 28.7658 3.34031 1.82219 0
M  V30 245 H 28.2778 3.88019 0.0791415 0
M  V30 246 H 26.3788 2.89866 2.34113 0
M  V30 247 H 26.4918 4.56352 1.45877 0
M  V30 248 H 24.8558 2.39485 0.867121 0
M  V30 249 H 25.6388 3.40102 -0.467513 0
M  V30 250 N 28.0839 -0.256276 1.55502 0
M  V30 251 C 29.3319 -0.983672 1.76545 0
M  V30 252 C 29.6529 -1.86206 0.578982 0
M  V30 253 O 28.9229 -1.91656 -0.405577 0
M  V30 254 H 27.5029 -0.366191 0.651086 0
M  V30 255 H 30.1649 -0.276479 1.92929 0
M  V30 256 H 29.2609 -1.61087 2.67315 0
M  V30 257 N 29.562 -1.4872 -0.521534 0
M  V30 258 C 30.81 -1.56857 -1.27437 0
M  V30 259 C 31.131 -0.247982 -1.93417 0
M  V30 260 O 30.401 0.731151 -1.81744 0
M  V30 261 H 28.981 -0.577885 -0.473347 0
M  V30 262 H 31.643 -1.85233 -0.606205 0
M  V30 263 H 30.739 -2.35402 -2.0492 0
M  V30 264 N 31.0401 0.771051 -1.3745 0
M  V30 265 C 32.4511 1.34737 -1.29239 0
M  V30 266 C 32.8021 1.96109 0.0596908 0
M  V30 267 O 31.9271 1.93865 0.961534 0
M  V30 268 C 32.5221 2.44973 -2.34037 0
M  V30 269 C 31.0811 2.98372 -2.29458 0
M  V30 270 C 30.2281 1.71595 -2.17831 0
M  V30 271 H 33.1791 0.571256 -1.48062 0
M  V30 272 H 33.2001 3.24471 -1.98744 0
M  V30 273 H 32.7121 2.00276 -3.32432 0
M  V30 274 H 30.8131 3.47443 -1.34589 0
M  V30 275 H 30.9261 3.53939 -3.229 0
M  V30 276 H 29.2901 1.94547 -1.64388 0
M  V30 277 H 30.0731 1.29001 -3.18141 0
M  V30 278 N 32.5182 1.22032 0.997298 0
M  V30 279 C 33.7662 1.04016 1.73278 0
M  V30 280 C 34.0872 -0.426255 1.90284 0
M  V30 281 O 33.3572 -1.30694 1.45931 0
M  V30 282 H 31.9372 0.381897 0.642 0
M  V30 283 H 34.5992 1.5347 1.20137 0
M  V30 284 H 33.6952 1.51441 2.72896 0
M  V30 285 N 33.9963 -1.19345 1.0293 0
M  V30 286 C 34.9263 -2.2481 0.631105 0
M  V30 287 C 35.9073 -1.66245 -0.360104 0
M  V30 288 O 37.0923 -1.92677 -0.242726 0
M  V30 289 C 34.2223 -3.47295 -0.0184607 0
M  V30 290 C 33.1763 -4.18536 0.895073 0
M  V30 291 C 32.5023 -5.34586 0.110592 0
M  V30 292 C 33.8023 -4.73287 2.209 0
M  V30 293 H 35.4963 -2.58372 1.51275 0
M  V30 294 H 33.0423 -1.24194 0.728818 0
M  V30 295 H 34.9953 -4.20268 -0.308675 0
M  V30 296 H 33.7193 -3.12933 -0.934907 0
M  V30 297 H 32.3783 -3.47446 1.16949 0
M  V30 298 H 32.0263 -4.96469 -0.807902 0
M  V30 299 H 31.7263 -5.83183 0.719087 0
M  V30 300 H 33.2503 -6.10355 -0.172871 0
M  V30 301 H 34.6643 -5.38013 1.98028 0
M  V30 302 H 33.0613 -5.32373 2.76946 0
M  V30 303 H 34.1313 -3.91331 2.86336 0
M  V30 304 N 35.4744 -0.807222 -1.35358 0
M  V30 305 C 36.7224 -0.387122 -1.98358 0
M  V30 306 C 37.0434 1.04942 -1.64354 0
M  V30 307 O 36.3134 1.72615 -0.926339 0
M  V30 308 H 34.8934 -0.140154 -0.733734 0
M  V30 309 H 37.5554 -1.0332 -1.6526 0
M  V30 310 H 36.6514 -0.493352 -3.08176 0
M  V30 311 N 36.9525 1.47285 -0.560781 0
M  V30 312 C 38.2005 2.02064 -0.0379868 0
M  V30 313 C 38.5215 1.43711 1.31803 0
M  V30 314 O 37.7915 0.61362 1.86042 0
M  V30 315 H 36.3715 0.746918 -0.0110531 0
M  V30 316 H 39.0335 1.80648 -0.731598 0
M  V30 317 H 38.1295 3.12064 0.0474463 0
M  V30 318 N 38.4306 0.297415 1.54768 0
M  V30 319 C 39.3936 -0.567375 2.22066 0
M  V30 320 C 40.3936 -1.06409 1.20556 0
M  V30 321 O 41.5836 -0.960691 1.45315 0
M  V30 322 C 38.7156 -1.78517 2.90421 0
M  V30 323 H 39.9086 0.0205534 2.99893 0
M  V30 324 H 37.4616 0.0482163 1.56226 0
M  V30 325 H 38.1966 -2.41303 2.16664 0
M  V30 326 H 37.9816 -1.43669 3.64831 0
M  V30 327 H 39.4716 -2.39964 3.41771 0
M  V30 328 N 39.9087 -1.5758 0.0250728 0
M  V30 329 C 41.3197 -1.79476 -0.514323 0
M  V30 330 C 41.6707 -0.934956 -1.72491 0
M  V30 331 O 40.7957 -0.144245 -2.15919 0
M  V30 332 C 41.3907 -3.25503 -0.939842 0
M  V30 333 C 39.9497 -3.48408 -1.42438 0
M  V30 334 C 39.0967 -2.74583 -0.387201 0
M  V30 335 H 42.0477 -1.567 0.25113 0
M  V30 336 H 42.0687 -3.34992 -1.80445 0
M  V30 337 H 41.5807 -3.88056 -0.0585628 0
M  V30 338 H 39.6817 -2.91103 -2.32572 0
M  V30 339 H 39.7947 -4.57119 -1.43455 0
M  V30 340 H 38.1587 -2.39942 -0.854409 0
M  V30 341 H 38.9417 -3.39849 0.485543 0
M  V30 342 N 41.3868 0.248026 -1.55636 0
M  V30 343 C 42.6348 0.974295 -1.77065 0
M  V30 344 C 42.9558 1.85897 -0.588849 0
M  V30 345 O 42.2258 1.91868 0.395407 0
M  V30 346 H 40.8058 0.362733 -0.653019 0
M  V30 347 H 43.4678 0.266244 -1.93073 0
M  V30 348 H 42.5638 1.59667 -2.68166 0
M  V30 349 N 42.8649 1.48995 0.513639 0
M  V30 350 C 44.1129 1.57531 1.26604 0
M  V30 351 C 44.4339 0.258236 1.93283 0
M  V30 352 O 43.7039 -0.721502 1.8213 0
M  V30 353 H 42.2839 0.580387 0.470276 0
M  V30 354 H 44.9459 1.85552 0.596373 0
M  V30 355 H 44.0419 2.36486 2.03669 0
M  V30 356 N 44.343 -0.763751 1.37857 0
M  V30 357 C 45.759 -1.06542 1.18832 0
M  V30 358 C 45.959 -2.01478 0.0299722 0
M  V30 359 O 45.015 -2.4458 -0.627447 0
M  V30 360 C 46.328 -1.65525 2.51042 0
M  V30 361 C 47.876 -1.77745 2.57635 0
M  V30 362 C 48.351 -2.4014 3.89996 0
M  V30 363 N 49.842 -2.47582 3.91481 0
M  V30 364 C 50.577 -2.96732 4.9065 0
M  V30 365 N 50.073 -3.45993 6.00217 0
M  V30 366 N 51.866 -2.95679 4.78048 0
M  V30 367 H 44.017 -0.133556 2.1198 0
M  V30 368 H 46.28 -0.121879 0.940133 0
M  V30 369 H 45.986 -1.03236 3.36207 0
M  V30 370 H 45.86 -2.64719 2.68707 0
M  V30 371 H 48.247 -2.39164 1.72872 0
M  V30 372 H 48.328 -0.772836 2.43846 0
M  V30 373 H 47.972 -1.79358 4.75177 0
M  V30 374 H 47.902 -3.41223 4.01092 0
M  V30 375 H 50.393 -2.1273 3.12337 0
M  V30 376 H 50.706 -3.81922 6.7183 0
M  V30 377 H 49.051 -3.44077 6.03851 0
M  V30 378 H 52.242 -2.56499 3.91568 0
M  V30 379 H 52.415 -3.33672 5.55488 0
M  V30 380 N 45.8211 -1.22559 -0.990812 0
M  V30 381 C 47.2371 -0.985996 -1.255 0
M  V30 382 C 47.4371 0.319173 -1.98956 0
M  V30 383 O 46.4931 1.04127 -2.3003 0
M  V30 384 C 47.8061 -2.18607 -2.06474 0
M  V30 385 C 49.3541 -2.22985 -2.19651 0
M  V30 386 C 49.8291 -3.4255 -3.04012 0
M  V30 387 N 51.3201 -3.42725 -3.11599 0
M  V30 388 C 52.0551 -4.31892 -3.7717 0
M  V30 389 N 51.5511 -5.31279 -4.44651 0
M  V30 390 N 53.3441 -4.19662 -3.73952 0
M  V30 391 H 45.4951 -2.06469 -0.49841 0
M  V30 392 H 47.7581 -0.904853 -0.282747 0
M  V30 393 H 47.4641 -3.13267 -1.59865 0
M  V30 394 H 47.3381 -2.18838 -3.07229 0
M  V30 395 H 49.7251 -1.28871 -2.65474 0
M  V30 396 H 49.8061 -2.26791 -1.18319 0
M  V30 397 H 49.4501 -4.36965 -2.58889 0
M  V30 398 H 49.3801 -3.35984 -4.0549 0
M  V30 399 H 51.8711 -2.70807 -2.63575 0
M  V30 400 H 52.1841 -5.95593 -4.92431 0
M  V30 401 H 50.5291 -5.3519 -4.43392 0
M  V30 402 H 53.7201 -3.41268 -3.20396 0
M  V30 403 H 53.8931 -4.89358 -4.24774 0
M  V30 404 N 47.2992 1.18797 -1.03562 0
M  V30 405 C 48.2092 2.25913 -0.632505 0
M  V30 406 C 49.2252 1.70668 0.338882 0
M  V30 407 O 50.4012 2.00453 0.195076 0
M  V30 408 C 47.4662 3.467 0.00350942 0
M  V30 409 C 46.5272 4.17098 -1.01624 0
M  V30 410 C 45.7602 5.32119 -0.410478 0
M  V30 411 O 45.9832 5.64976 0.784725 0
M  V30 412 O 44.9172 5.9107 -1.13667 0
M  V30 413 H 48.7432 2.62648 -1.52478 0
M  V30 414 H 46.3282 1.25781 -0.806195 0
M  V30 415 H 48.2102 4.19878 0.35781 0
M  V30 416 H 46.8852 3.11798 0.869686 0
M  V30 417 H 45.7922 3.4601 -1.42224 0
M  V30 418 H 47.1252 4.55987 -1.85301 0
M  V30 419 N 48.7773 0.814389 1.34928 0
M  V30 420 C 50.1883 0.458364 1.80986 0
M  V30 421 C 50.5393 -1.02042 1.67577 0
M  V30 422 O 49.6643 -1.79352 1.21086 0
M  V30 423 C 50.2593 0.825212 3.28597 0
M  V30 424 C 48.8183 0.521677 3.72767 0
M  V30 425 C 47.9653 1.04668 2.56788 0
M  V30 426 H 50.9163 1.00533 1.22795 0
M  V30 427 H 50.9373 0.12571 3.80292 0
M  V30 428 H 50.4493 1.90154 3.38324 0
M  V30 429 H 48.5503 -0.545589 3.68584 0
M  V30 430 H 48.6633 1.05977 4.67232 0
M  V30 431 H 47.0273 0.468622 2.50352 0
M  V30 432 H 47.8103 2.12927 2.6929 0
M  V30 433 N 50.2554 -1.46986 0.568584 0
M  V30 434 C 51.2024 -2.30153 -0.172707 0
M  V30 435 C 52.1724 -1.39759 -0.897586 0
M  V30 436 O 53.3574 -1.68716 -0.891044 0
M  V30 437 C 50.4974 -3.23952 -1.1895 0
M  V30 438 C 49.6104 -4.29441 -0.469517 0
M  V30 439 C 48.7454 -5.1038 -1.47259 0
M  V30 440 C 47.7844 -6.07632 -0.738225 0
M  V30 441 N 46.9214 -6.8149 -1.68868 0
M  V30 442 H 51.7614 -2.93019 0.542596 0
M  V30 443 H 49.2984 -1.44422 0.279401 0
M  V30 444 H 51.2564 -3.76767 -1.79173 0
M  V30 445 H 49.8864 -2.62926 -1.87269 0
M  V30 446 H 48.9384 -3.79594 0.247467 0
M  V30 447 H 50.2504 -4.98689 0.105241 0
M  V30 448 H 49.4044 -5.67402 -2.14803 0
M  V30 449 H 48.1434 -4.4106 -2.08128 0
M  V30 450 H 47.1484 -5.49778 -0.0489293 0
M  V30 451 H 48.3734 -6.78966 -0.135129 0
M  V30 452 H 46.3194 -6.14891 -2.28573 0
M  V30 453 H 46.2364 -7.46948 -1.16636 0
M  V30 454 H 47.5044 -7.43078 -2.3549 0
M  V30 455 N 51.7335 -0.305618 -1.54608 0
M  V30 456 C 52.6805 0.568421 -2.23691 0
M  V30 457 C 53.6505 1.12592 -1.22116 0
M  V30 458 O 54.8355 1.16959 -1.50749 0
M  V30 459 C 51.9755 1.7322 -2.98477 0
M  V30 460 C 51.0885 1.20566 -4.14835 0
M  V30 461 C 50.2235 2.33368 -4.77193 0
M  V30 462 C 49.2625 1.7787 -5.85686 0
M  V30 463 N 48.3995 2.84263 -6.4198 0
M  V30 464 H 53.2395 -0.0272867 -2.97988 0
M  V30 465 H 50.7765 -0.0252363 -1.47078 0
M  V30 466 H 52.7345 2.41675 -3.40072 0
M  V30 467 H 51.3645 2.29947 -2.26548 0
M  V30 468 H 50.4165 0.413223 -3.78149 0
M  V30 469 H 51.7285 0.759417 -4.92985 0
M  V30 470 H 50.8825 3.09761 -5.21664 0
M  V30 471 H 49.6215 2.8132 -3.98385 0
M  V30 472 H 48.6265 0.99968 -5.40635 0
M  V30 473 H 49.8515 1.30816 -6.66381 0
M  V30 474 H 47.7975 3.31541 -5.66053 0
M  V30 475 H 47.7145 2.44149 -7.15491 0
M  V30 476 H 48.9825 3.6054 -6.91109 0
M  V30 477 N 53.2116 1.57565 -0.0334293 0
M  V30 478 C 54.4416 1.95996 0.653398 0
M  V30 479 C 54.8496 0.908749 1.65947 0
M  V30 480 O 54.1926 -0.117471 1.83324 0
M  V30 481 C 54.2546 3.30589 1.41249 0
M  V30 482 C 53.9186 4.53503 0.564263 0
M  V30 483 C 54.9156 5.19647 -0.16225 0
M  V30 484 C 52.6006 4.99801 0.500398 0
M  V30 485 C 54.5946 6.30412 -0.941255 0
M  V30 486 C 52.2816 6.10448 -0.282308 0
M  V30 487 C 53.2796 6.75612 -1.00184 0
M  V30 488 O 52.9676 7.84134 -1.77171 0
M  V30 489 H 52.6996 0.65027 0.184728 0
M  V30 490 H 55.2536 2.05199 -0.0907841 0
M  V30 491 H 53.4836 3.17888 2.20191 0
M  V30 492 H 55.1726 3.53892 1.98784 0
M  V30 493 H 55.9386 4.84846 -0.12227 0
M  V30 494 H 51.8176 4.48883 1.05002 0
M  V30 495 H 55.3616 6.81208 -1.50339 0
M  V30 496 H 51.2586 6.44686 -0.323989 0
M  V30 497 H 52.0266 8.00822 -1.69194 0
M  V30 498 N 54.6897 -0.239769 1.55765 0
M  V30 499 C 55.6527 -1.28038 1.90103 0
M  V30 500 C 56.6527 -1.40723 0.778055 0
M  V30 501 O 57.8427 -1.39301 1.04599 0
M  V30 502 C 54.9747 -2.65702 2.13577 0
M  V30 503 H 56.1677 -0.988048 2.83157 0
M  V30 504 H 53.7207 -0.479382 1.48767 0
M  V30 505 H 54.4557 -3.00063 1.23015 0
M  V30 506 H 54.2407 -2.57875 2.95369 0
M  V30 507 H 55.7307 -3.40828 2.41301 0
M  V30 508 N 56.1678 -1.49265 -0.50573 0
M  V30 509 C 57.4138 -1.58748 -1.26202 0
M  V30 510 C 57.7468 -0.271227 -1.92297 0
M  V30 511 O 57.0218 0.724831 -1.80489 0
M  V30 512 C 57.3048 -2.74332 -2.33268 0
M  V30 513 C 57.1578 -4.15737 -1.71705 0
M  V30 514 C 58.4768 -2.85576 -3.34865 0
M  V30 515 H 55.5958 -0.577826 -0.457478 0
M  V30 516 H 58.2378 -1.81532 -0.560897 0
M  V30 517 H 56.3878 -2.55036 -2.93068 0
M  V30 518 H 58.0598 -4.46537 -1.15769 0
M  V30 519 H 56.3028 -4.21605 -1.02135 0
M  V30 520 H 56.9738 -4.92477 -2.49341 0
M  V30 521 H 59.4498 -3.03127 -2.8505 0
M  V30 522 H 58.3258 -3.68135 -4.07146 0
M  V30 523 H 58.5868 -1.94732 -3.96903 0
M  V30 524 N 57.6459 0.756429 -1.3826 0
M  V30 525 C 58.8739 1.54565 -1.3754 0
M  V30 526 C 59.2889 1.88767 0.0355331 0
M  V30 527 O 58.6459 1.52572 1.0014 0
M  V30 528 C 58.6969 2.84654 -2.22833 0
M  V30 529 O 58.4179 2.51912 -3.5843 0
M  V30 530 C 59.9189 3.78807 -2.30261 0
M  V30 531 H 57.1389 0.478353 -0.470553 0
M  V30 532 H 59.6829 0.936381 -1.81803 0
M  V30 533 H 57.8379 3.41965 -1.8204 0
M  V30 534 H 58.2519 3.35325 -4.03308 0
M  V30 535 H 59.7259 4.67045 -2.94233 0
M  V30 536 H 60.2029 4.19038 -1.31545 0
M  V30 537 H 60.8089 3.2742 -2.71433 0
M  V30 538 N 59.124 1.23083 0.984299 0
M  V30 539 C 60.401 0.9689 1.69917 0
M  V30 540 C 60.781 -0.513604 2.04757 0
M  V30 541 O 60.129 -1.48383 1.73767 0
M  V30 542 C 60.339 1.87518 2.94343 0
M  V30 543 C 61.687 2.13636 3.6694 0
M  V30 544 O 62.711 1.85036 3.04368 0
M  V30 545 O 61.57 2.62119 4.79537 0
M  V30 546 H 58.664 0.365095 0.742048 0
M  V30 547 H 61.21 1.34107 1.03987 0
M  V30 548 H 59.982 2.87756 2.65164 0
M  V30 549 H 59.605 1.50514 3.6801 0
M  V30 550 N 60.6021 -1.18246 1.0419 0
M  V30 551 C 61.8791 -1.84121 0.660208 0
M  V30 552 C 62.2591 -1.92778 -0.860221 0
M  V30 553 O 61.6071 -1.45464 -1.76217 0
M  V30 554 C 61.8171 -3.22355 1.33747 0
M  V30 555 C 63.1651 -3.98376 1.46906 0
M  V30 556 O 64.1891 -3.31799 1.29568 0
M  V30 557 O 63.0481 -5.17665 1.75171 0
M  V30 558 H 60.1421 -0.794036 0.231161 0
M  V30 559 H 62.6881 -1.25628 1.14087 0
M  V30 560 H 61.4601 -3.10964 2.37522 0
M  V30 561 H 61.0831 -3.88506 0.845515 0
M  V30 562 N 62.0802 -0.821533 -1.34494 0
M  V30 563 C 63.3102 -0.421272 -2.02259 0
M  V30 564 C 63.7182 0.977047 -1.6202 0
M  V30 565 O 63.0612 1.64348 -0.820703 0
M  V30 566 C 63.1232 -0.44231 -3.56769 0
M  V30 567 C 62.7872 -1.79372 -4.20327 0
M  V30 568 C 63.7842 -2.75435 -4.40944 0
M  V30 569 C 61.4692 -2.08182 -4.57127 0
M  V30 570 C 63.4632 -3.98482 -4.97484 0
M  V30 571 C 61.1502 -3.31489 -5.13379 0
M  V30 572 C 62.1482 -4.26457 -5.33501 0
M  V30 573 O 61.8362 -5.47585 -5.88562 0
M  V30 574 H 61.5682 -0.167473 -0.654927 0
M  V30 575 H 64.1222 -1.11073 -1.72777 0
M  V30 576 H 62.3522 0.303836 -3.85505 0
M  V30 577 H 64.0412 -0.0622925 -4.05852 0
M  V30 578 H 64.8072 -2.54473 -4.12878 0
M  V30 579 H 60.6862 -1.35066 -4.4077 0
M  V30 580 H 64.2302 -4.72618 -5.13106 0
M  V30 581 H 60.1272 -3.52316 -5.40873 0
M  V30 582 H 60.8952 -5.49086 -6.06998 0
M  V30 583 N 63.5583 1.46682 -0.576371 0
M  V30 584 C 64.4903 2.28341 0.198231 0
M  V30 585 C 65.5033 1.38141 0.861453 0
M  V30 586 O 66.6923 1.62797 0.732082 0
M  V30 587 C 63.7923 3.12986 1.29972 0
M  V30 588 C 62.9653 4.31271 0.729639 0
M  V30 589 C 62.0243 4.97363 1.71803 0
M  V30 590 O 61.0503 5.55156 1.25658 0
M  V30 591 N 62.2523 4.93796 3.05198 0
M  V30 592 H 65.0173 2.9546 -0.502324 0
M  V30 593 H 62.5783 1.56525 -0.413715 0
M  V30 594 H 64.5703 3.54066 1.96008 0
M  V30 595 H 63.1403 2.47984 1.90323 0
M  V30 596 H 62.3603 3.94052 -0.108012 0
M  V30 597 H 63.6483 5.07739 0.328438 0
M  V30 598 H 63.0463 4.48077 3.45317 0
M  V30 599 H 61.6033 5.38837 3.6674 0
M  V30 600 N 65.0364 0.313813 1.54444 0
M  V30 601 C 65.9664 -0.549454 2.26943 0
M  V30 602 C 66.9474 -1.12741 1.27372 0
M  V30 603 O 68.1324 -1.15436 1.56167 0
M  V30 604 C 65.2624 -1.71523 3.01989 0
M  V30 605 C 64.2164 -1.26703 4.08816 0
M  V30 606 C 63.5424 -2.51898 4.71647 0
M  V30 607 C 64.8424 -0.388962 5.2085 0
M  V30 608 H 66.5364 0.0552661 2.99349 0
M  V30 609 H 64.0824 0.0280207 1.43973 0
M  V30 610 H 66.0354 -2.32535 3.51433 0
M  V30 611 H 64.7594 -2.34639 2.27183 0
M  V30 612 H 63.4184 -0.679896 3.6024 0
M  V30 613 H 63.0664 -3.13356 3.93468 0
M  V30 614 H 62.7664 -2.22605 5.43802 0
M  V30 615 H 64.2904 -3.1369 5.23861 0
M  V30 616 H 65.7044 -0.905107 5.6611 0
M  V30 617 H 64.1014 -0.18924 5.99802 0
M  V30 618 H 65.1714 0.582699 4.81386 0
M  V30 619 N 66.5145 -1.57545 0.0417849 0
M  V30 620 C 67.7395 -1.97035 -0.647455 0
M  V30 621 C 68.1645 -0.918775 -1.64135 0
M  V30 622 O 67.5225 0.119006 -1.80909 0
M  V30 623 C 67.5705 -3.35609 -1.31905 0
M  V30 624 O 66.6745 -3.3287 -2.43457 0
M  V30 625 H 66.0155 -0.64211 -0.169086 0
M  V30 626 H 68.5455 -2.04318 0.107399 0
M  V30 627 H 68.5555 -3.72126 -1.67291 0
M  V30 628 H 67.2305 -4.11685 -0.590586 0
M  V30 629 H 65.8075 -3.08087 -2.10088 0
M  V30 630 N 67.9926 0.231505 -1.5589 0
M  V30 631 C 68.9396 1.28682 -1.91598 0
M  V30 632 C 69.9096 1.47071 -0.771974 0
M  V30 633 O 71.0946 1.60802 -1.027 0
M  V30 634 C 68.2346 2.6342 -2.22944 0
M  V30 635 C 67.3476 2.52912 -3.50228 0
M  V30 636 C 66.4826 3.80106 -3.7107 0
M  V30 637 C 65.5216 3.64279 -4.91902 0
M  V30 638 N 64.6586 4.834 -5.09184 0
M  V30 639 H 69.4986 0.975305 -2.81588 0
M  V30 640 H 67.0356 0.470299 -1.39379 0
M  V30 641 H 68.9936 3.41869 -2.39126 0
M  V30 642 H 67.6236 2.92687 -1.36139 0
M  V30 643 H 66.6756 1.6595 -3.42294 0
M  V30 644 H 67.9876 2.37133 -4.38827 0
M  V30 645 H 67.1416 4.66999 -3.87295 0
M  V30 646 H 65.8806 3.98799 -2.80733 0
M  V30 647 H 64.8856 2.7577 -4.75637 0
M  V30 648 H 66.1106 3.47067 -5.83714 0
M  V30 649 H 64.0566 5.02425 -4.21788 0
M  V30 650 H 63.9736 4.70311 -5.91898 0
M  V30 651 H 65.2416 5.71747 -5.29835 0
M  V30 652 N 69.4707 1.49531 0.497807 0
M  V30 653 C 70.4027 1.62559 1.61578 0
M  V30 654 C 71.4157 0.508134 1.54667 0
M  V30 655 O 72.6047 0.780309 1.60541 0
M  V30 656 C 69.7047 1.56925 3.00379 0
M  V30 657 C 68.8777 2.84257 3.3244 0
M  V30 658 C 67.9367 2.71632 4.50669 0
M  V30 659 O 66.9627 3.4557 4.52294 0
M  V30 660 N 68.1647 1.83391 5.5077 0
M  V30 661 H 70.9297 2.58981 1.50828 0
M  V30 662 H 68.4907 1.4666 0.685743 0
M  V30 663 H 70.4827 1.46129 3.77397 0
M  V30 664 H 69.0527 0.683483 3.05037 0
M  V30 665 H 68.2727 3.09381 2.44289 0
M  V30 666 H 69.5607 3.68666 3.5066 0
M  V30 667 H 68.9587 1.22583 5.52259 0
M  V30 668 H 67.5157 1.78515 6.26878 0
M  V30 669 N 70.9488 -0.749086 1.3866 0
M  V30 670 C 72.1948 -1.51056 1.35314 0
M  V30 671 C 72.5278 -1.94121 -0.0553751 0
M  V30 672 O 71.8028 -1.65763 -1.01749 0
M  V30 673 C 72.0858 -2.76003 2.31288 0
M  V30 674 C 71.9388 -2.39047 3.8102 0
M  V30 675 C 73.2578 -3.78046 2.2532 0
M  V30 676 H 70.3768 -0.547972 0.492844 0
M  V30 677 H 73.0188 -0.857628 1.69543 0
M  V30 678 H 71.1688 -3.31716 2.02229 0
M  V30 679 H 72.8408 -1.89074 4.20771 0
M  V30 680 H 71.0838 -1.71449 3.98482 0
M  V30 681 H 71.7548 -3.28462 4.4364 0
M  V30 682 H 74.2308 -3.31884 2.50983 0
M  V30 683 H 73.1068 -4.63159 2.94576 0
M  V30 684 H 73.3678 -4.23957 1.25352 0
M  V30 685 N 72.4269 -1.23603 -0.977757 0
M  V30 686 C 73.3569 -1.04401 -2.0886 0
M  V30 687 C 74.3379 0.0399052 -1.70053 0
M  V30 688 O 75.5229 -0.125246 -1.93796 0
M  V30 689 C 72.6529 -0.637269 -3.41403 0
M  V30 690 C 71.6069 -1.66883 -3.94124 0
M  V30 691 C 70.9329 -1.11745 -5.22893 0
M  V30 692 C 72.2329 -3.06247 -4.23096 0
M  V30 693 H 73.9269 -1.97316 -2.25182 0
M  V30 694 H 71.4729 -0.950096 -1.08209 0
M  V30 695 H 73.4259 -0.48998 -4.18542 0
M  V30 696 H 72.1499 0.327557 -3.24953 0
M  V30 697 H 70.8089 -1.80416 -3.19133 0
M  V30 698 H 70.4569 -0.143527 -5.02795 0
M  V30 699 H 70.1569 -1.80672 -5.59134 0
M  V30 700 H 71.6809 -0.982067 -6.02651 0
M  V30 701 H 73.0949 -2.96001 -4.90975 0
M  V30 702 H 71.4919 -3.72436 -4.70544 0
M  V30 703 H 72.5619 -3.55041 -3.30263 0
M  V30 704 N 73.905 1.17692 -1.04816 0
M  V30 705 C 75.153 1.87488 -0.754497 0
M  V30 706 C 75.474 1.81205 0.720407 0
M  V30 707 O 74.744 1.23544 1.52032 0
M  V30 708 H 73.324 0.694101 -0.276102 0
M  V30 709 H 75.986 1.42793 -1.32651 0
M  V30 710 H 75.082 2.93328 -1.06606 0
M  V30 711 N 75.3831 0.828654 1.34056 0
M  V30 712 C 76.3131 0.269443 2.3194 0
M  V30 713 C 77.2941 -0.617247 1.58506 0
M  V30 714 O 78.4791 -0.542931 1.86456 0
M  V30 715 C 75.6091 -0.564793 3.42677 0
M  V30 716 C 74.5631 0.225241 4.27407 0
M  V30 717 C 73.8891 -0.7321 5.29664 0
M  V30 718 C 75.1891 1.43663 5.02154 0
M  V30 719 H 76.8831 1.08728 2.7896 0
M  V30 720 H 74.4291 0.524283 1.34117 0
M  V30 721 H 76.3821 -0.966233 4.10173 0
M  V30 722 H 75.1061 -1.41574 2.9432 0
M  V30 723 H 73.7651 0.608117 3.61521 0
M  V30 724 H 73.4131 -1.57916 4.77568 0
M  V30 725 H 73.1131 -0.20767 5.87233 0
M  V30 726 H 74.6371 -1.13128 6.00029 0
M  V30 727 H 76.0511 1.1089 5.62473 0
M  V30 728 H 74.4481 1.89711 5.69324 0
M  V30 729 H 75.5181 2.21181 4.31517 0
M  V30 730 N 76.8612 -1.46375 0.584142 0
M  V30 731 C 78.1092 -2.01978 0.0701287 0
M  V30 732 C 78.4302 -1.4579 -1.295 0
M  V30 733 O 77.7002 -0.64314 -1.85042 0
M  V30 734 H 76.2802 -0.746648 0.0229345 0
M  V30 735 H 78.9422 -1.79461 0.760245 0
M  V30 736 H 78.0382 -3.121 0.0022064 0
M  V30 737 N 78.3393 -0.321999 -1.54275 0
M  V30 738 C 79.5853 0.281461 -2.00837 0
M  V30 739 C 79.9183 1.51909 -1.20985 0
M  V30 740 O 79.1933 1.923 -0.291733 0
M  V30 741 C 79.4763 0.617162 -3.54772 0
M  V30 742 C 79.3293 -0.631064 -4.45351 0
M  V30 743 C 80.6483 1.43542 -4.16033 0
M  V30 744 H 77.7673 0.100826 -0.730071 0
M  V30 745 H 80.4093 -0.438268 -1.84876 0
M  V30 746 H 78.5593 1.23034 -3.68504 0
M  V30 747 H 80.2313 -1.26934 -4.43492 0
M  V30 748 H 78.4743 -1.26025 -4.15091 0
M  V30 749 H 79.1453 -0.351735 -5.50878 0
M  V30 750 H 81.6213 0.917134 -4.05867 0
M  V30 751 H 80.4973 1.63907 -5.23856 0
M  V30 752 H 80.7583 2.43108 -3.69257 0
M  V30 753 N 79.8174 1.5752 -0.0501392 0
M  V30 754 C 80.7654 2.12651 0.942459 0
M  V30 755 C 81.7594 1.05807 1.32292 0
M  V30 756 O 82.9654 1.24217 1.3027 0
M  V30 757 H 79.3404 0.679673 0.321789 0
M  V30 758 H 81.3114 2.94951 0.452356 0
M  V30 759 C 80.0604 2.68565 2.20836 0
M  V30 760 H 79.3834 3.50439 1.92439 0
M  V30 761 H 80.8234 3.10761 2.8845 0
M  V30 762 C 79.2824 1.62291 2.95234 0
M  V30 763 O 79.8124 1.03508 3.88135 0
M  V30 764 N 78.0184 1.33836 2.57946 0
M  V30 765 H 77.5654 1.81826 1.82475 0
M  V30 766 H 77.5234 0.629595 3.08032 0
M  V30 767 N 81.2955 -0.223234 1.56011 0
M  V30 768 C 82.5435 -0.946003 1.78592 0
M  V30 769 C 82.8645 -1.84936 0.618349 0
M  V30 770 O 82.1345 -1.92473 -0.364833 0
M  V30 771 H 80.7145 -0.352298 0.658707 0
M  V30 772 H 83.3765 -0.235494 1.93472 0
M  V30 773 H 82.4725 -1.55381 2.70672 0
M  V30 774 N 82.7736 -1.49793 -0.48987 0
M  V30 775 C 83.7206 -1.67281 -1.59014 0
M  V30 776 C 84.6906 -0.514177 -1.57941 0
M  V30 777 O 85.8756 -0.742533 -1.75759 0
M  V30 778 C 83.0156 -1.75569 -2.97102 0
M  V30 779 C 82.1286 -3.0281 -3.08107 0
M  V30 780 C 81.2636 -3.02008 -4.36995 0
M  V30 781 C 80.3026 -4.23782 -4.41673 0
M  V30 782 N 79.4396 -4.20826 -5.62005 0
M  V30 783 H 84.2796 -2.61224 -1.43409 0
M  V30 784 H 81.8166 -1.29508 -0.697565 0
M  V30 785 H 83.7746 -1.78354 -3.77155 0
M  V30 786 H 82.4046 -0.850827 -3.11385 0
M  V30 787 H 81.4566 -3.09584 -2.21047 0
M  V30 788 H 82.7686 -3.92801 -3.07423 0
M  V30 789 H 81.9226 -3.03418 -5.25378 0
M  V30 790 H 80.6616 -2.09815 -4.4026 0
M  V30 791 H 79.6666 -4.22604 -3.5169 0
M  V30 792 H 80.8916 -5.17181 -4.40115 0
M  V30 793 H 78.8376 -3.31476 -5.66091 0
M  V30 794 H 78.7546 -5.04564 -5.62984 0
M  V30 795 H 80.0226 -4.26355 -6.52565 0
M  V30 796 N 84.2517 0.741722 -1.39055 0
M  V30 797 C 85.4977 1.50336 -1.36113 0
M  V30 798 C 85.8307 1.94148 0.0450796 0
M  V30 799 O 85.1057 1.66301 1.00868 0
M  V30 800 C 85.3887 2.74773 -2.32749 0
M  V30 801 C 85.2417 2.37023 -3.82283 0
M  V30 802 C 86.5607 3.76846 -2.27322 0
M  V30 803 H 83.6797 0.545351 -0.495743 0
M  V30 804 H 86.3217 0.848624 -1.69995 0
M  V30 805 H 84.4717 3.30639 -2.03986 0
M  V30 806 H 86.1437 1.8684 -4.21768 0
M  V30 807 H 84.3867 1.69334 -3.99385 0
M  V30 808 H 85.0577 3.26104 -4.45376 0
M  V30 809 H 87.5337 3.30548 -2.5274 0
M  V30 810 H 86.4097 4.6159 -2.97028 0
M  V30 811 H 86.6707 4.23286 -1.27599 0
M  V30 812 N 85.7298 1.2412 0.971189 0
M  V30 813 C 86.6598 1.05508 2.08304 0
M  V30 814 C 87.6408 -0.0308864 1.70072 0
M  V30 815 O 88.8258 0.135521 1.93727 0
M  V30 816 C 85.9558 0.655365 3.4106 0
M  V30 817 C 84.9098 1.68971 3.93234 0
M  V30 818 C 84.2358 1.14516 5.22293 0
M  V30 819 C 85.5358 3.08487 4.21465 0
M  V30 820 H 87.2298 1.98507 2.24132 0
M  V30 821 H 84.7758 0.955821 1.07704 0
M  V30 822 H 86.7288 0.51217 4.18276 0
M  V30 823 H 85.4528 -0.31032 3.25122 0
M  V30 824 H 84.1118 1.82106 3.18171 0
M  V30 825 H 83.7598 0.170189 5.02712 0
M  V30 826 H 83.4598 1.83635 5.58168 0
M  V30 827 H 84.9838 1.01401 6.02121 0
M  V30 828 H 86.3978 2.98601 4.89398 0
M  V30 829 H 84.7948 3.74926 4.68562 0
M  V30 830 H 85.8648 3.56787 3.28376 0
M  V30 831 N 87.2079 -1.17134 1.05439 0
M  V30 832 C 88.1179 -2.24878 0.668365 0
M  V30 833 C 89.1339 -1.71186 -0.311687 0
M  V30 834 O 90.3099 -2.00738 -0.163161 0
M  V30 835 C 87.3749 -3.46662 0.051648 0
M  V30 836 C 86.4359 -4.15429 1.08246 0
M  V30 837 C 85.6689 -5.31399 0.495082 0
M  V30 838 O 85.8919 -5.66153 -0.694743 0
M  V30 839 O 84.8259 -5.89187 1.23056 0
M  V30 840 H 88.6519 -2.60189 1.56637 0
M  V30 841 H 86.2369 -1.24482 0.826104 0
M  V30 842 H 88.1189 -4.20394 -0.290966 0
M  V30 843 H 86.7939 -3.13142 -0.819971 0
M  V30 844 H 85.7009 -3.43704 1.47711 0
M  V30 845 H 87.0339 -4.52982 1.92532 0
M  V30 846 N 88.686 -0.835752 -1.33615 0
M  V30 847 C 89.926 -0.43599 -1.99696 0
M  V30 848 C 90.29 0.98557 -1.64774 0
M  V30 849 O 91.491 1.48889 -2.23798 0
M  V30 850 C 89.762 -0.646721 -3.515 0
M  V30 851 S 91.321 -0.341715 -4.37467 0
M  V30 852 H 88.139 -0.164136 -0.691795 0
M  V30 853 H 90.741 -1.08436 -1.62671 0
M  V30 854 H 89.445 -1.68077 -3.74404 0
M  V30 855 H 88.976 0.0159173 -3.93397 0
M  V30 856 H 90.991 0.839708 -4.89043 0
M  V30 857 N 90.1641 1.46063 -0.591896 0
M  V30 858 C 91.4111 2.02338 -0.0809991 0
M  V30 859 C 91.7391 1.46228 1.28249 0
M  V30 860 O 90.9941 0.620818 1.85592 0
M  V30 861 C 91.2931 3.57391 0.0249813 0
M  V30 862 C 90.9591 4.32583 -1.27211 0
M  V30 863 C 89.6211 4.52844 -1.62745 0
M  V30 864 C 91.9731 4.75687 -2.13005 0
M  V30 865 C 89.3011 5.13462 -2.83855 0
M  V30 866 C 91.6531 5.37644 -3.3335 0
M  V30 867 C 90.3171 5.5613 -3.69155 0
M  V30 868 H 89.5871 0.740407 -0.0296397 0
M  V30 869 H 92.2341 1.75321 -0.770374 0
M  V30 870 H 90.5391 3.83597 0.797537 0
M  V30 871 H 92.2361 3.98621 0.436184 0
M  V30 872 H 88.8261 4.17116 -0.985499 0
M  V30 873 H 93.0101 4.59782 -1.86855 0
M  V30 874 H 88.2661 5.25965 -3.11722 0
M  V30 875 H 92.4401 5.7 -4.00092 0
M  V30 876 H 90.0671 6.0287 -4.63089 0
M  V30 877 N 91.6422 0.330177 1.54103 0
M  V30 878 C 92.5922 -0.548456 2.21305 0
M  V30 879 C 93.5762 -1.07651 1.19583 0
M  V30 880 O 94.7682 -1.01243 1.45186 0
M  V30 881 C 91.8972 -1.70559 2.97934 0
M  V30 882 C 90.9832 -1.19212 4.07 0
M  V30 883 N 91.3742 -0.398831 5.04225 0
M  V30 884 C 89.6722 -1.47024 4.2107 0
M  V30 885 C 90.3732 -0.121761 5.81573 0
M  V30 886 N 89.3492 -0.709722 5.38947 0
M  V30 887 H 93.1512 0.0648483 2.93828 0
M  V30 888 H 90.6652 0.136363 1.61826 0
M  V30 889 H 92.6622 -2.34688 3.44568 0
M  V30 890 H 91.3222 -2.32231 2.26934 0
M  V30 891 H 92.3332 -0.0410869 5.17884 0
M  V30 892 H 89.0102 -2.09232 3.61287 0
M  V30 893 H 90.4002 0.517298 6.69906 0
M  V30 894 N 93.1203 -1.57491 0.0584922 0
M  V30 895 C 94.5363 -1.56792 -0.298091 0
M  V30 896 C 94.7363 -1.06679 -1.70944 0
M  V30 897 O 93.7923 -0.726672 -2.41818 0
M  V30 898 C 95.1053 -3.00461 -0.119879 0
M  V30 899 C 96.6533 -3.1242 -0.190428 0
M  V30 900 C 97.1283 -4.57982 -0.0406567 0
M  V30 901 N 98.6193 -4.63099 -0.0966958 0
M  V30 902 C 99.3543 -5.734 -0.00502943 0
M  V30 903 N 98.8503 -6.9266 0.139402 0
M  V30 904 N 100.643 -5.62067 -0.0611391 0
M  V30 905 H 92.7943 -1.88386 0.98105 0
M  V30 906 H 95.0573 -0.867865 0.381463 0
M  V30 907 H 94.7633 -3.41187 0.85349 0
M  V30 908 H 94.6373 -3.66843 -0.877833 0
M  V30 909 H 97.0243 -2.71589 -1.15427 0
M  V30 910 H 97.1053 -2.48702 0.598405 0
M  V30 911 H 96.7493 -4.995 0.919897 0
M  V30 912 H 96.6793 -5.19715 -0.848727 0
M  V30 913 H 99.1703 -3.77331 -0.207277 0
M  V30 914 H 99.4833 -7.72536 0.201855 0
M  V30 915 H 97.8283 -6.94781 0.174586 0
M  V30 916 H 101.019 -4.67782 -0.172583 0
M  V30 917 H 101.192 -6.47999 0.0137562 0
M  V30 918 N 94.5984 0.214957 -1.56127 0
M  V30 919 C 96.0144 0.564948 -1.49267 0
M  V30 920 C 96.2144 1.86827 -0.754838 0
M  V30 921 O 95.2704 2.50745 -0.297198 0
M  V30 922 C 96.5834 0.638071 -2.93852 0
M  V30 923 C 98.1314 0.728253 -3.0441 0
M  V30 924 C 98.6064 0.832663 -4.50367 0
M  V30 925 N 100.097 0.896712 -4.54437 0
M  V30 926 C 100.832 0.997324 -5.6466 0
M  V30 927 N 100.328 1.06147 -6.8462 0
M  V30 928 N 102.121 1.03297 -5.52527 0
M  V30 929 H 94.2724 -0.640211 -2.02522 0
M  V30 930 H 96.5354 -0.225507 -0.920788 0
M  V30 931 H 96.2414 -0.250126 -3.50809 0
M  V30 932 H 96.1154 1.49947 -3.46115 0
M  V30 933 H 98.5024 1.60689 -2.47514 0
M  V30 934 H 98.5834 -0.158952 -2.55306 0
M  V30 935 H 98.2274 -0.0415417 -5.07883 0
M  V30 936 H 98.1574 1.73538 -4.97184 0
M  V30 937 H 100.648 0.857188 -3.6805 0
M  V30 938 H 100.961 1.1382 -7.64372 0
M  V30 939 H 99.3064 1.03049 -6.87318 0
M  V30 940 H 102.497 0.979558 -4.57736 0
M  V30 941 H 102.67 1.10793 -6.38458 0
M  V30 942 N 96.0765 1.50051 0.48192 0
M  V30 943 C 97.3045 1.64237 1.25832 0
M  V30 944 C 97.7195 0.321336 1.86045 0
M  V30 945 O 97.0765 -0.695478 1.68729 0
M  V30 946 C 97.1275 2.72548 2.37487 0
M  V30 947 O 96.8485 3.99529 1.79745 0
M  V30 948 C 98.3495 2.9761 3.28547 0
M  V30 949 H 95.5695 0.55237 0.380957 0
M  V30 950 H 98.1135 1.96207 0.576467 0
M  V30 951 H 96.2685 2.43303 3.01467 0
M  V30 952 H 96.6825 4.59342 2.5319 0
M  V30 953 H 98.1565 3.77084 4.03127 0
M  V30 954 H 98.6335 2.0826 3.86684 0
M  V30 955 H 99.2395 3.28345 2.70314 0
M  V30 956 N 97.5546 -0.734337 1.39446 0
M  V30 957 C 98.8026 -1.49096 1.36436 0
M  V30 958 C 99.1236 -1.94961 -0.0388255 0
M  V30 959 O 98.3936 -1.69033 -0.990191 0
M  V30 960 H 96.9736 -0.5531 0.502085 0
M  V30 961 H 99.6356 -0.871725 1.74319 0
M  V30 962 H 98.7316 -2.37276 2.02747 0
M  V30 963 N 99.0327 -1.24633 -0.964593 0
M  V30 964 C 99.9647 -0.999302 -2.06268 0
M  V30 965 C 100.978 0.0323226 -1.62768 0
M  V30 966 O 102.167 -0.205079 -1.77318 0
M  V30 967 C 99.2667 -0.486816 -3.35385 0
M  V30 968 C 98.4397 -1.5823 -4.07777 0
M  V30 969 C 97.4987 -1.07191 -5.15166 0
M  V30 970 O 96.5247 -1.76426 -5.41168 0
M  V30 971 N 97.7267 0.0920373 -5.80427 0
M  V30 972 H 100.492 -1.94477 -2.28033 0
M  V30 973 H 98.0527 -1.15704 -1.13244 0
M  V30 974 H 100.045 -0.130066 -4.04491 0
M  V30 975 H 98.6147 0.364459 -3.10468 0
M  V30 976 H 97.8347 -2.11109 -3.32906 0
M  V30 977 H 99.1227 -2.31854 -4.52903 0
M  V30 978 H 98.5207 0.670784 -5.61709 0
M  V30 979 H 97.0777 0.389905 -6.50633 0
M  V30 980 N 100.511 1.16574 -1.06058 0
M  V30 981 C 101.458 2.20883 -0.669263 0
M  V30 982 C 102.428 1.62729 0.332918 0
M  V30 983 O 103.613 1.895 0.222346 0
M  V30 984 C 100.753 3.45049 -0.0593572 0
M  V30 985 C 99.8658 4.17458 -1.11143 0
M  V30 986 C 99.0008 5.29135 -0.467916 0
M  V30 987 C 98.0398 5.93343 -1.50369 0
M  V30 988 N 97.1768 6.96516 -0.883706 0
M  V30 989 H 102.017 2.53709 -1.5632 0
M  V30 990 H 99.5538 1.24616 -0.781625 0
M  V30 991 H 101.512 4.16033 0.311771 0
M  V30 992 H 100.142 3.12781 0.797992 0
M  V30 993 H 99.1938 3.45101 -1.60029 0
M  V30 994 H 100.506 4.61307 -1.89731 0
M  V30 995 H 99.6598 6.06684 -0.0436871 0
M  V30 996 H 98.3988 4.86443 0.349864 0
M  V30 997 H 97.4038 5.14517 -1.93784 0
M  V30 998 H 98.6288 6.38114 -2.32352 0
M  V30 999 H 96.5748 6.55943 -0.086595 0
M  V30 1000 H 96.4918 7.38723 -1.607 0
M  V30 1001 H 97.7598 7.77993 -0.484543 0
M  V30 1002 N 101.989 0.842826 1.3317 0
M  V30 1003 C 103.229 0.446574 1.99462 0
M  V30 1004 C 103.593 -0.976818 1.65295 0
M  V30 1005 O 104.794 -1.477 2.24584 0
M  V30 1006 C 103.065 0.665353 3.51152 0
M  V30 1007 S 104.624 0.364911 4.3728 0
M  V30 1008 H 101.442 0.167803 0.690915 0
M  V30 1009 H 104.044 1.09297 1.62094 0
M  V30 1010 H 102.748 1.7006 3.73507 0
M  V30 1011 H 102.279 0.00494568 3.934 0
M  V30 1012 H 104.294 -0.813761 4.89482 0
M  V30 1013 N 103.467 -1.45747 0.599634 0
M  V30 1014 C 104.43 -2.28917 -0.113835 0
M  V30 1015 C 105.43 -1.3933 -0.802729 0
M  V30 1016 O 106.62 -1.61534 -0.652103 0
M  V30 1017 C 103.752 -3.20152 -1.17114 0
M  V30 1018 H 104.945 -2.93478 0.617289 0
M  V30 1019 H 102.498 -1.52137 0.358327 0
M  V30 1020 H 103.233 -2.60374 -1.93329 0
M  V30 1021 H 103.018 -3.86133 -0.681468 0
M  V30 1022 H 104.508 -3.82708 -1.67105 0
M  V30 1023 N 104.945 -0.338344 -1.53925 0
M  V30 1024 C 105.875 0.51328 -2.27789 0
M  V30 1025 C 106.856 1.107 -1.29149 0
M  V30 1026 O 108.041 1.12937 -1.57984 0
M  V30 1027 C 105.171 1.66697 -3.04679 0
M  V30 1028 C 104.125 1.20183 -4.1078 0
M  V30 1029 C 103.451 2.44363 -4.75595 0
M  V30 1030 C 104.751 0.30605 -5.21403 0
M  V30 1031 H 106.445 -0.102883 -2.99223 0
M  V30 1032 H 103.991 -0.0509219 -1.4391 0
M  V30 1033 H 105.944 2.26915 -3.55088 0
M  V30 1034 H 104.668 2.30995 -2.30887 0
M  V30 1035 H 103.327 0.622499 -3.61276 0
M  V30 1036 H 102.975 3.07057 -3.98403 0
M  V30 1037 H 102.675 2.13925 -5.47275 0
M  V30 1038 H 104.199 3.05317 -5.28786 0
M  V30 1039 H 105.613 0.814929 -5.67478 0
M  V30 1040 H 104.01 0.0937929 -6.00027 0
M  V30 1041 H 105.08 -0.65921 -4.80398 0
M  V30 1042 N 106.423 1.57458 -0.0668435 0
M  V30 1043 C 107.37 2.12439 0.902122 0
M  V30 1044 C 108.34 1.03565 1.2986 0
M  V30 1045 O 109.525 1.312 1.38532 0
M  V30 1046 C 106.665 2.6865 2.16614 0
M  V30 1047 C 105.778 3.91663 1.82274 0
M  V30 1048 C 104.913 4.36134 3.0325 0
M  V30 1049 C 103.952 5.51808 2.64904 0
M  V30 1050 N 103.089 5.9126 3.78624 0
M  V30 1051 H 107.929 2.94934 0.426382 0
M  V30 1052 H 105.466 1.4575 0.198819 0
M  V30 1053 H 107.424 2.99346 2.90599 0
M  V30 1054 H 106.054 1.88928 2.61737 0
M  V30 1055 H 105.106 3.6746 0.983719 0
M  V30 1056 H 106.418 4.75693 1.50059 0
M  V30 1057 H 105.572 4.68465 3.85519 0
M  V30 1058 H 104.311 3.50948 3.38655 0
M  V30 1059 H 103.316 5.19133 1.81055 0
M  V30 1060 H 104.541 6.38722 2.30675 0
M  V30 1061 H 102.487 5.09024 4.138 0
M  V30 1062 H 102.404 6.70018 3.5016 0
M  V30 1063 H 103.672 6.28212 4.61486 0
M  V30 1064 N 107.901 -0.206675 1.56239 0
M  V30 1065 C 108.831 -1.25909 1.96645 0
M  V30 1066 C 109.812 -1.48097 0.836734 0
M  V30 1067 O 110.997 -1.6003 1.10019 0
M  V30 1068 C 108.127 -2.6058 2.29599 0
M  V30 1069 C 107.081 -2.53024 3.452 0
M  V30 1070 C 106.407 -3.91861 3.63798 0
M  V30 1071 C 107.707 -2.06524 4.79734 0
M  V30 1072 H 109.401 -0.923369 2.84806 0
M  V30 1073 H 106.947 -0.442735 1.37025 0
M  V30 1074 H 108.9 -3.34375 2.56459 0
M  V30 1075 H 107.624 -2.95869 1.38307 0
M  V30 1076 H 106.283 -1.81684 3.18412 0
M  V30 1077 H 105.931 -4.24483 2.69857 0
M  V30 1078 H 105.631 -3.87683 4.4156 0
M  V30 1079 H 107.155 -4.67296 3.93022 0
M  V30 1080 H 108.569 -2.70072 5.05702 0
M  V30 1081 H 106.966 -2.13374 5.60885 0
M  V30 1082 H 108.036 -1.01802 4.74093 0
M  V30 1083 N 109.379 -1.50304 -0.473955 0
M  V30 1084 C 110.309 -1.71886 -1.58042 0
M  V30 1085 C 111.29 -0.567799 -1.60344 0
M  V30 1086 O 112.475 -0.806623 -1.76656 0
M  V30 1087 C 109.605 -1.81036 -2.96384 0
M  V30 1088 C 108.559 -2.962 -3.08949 0
M  V30 1089 C 107.885 -2.9049 -4.48909 0
M  V30 1090 C 109.185 -4.36752 -2.86434 0
M  V30 1091 H 110.879 -2.64527 -1.40234 0
M  V30 1092 H 108.425 -1.27295 -0.673201 0
M  V30 1093 H 110.378 -1.94719 -3.73714 0
M  V30 1094 H 109.102 -0.850147 -3.15341 0
M  V30 1095 H 107.761 -2.82164 -2.3405 0
M  V30 1096 H 107.409 -1.92321 -4.64781 0
M  V30 1097 H 107.109 -3.67802 -4.58253 0
M  V30 1098 H 108.633 -3.06218 -5.28264 0
M  V30 1099 H 110.047 -4.5133 -3.53517 0
M  V30 1100 H 108.444 -5.15493 -3.07225 0
M  V30 1101 H 109.514 -4.49321 -1.82316 0
M  V30 1102 N 110.857 0.726932 -1.39834 0
M  V30 1103 C 112.087 1.51393 -1.40583 0
M  V30 1104 C 112.495 1.892 -0.000740625 0
M  V30 1105 O 111.838 1.55189 0.982951 0
M  V30 1106 C 111.9 2.82588 -2.22226 0
M  V30 1107 C 111.564 2.67169 -3.70769 0
M  V30 1108 C 112.561 2.3518 -4.63666 0
M  V30 1109 C 110.246 2.83788 -4.14451 0
M  V30 1110 C 112.24 2.20002 -5.98229 0
M  V30 1111 C 109.927 2.68229 -5.49087 0
M  V30 1112 C 110.925 2.36382 -6.4079 0
M  V30 1113 O 110.613 2.2093 -7.72946 0
M  V30 1114 H 110.345 0.474168 -0.48181 0
M  V30 1115 H 112.899 0.905247 -1.84376 0
M  V30 1116 H 111.129 3.45746 -1.73195 0
M  V30 1117 H 112.818 3.44247 -2.15055 0
M  V30 1118 H 113.584 2.21984 -4.31217 0
M  V30 1119 H 109.463 3.07566 -3.43401 0
M  V30 1120 H 113.007 1.95067 -6.69772 0
M  V30 1121 H 108.904 2.81006 -5.81125 0
M  V30 1122 H 109.672 2.35937 -7.83757 0
M  V30 1123 N 112.336 1.25143 0.95797 0
M  V30 1124 C 113.613 1.00472 1.67823 0
M  V30 1125 C 113.993 -0.470056 2.058 0
M  V30 1126 O 113.341 -1.44663 1.76875 0
M  V30 1127 C 113.551 1.9372 2.90299 0
M  V30 1128 C 114.899 2.21371 3.62326 0
M  V30 1129 O 115.923 1.91451 3.00375 0
M  V30 1130 O 114.782 2.72231 4.7387 0
M  V30 1131 H 111.876 0.380752 0.734137 0
M  V30 1132 H 114.422 1.36283 1.01119 0
M  V30 1133 H 113.194 2.93316 2.59001 0
M  V30 1134 H 112.817 1.58286 3.64735 0
M  V30 1135 N 113.814 -1.1601 1.06675 0
M  V30 1136 C 115.039 -1.91068 0.806706 0
M  V30 1137 C 115.464 -1.77112 -0.633485 0
M  V30 1138 O 114.822 -1.09908 -1.44187 0
M  V30 1139 C 114.87 -3.39655 1.21106 0
M  V30 1140 O 113.974 -4.10893 0.352189 0
M  V30 1141 H 113.315 -0.595125 0.294486 0
M  V30 1142 H 115.845 -1.46955 1.42356 0
M  V30 1143 H 115.855 -3.90434 1.18428 0
M  V30 1144 H 114.53 -3.49132 2.26008 0
M  V30 1145 H 113.107 -3.70285 0.440868 0
M  V30 1146 N 115.292 -0.849877 -1.32721 0
M  V30 1147 C 116.703 -0.506188 -1.79707 0
M  V30 1148 C 117.054 0.975627 -1.70223 0
M  V30 1149 O 116.179 1.76078 -1.25799 0
M  V30 1150 C 116.774 -0.912044 -3.26293 0
M  V30 1151 C 115.333 -0.620326 -3.71253 0
M  V30 1152 C 114.48 -1.11439 -2.53922 0
M  V30 1153 H 117.431 -1.03754 -1.20087 0
M  V30 1154 H 117.452 -0.226493 -3.79825 0
M  V30 1155 H 116.964 -1.99057 -3.33164 0
M  V30 1156 H 115.065 0.447674 -3.69901 0
M  V30 1157 H 115.178 -1.18327 -4.64258 0
M  V30 1158 H 113.542 -0.534834 -2.49021 0
M  V30 1159 H 114.325 -2.19992 -2.6355 0
M  V30 1160 N 116.77 1.45427 -0.607355 0
M  V30 1161 C 117.717 2.3053 0.111625 0
M  V30 1162 C 118.687 1.4209 0.860216 0
M  V30 1163 O 119.872 1.71019 0.845998 0
M  V30 1164 C 117.012 3.26992 1.10319 0
M  V30 1165 C 116.125 4.30535 0.355493 0
M  V30 1166 C 115.26 5.14105 1.33676 0
M  V30 1167 C 114.299 6.09376 0.576862 0
M  V30 1168 N 113.436 6.85727 1.5074 0
M  V30 1169 H 118.276 2.91477 -0.620093 0
M  V30 1170 H 115.813 1.43631 -0.317594 0
M  V30 1171 H 117.771 3.81385 1.6912 0
M  V30 1172 H 116.401 2.67799 1.80232 0
M  V30 1173 H 115.453 3.78805 -0.348023 0
M  V30 1174 H 116.765 4.98235 -0.237423 0
M  V30 1175 H 115.919 5.72897 1.99684 0
M  V30 1176 H 114.658 4.46423 1.9636 0
M  V30 1177 H 113.663 5.49715 -0.0968519 0
M  V30 1178 H 114.888 6.79085 -0.0449341 0
M  V30 1179 H 112.834 6.20735 2.12189 0
M  V30 1180 H 112.751 7.49778 0.967913 0
M  V30 1181 H 114.019 7.4906 2.15706 0
M  V30 1182 N 118.248 0.346503 1.53744 0
M  V30 1183 C 119.211 -0.496439 2.23759 0
M  V30 1184 C 120.211 -1.0252 1.2388 0
M  V30 1185 O 121.401 -0.913974 1.48297 0
M  V30 1186 C 118.533 -1.69187 2.95954 0
M  V30 1187 H 119.726 0.115952 2.99676 0
M  V30 1188 H 117.279 0.0978939 1.55993 0
M  V30 1189 H 118.014 -2.34288 2.24231 0
M  V30 1190 H 117.799 -1.31989 3.69217 0
M  V30 1191 H 119.289 -2.28969 3.49232 0
M  V30 1192 N 119.726 -1.57421 0.075193 0
M  V30 1193 C 121.142 -1.57099 -0.281444 0
M  V30 1194 C 121.342 -1.08486 -1.69803 0
M  V30 1195 O 120.398 -0.752279 -2.41033 0
M  V30 1196 C 121.711 -3.00571 -0.0880041 0
M  V30 1197 C 123.259 -3.12605 -0.157281 0
M  V30 1198 C 123.734 -4.57999 0.0079207 0
M  V30 1199 N 125.225 -4.63176 -0.0475725 0
M  V30 1200 C 125.96 -5.73373 0.0557876 0
M  V30 1201 N 125.456 -6.92473 0.21286 0
M  V30 1202 N 127.249 -5.621 -0.00152098 0
M  V30 1203 H 119.4 -1.87335 1.00098 0
M  V30 1204 H 121.663 -0.86377 0.390646 0
M  V30 1205 H 121.369 -3.40262 0.889629 0
M  V30 1206 H 121.243 -3.67754 -0.838875 0
M  V30 1207 H 123.63 -2.72798 -1.1254 0
M  V30 1208 H 123.711 -2.48053 0.62475 0
M  V30 1209 H 123.355 -4.98496 0.972824 0
M  V30 1210 H 123.285 -5.20586 -0.793556 0
M  V30 1211 H 125.776 -3.7753 -0.167244 0
M  V30 1212 H 126.089 -7.72279 0.283781 0
M  V30 1213 H 124.434 -6.94556 0.248267 0
M  V30 1214 H 127.625 -4.67938 -0.122958 0
M  V30 1215 H 127.798 -6.47948 0.0824844 0
M  V30 1216 N 121.204 0.198386 -1.56346 0
M  V30 1217 C 122.136 1.26987 -1.90806 0
M  V30 1218 C 123.149 1.41877 -0.798419 0
M  V30 1219 O 124.338 1.42362 -1.07682 0
M  V30 1220 C 121.438 2.64246 -2.12196 0
M  V30 1221 C 120.611 2.71007 -3.43328 0
M  V30 1222 C 119.67 3.89439 -3.5387 0
M  V30 1223 O 118.696 3.76695 -4.26719 0
M  V30 1224 N 119.898 5.04752 -2.86715 0
M  V30 1225 H 122.663 0.977433 -2.83313 0
M  V30 1226 H 120.224 0.388322 -1.57174 0
M  V30 1227 H 122.216 3.41896 -2.1654 0
M  V30 1228 H 120.786 2.85992 -1.26204 0
M  V30 1229 H 120.006 1.79657 -3.50881 0
M  V30 1230 H 121.294 2.72512 -4.29668 0
M  V30 1231 H 120.692 5.18004 -2.2735 0
M  V30 1232 H 119.249 5.8036 -2.96691 0
M  V30 1233 N 122.682 1.50554 0.465978 0
M  V30 1234 C 123.592 1.72585 1.58907 0
M  V30 1235 C 124.608 0.60911 1.6299 0
M  V30 1236 O 125.784 0.88804 1.80765 0
M  V30 1237 C 122.849 1.81995 2.95091 0
M  V30 1238 C 121.91 3.05751 3.01355 0
M  V30 1239 C 121.143 3.14702 4.31043 0
M  V30 1240 O 121.366 2.30313 5.21835 0
M  V30 1241 O 120.3 4.07468 4.43005 0
M  V30 1242 H 124.126 2.67799 1.43239 0
M  V30 1243 H 121.711 1.34711 0.646013 0
M  V30 1244 H 123.593 1.90335 3.75966 0
M  V30 1245 H 122.268 0.899659 3.10947 0
M  V30 1246 H 121.175 3.02908 2.19539 0
M  V30 1247 H 122.508 3.97375 2.90437 0
M  V30 1248 N 124.16 -0.719506 1.40217 0
M  V30 1249 C 125.406 -1.48152 1.38488 0
M  V30 1250 C 125.739 -1.94195 -0.0141867 0
M  V30 1251 O 125.014 -1.67884 -0.982096 0
M  V30 1252 C 125.297 -2.71035 2.37091 0
M  V30 1253 C 125.15 -2.30912 3.86005 0
M  V30 1254 C 126.469 -3.73182 2.33288 0
M  V30 1255 H 123.588 -0.537395 0.504357 0
M  V30 1256 H 126.23 -0.821472 1.71324 0
M  V30 1257 H 124.38 -3.27352 2.0922 0
M  V30 1258 H 126.052 -1.80107 4.24687 0
M  V30 1259 H 124.295 -1.62958 4.02029 0
M  V30 1260 H 124.966 -3.18978 4.50508 0
M  V30 1261 H 127.442 -3.26485 2.57966 0
M  V30 1262 H 126.318 -4.56806 3.04334 0
M  V30 1263 H 126.579 -4.21202 1.34317 0
M  V30 1264 N 125.638 -1.25649 -0.95132 0
M  V30 1265 C 126.915 -1.01361 -1.67288 0
M  V30 1266 C 127.295 0.459135 -2.06046 0
M  V30 1267 O 126.643 1.43723 -1.7764 0
M  V30 1268 C 126.853 -1.95256 -2.89268 0
M  V30 1269 C 128.201 -2.23289 -3.61147 0
M  V30 1270 O 129.225 -1.93041 -2.99355 0
M  V30 1271 O 128.084 -2.74741 -4.72419 0
M  V30 1272 H 125.178 -0.38464 -0.732107 0
M  V30 1273 H 127.724 -1.36817 -1.00395 0
M  V30 1274 H 126.496 -2.94685 -2.57442 0
M  V30 1275 H 126.119 -1.60218 -3.6389 0
M  V30 1276 N 127.117 1.15442 -1.07289 0
M  V30 1277 C 128.067 2.18164 -0.662467 0
M  V30 1278 C 129.051 1.57845 0.312074 0
M  V30 1279 O 130.243 1.76552 0.125905 0
M  V30 1280 C 127.372 3.43246 -0.0611295 0
M  V30 1281 C 126.458 4.1062 -1.06077 0
M  V30 1282 N 126.849 4.53491 -2.24008 0
M  V30 1283 C 125.147 4.36949 -0.893964 0
M  V30 1284 C 125.848 5.05731 -2.87422 0
M  V30 1285 N 124.824 4.99236 -2.15091 0
M  V30 1286 H 128.626 2.49038 -1.56068 0
M  V30 1287 H 126.14 1.32003 -0.945988 0
M  V30 1288 H 128.137 4.16145 0.250792 0
M  V30 1289 H 126.797 3.13854 0.832207 0
M  V30 1290 H 127.808 4.46898 -2.6173 0
M  V30 1291 H 124.485 4.17466 -0.0534693 0
M  V30 1292 H 125.875 5.48865 -3.87553 0
M  V30 1293 N 128.595 0.856903 1.32268 0
M  V30 1294 C 129.545 0.274899 2.26337 0
M  V30 1295 C 130.529 -0.580543 1.50062 0
M  V30 1296 O 131.721 -0.429559 1.71708 0
M  V30 1297 C 128.85 -0.533841 3.39124 0
M  V30 1298 C 127.936 0.334114 4.22782 0
M  V30 1299 N 128.327 1.42143 4.85416 0
M  V30 1300 C 126.625 0.124256 4.45827 0
M  V30 1301 C 127.326 1.95559 5.47843 0
M  V30 1302 N 126.302 1.25444 5.28928 0
M  V30 1303 H 130.104 1.10612 2.72291 0
M  V30 1304 H 127.618 0.703258 1.46383 0
M  V30 1305 H 129.615 -0.96722 4.05525 0
M  V30 1306 H 128.275 -1.36283 2.94715 0
M  V30 1307 H 129.286 1.80436 4.85451 0
M  V30 1308 H 125.963 -0.669837 4.12092 0
M  V30 1309 H 127.353 2.86714 6.07655 0
M  V30 1310 N 130.073 -1.45103 0.615059 0
M  V30 1311 C 131.319 -2.03035 0.121804 0
M  V30 1312 C 131.674 -1.47393 -1.23665 0
M  V30 1313 O 130.967 -0.642061 -1.80522 0
M  V30 1314 C 131.161 -3.57386 0.0318797 0
M  V30 1315 C 130.99 -4.28 1.38007 0
M  V30 1316 C 129.76 -4.65624 1.9627 0
M  V30 1317 C 131.958 -4.5948 2.31047 0
M  V30 1318 N 129.94 -5.21132 3.24492 0
M  V30 1319 C 131.311 -5.159 3.43872 0
M  V30 1320 C 133.366 -4.41423 2.30326 0
M  V30 1321 C 132.069 -5.56165 4.5615 0
M  V30 1322 C 134.095 -4.82726 3.41658 0
M  V30 1323 C 133.457 -5.39245 4.53205 0
M  V30 1324 H 129.556 -0.77702 0.0881159 0
M  V30 1325 H 132.14 -1.76819 0.815044 0
M  V30 1326 H 130.311 -3.83247 -0.630599 0
M  V30 1327 H 132.043 -4.01976 -0.468721 0
M  V30 1328 H 128.798 -4.49421 1.49392 0
M  V30 1329 H 129.222 -5.53377 3.90004 0
M  V30 1330 H 133.864 -3.97033 1.45343 0
M  V30 1331 H 131.582 -5.99517 5.41854 0
M  V30 1332 H 135.168 -4.7048 3.42257 0
M  V30 1333 H 134.048 -5.70616 5.37929 0
M  V30 1334 N 131.551 -0.354651 -1.53558 0
M  V30 1335 C 132.483 0.5315 -2.22952 0
M  V30 1336 C 133.496 1.05503 -1.23988 0
M  V30 1337 O 134.685 0.963279 -1.50277 0
M  V30 1338 C 131.785 1.74538 -2.90499 0
M  V30 1339 C 130.958 1.35524 -4.15875 0
M  V30 1340 C 130.017 2.42999 -4.66731 0
M  V30 1341 O 129.043 2.05844 -5.30676 0
M  V30 1342 N 130.245 3.74423 -4.43608 0
M  V30 1343 H 133.01 -0.0628615 -2.99634 0
M  V30 1344 H 130.571 -0.179302 -1.60904 0
M  V30 1345 H 132.563 2.45892 -3.21433 0
M  V30 1346 H 131.133 2.24686 -2.17336 0
M  V30 1347 H 130.353 0.471998 -3.91364 0
M  V30 1348 H 131.641 1.07071 -4.97406 0
M  V30 1349 H 131.039 4.07391 -3.92491 0
M  V30 1350 H 129.596 4.41913 -4.7912 0
M  V30 1351 N 133.029 1.57378 -0.0835403 0
M  V30 1352 C 133.992 2.12252 0.864959 0
M  V30 1353 C 134.992 1.04916 1.21858 0
M  V30 1354 O 136.182 1.30853 1.14991 0
M  V30 1355 C 133.314 2.63358 2.16461 0
M  V30 1356 H 134.507 2.97371 0.388676 0
M  V30 1357 H 132.06 1.55423 0.165317 0
M  V30 1358 H 132.795 1.81727 2.686 0
M  V30 1359 H 132.58 3.41826 1.92087 0
M  V30 1360 H 134.07 3.05847 2.84337 0
M  V30 1361 N 134.507 -0.190092 1.56449 0
M  V30 1362 C 135.732 -0.929864 1.85387 0
M  V30 1363 C 136.157 -1.7585 0.667704 0
M  V30 1364 O 135.515 -1.77198 -0.383459 0
M  V30 1365 C 135.563 -1.79773 3.12593 0
M  V30 1366 O 134.667 -2.89713 2.93496 0
M  V30 1367 H 134.008 -0.261574 0.610307 0
M  V30 1368 H 136.538 -0.193896 2.03679 0
M  V30 1369 H 136.548 -2.20139 3.43515 0
M  V30 1370 H 135.223 -1.18892 3.98544 0
M  V30 1371 H 133.8 -2.53065 2.73884 0
M  V30 1372 N 135.985 -1.50799 -0.457987 0
M  V30 1373 C 137.233 -1.62121 -1.2067 0
M  V30 1374 C 137.554 -0.329793 -1.92191 0
M  V30 1375 O 136.824 0.653409 -1.84682 0
M  V30 1376 H 135.404 -0.597441 -0.448411 0
M  V30 1377 H 138.066 -1.87637 -0.527096 0
M  V30 1378 H 137.162 -2.43882 -1.94751 0
M  V30 1379 N 137.463 0.71206 -1.40597 0
M  V30 1380 C 138.711 1.46907 -1.38791 0
M  V30 1381 C 139.032 1.94998 0.00780391 0
M  V30 1382 O 138.302 1.70587 0.963174 0
M  V30 1383 H 136.882 0.545043 -0.51082 0
M  V30 1384 H 139.544 0.843882 -1.75683 0
M  V30 1385 H 138.64 2.34021 -2.06496 0
M  V30 1386 N 138.941 1.26152 0.944643 0
M  V30 1387 C 140.352 1.10454 1.50522 0
M  V30 1388 C 140.703 -0.31635 1.93633 0
M  V30 1389 O 139.828 -1.20746 1.79581 0
M  V30 1390 C 140.423 1.99891 2.73549 0
M  V30 1391 C 138.982 1.88348 3.25886 0
M  V30 1392 C 138.129 1.93447 1.9868 0
M  V30 1393 H 141.08 1.39292 0.760489 0
M  V30 1394 H 141.101 1.54477 3.47732 0
M  V30 1395 H 140.613 3.03297 2.42141 0
M  V30 1396 H 138.714 0.878636 3.62092 0
M  V30 1397 H 138.827 2.73696 3.93227 0
M  V30 1398 H 137.191 1.37456 2.14425 0
M  V30 1399 H 137.974 2.98476 1.69607 0
M  V30 1400 N 140.419 -1.14872 1.07899 0
M  V30 1401 C 141.369 -2.17809 0.674027 0
M  V30 1402 C 142.353 -1.58008 -0.303699 0
M  V30 1403 O 143.545 -1.76616 -0.11654 0
M  V30 1404 C 140.674 -3.43208 0.0793318 0
M  V30 1405 C 139.76 -4.10051 1.08253 0
M  V30 1406 N 140.151 -4.52296 2.2641 0
M  V30 1407 C 138.449 -4.36469 0.917124 0
M  V30 1408 C 139.15 -5.04199 2.901 0
M  V30 1409 N 138.126 -4.98088 2.17736 0
M  V30 1410 H 141.928 -2.48207 1.57386 0
M  V30 1411 H 139.442 -1.315 0.952976 0
M  V30 1412 H 141.439 -4.16272 -0.228719 0
M  V30 1413 H 140.099 -3.14291 -0.815551 0
M  V30 1414 H 141.11 -4.45504 2.64096 0
M  V30 1415 H 137.787 -4.17432 0.0756078 0
M  V30 1416 H 139.177 -5.46802 3.90458 0
M  V30 1417 N 141.898 -0.863906 -1.31812 0
M  V30 1418 C 143.147 -0.46801 -1.96195 0
M  V30 1419 C 143.46 0.983474 -1.69077 0
M  V30 1420 O 144.666 1.48523 -2.27273 0
M  V30 1421 C 143.122 -0.785995 -3.51212 0
M  V30 1422 C 142.73 -2.25383 -3.87178 0
M  V30 1423 C 144.474 -0.458274 -4.22019 0
M  V30 1424 C 142.381 -2.51455 -5.3528 0
M  V30 1425 H 141.311 -0.171283 -0.734287 0
M  V30 1426 H 143.962 -1.05597 -1.50072 0
M  V30 1427 H 142.344 -0.127359 -3.95795 0
M  V30 1428 H 143.518 -2.95502 -3.53575 0
M  V30 1429 H 141.833 -2.54698 -3.2942 0
M  V30 1430 H 144.43 -0.630369 -5.30971 0
M  V30 1431 H 144.773 0.600834 -4.11941 0
M  V30 1432 H 145.306 -1.07319 -3.8305 0
M  V30 1433 H 142.045 -3.56025 -5.50387 0
M  V30 1434 H 141.565 -1.85923 -5.70257 0
M  V30 1435 H 143.244 -2.35874 -6.02472 0
M  V30 1436 N 143.376 1.44774 -0.622745 0
M  V30 1437 C 144.622 2.0242 -0.124083 0
M  V30 1438 C 144.955 1.4881 1.24777 0
M  V30 1439 O 144.23 0.668799 1.8264 0
M  V30 1440 C 144.513 3.59957 -0.101619 0
M  V30 1441 C 144.366 4.23867 -1.50521 0
M  V30 1442 C 145.685 4.36284 0.578272 0
M  V30 1443 H 142.804 0.735528 -0.0465645 0
M  V30 1444 H 145.446 1.72447 -0.797617 0
M  V30 1445 H 143.596 3.85623 0.471934 0
M  V30 1446 H 145.268 4.09336 -2.12701 0
M  V30 1447 H 143.511 3.81684 -2.06154 0
M  V30 1448 H 144.182 5.32843 -1.4416 0
M  V30 1449 H 146.658 4.16001 0.0906057 0
M  V30 1450 H 145.534 5.46004 0.563149 0
M  V30 1451 H 145.795 4.10271 1.64713 0
M  V30 1452 N 144.854 0.36279 1.53368 0
M  V30 1453 C 146.094 -0.227882 2.03126 0
M  V30 1454 C 146.458 -1.4622 1.24434 0
M  V30 1455 O 147.659 -2.12831 1.64184 0
M  V30 1456 C 145.93 -0.515427 3.53664 0
M  V30 1457 S 147.489 -1.08017 4.25297 0
M  V30 1458 H 144.307 -0.0665377 0.70788 0
M  V30 1459 H 146.909 0.50501 1.88865 0
M  V30 1460 H 145.613 0.390436 4.08539 0
M  V30 1461 H 145.144 -1.27747 3.72081 0
M  V30 1462 H 147.159 -2.36462 4.36234 0
M  V30 1463 N 146.332 -1.57332 0.0918853 0
M  V30 1464 C 147.581 -1.93412 -0.572249 0
M  V30 1465 C 147.894 -0.975515 -1.69538 0
M  V30 1466 O 149.1 -1.22991 -2.42045 0
M  V30 1467 C 147.556 -3.43648 -1.0693 0
M  V30 1468 C 147.164 -4.47994 0.0239049 0
M  V30 1469 C 148.908 -3.88695 -1.70635 0
M  V30 1470 C 146.815 -5.89381 -0.488319 0
M  V30 1471 H 145.745 -0.721939 -0.217532 0
M  V30 1472 H 148.396 -1.82735 0.167369 0
M  V30 1473 H 146.778 -3.49466 -1.8625 0
M  V30 1474 H 147.952 -4.53815 0.799277 0
M  V30 1475 H 146.267 -4.12536 0.565946 0
M  V30 1476 H 148.864 -4.91725 -2.10025 0
M  V30 1477 H 149.207 -3.27166 -2.57426 0
M  V30 1478 H 149.74 -3.85564 -0.979023 0
M  V30 1479 H 146.479 -6.54602 0.342906 0
M  V30 1480 H 145.999 -5.87037 -1.23077 0
M  V30 1481 H 147.678 -6.39863 -0.958317 0
M  V30 1482 N 147.81 0.181792 -1.56548 0
M  V30 1483 C 148.74 1.22765 -1.98623 0
M  V30 1484 C 149.721 1.46747 -0.860189 0
M  V30 1485 O 150.906 1.58259 -1.12551 0
M  V30 1486 C 148.036 2.56894 -2.33715 0
M  V30 1487 C 146.99 2.475 -3.49182 0
M  V30 1488 C 146.316 3.86023 -3.69986 0
M  V30 1489 C 147.616 1.98866 -4.82959 0
M  V30 1490 H 149.31 0.877942 -2.86239 0
M  V30 1491 H 146.856 0.42088 -1.37712 0
M  V30 1492 H 148.809 3.30253 -2.61746 0
M  V30 1493 H 147.533 2.93632 -1.42997 0
M  V30 1494 H 146.192 1.76596 -3.21262 0
M  V30 1495 H 145.84 4.20136 -2.76576 0
M  V30 1496 H 145.54 3.80609 -4.47672 0
M  V30 1497 H 147.064 4.60984 -4.00407 0
M  V30 1498 H 148.478 2.61992 -5.09934 0
M  V30 1499 H 146.875 2.04424 -5.64208 0
M  V30 1500 H 147.945 0.942465 -4.75653 0
M  V30 1501 N 149.288 1.51039 0.449983 0
M  V30 1502 C 150.565 1.53612 1.21089 0
M  V30 1503 C 150.945 0.292997 2.09057 0
M  V30 1504 O 150.293 -0.72259 2.16774 0
M  V30 1505 C 150.503 2.84337 2.0237 0
M  V30 1506 C 151.851 3.35807 2.59843 0
M  V30 1507 O 152.875 2.85802 2.12593 0
M  V30 1508 O 151.734 4.23029 3.45989 0
M  V30 1509 H 148.828 0.617057 0.550608 0
M  V30 1510 H 151.374 1.63344 0.460082 0
M  V30 1511 H 150.146 3.66278 1.37681 0
M  V30 1512 H 149.769 2.77708 2.84542 0
M  V30 1513 N 150.766 -0.704594 1.40972 0
M  V30 1514 C 152.012 -1.46675 1.40051 0
M  V30 1515 C 152.345 -1.94199 0.00641102 0
M  V30 1516 O 151.62 -1.68916 -0.964235 0
M  V30 1517 C 151.903 -2.68505 2.39952 0
M  V30 1518 C 151.756 -2.26805 3.88432 0
M  V30 1519 C 153.075 -3.70686 2.37233 0
M  V30 1520 H 150.194 -0.532015 0.510028 0
M  V30 1521 H 152.836 -0.803255 1.72185 0
M  V30 1522 H 150.986 -3.25114 2.1268 0
M  V30 1523 H 152.658 -1.75592 4.26574 0
M  V30 1524 H 150.901 -1.58685 4.03734 0
M  V30 1525 H 151.572 -3.14181 4.53866 0
M  V30 1526 H 154.048 -3.23731 2.61415 0
M  V30 1527 H 152.924 -4.53553 3.09162 0
M  V30 1528 H 153.185 -4.19754 1.38777 0
M  V30 1529 N 152.244 -1.26651 -0.937939 0
M  V30 1530 C 153.474 -1.15006 -1.71631 0
M  V30 1531 C 153.882 0.297026 -1.86854 0
M  V30 1532 O 153.225 1.21493 -1.37786 0
M  V30 1533 C 153.287 -1.74984 -3.14039 0
M  V30 1534 C 152.951 -3.24103 -3.2219 0
M  V30 1535 C 153.948 -4.20877 -3.05219 0
M  V30 1536 C 151.633 -3.64625 -3.45476 0
M  V30 1537 C 153.627 -5.56151 -3.11408 0
M  V30 1538 C 151.314 -5.00032 -3.513 0
M  V30 1539 C 152.312 -5.95604 -3.34282 0
M  V30 1540 O 152 -7.28545 -3.3982 0
M  V30 1541 H 151.732 -0.401183 -0.544085 0
M  V30 1542 H 154.286 -1.67832 -1.18413 0
M  V30 1543 H 152.516 -1.16624 -3.68695 0
M  V30 1544 H 154.205 -1.58199 -3.73802 0
M  V30 1545 H 154.971 -3.90908 -2.87081 0
M  V30 1546 H 150.85 -2.90718 -3.57777 0
M  V30 1547 H 154.394 -6.30727 -2.98043 0
M  V30 1548 H 150.291 -5.29659 -3.68959 0
M  V30 1549 H 151.059 -7.3686 -3.56343 0
M  V30 1550 N 153.722 1.14298 -1.08507 0
M  V30 1551 C 154.632 2.23027 -0.727753 0
M  V30 1552 C 155.648 1.71952 0.26619 0
M  V30 1553 O 156.824 2.011 0.109882 0
M  V30 1554 C 153.889 3.46403 -0.143541 0
M  V30 1555 C 152.95 4.12413 -1.19223 0
M  V30 1556 C 152.183 5.29899 -0.635798 0
M  V30 1557 O 152.406 5.67796 0.544393 0
M  V30 1558 O 151.34 5.85717 -1.38634 0
M  V30 1559 H 155.166 2.55945 -1.63481 0
M  V30 1560 H 152.751 1.22248 -0.858817 0
M  V30 1561 H 154.633 4.21018 0.179404 0
M  V30 1562 H 153.308 3.15206 0.736659 0
M  V30 1563 H 152.215 3.39667 -1.56772 0
M  V30 1564 H 153.548 4.47718 -2.04474 0
M  V30 1565 N 155.201 0.870884 1.31352 0
M  V30 1566 C 156.149 0.316445 2.30437 0
M  V30 1567 C 157.143 -0.568965 1.59559 0
M  V30 1568 O 158.349 -0.454964 1.74155 0
M  V30 1569 H 154.724 0.0836521 0.747333 0
M  V30 1570 H 156.695 1.16606 2.74673 0
M  V30 1571 C 155.444 -0.46635 3.44558 0
M  V30 1572 H 154.767 0.205687 3.99271 0
M  V30 1573 H 156.207 -0.819614 4.16003 0
M  V30 1574 C 154.666 -1.65797 2.9328 0
M  V30 1575 O 155.196 -2.75728 2.92125 0
M  V30 1576 N 153.402 -1.49041 2.4947 0
M  V30 1577 H 152.949 -0.59612 2.50608 0
M  V30 1578 H 152.907 -2.28911 2.15516 0
M  V30 1579 N 156.679 -1.44442 0.630414 0
M  V30 1580 C 157.612 -2.27862 -0.124247 0
M  V30 1581 C 158.59 -1.38495 -0.851931 0
M  V30 1582 O 159.774 -1.67935 -0.856166 0
M  V30 1583 C 156.901 -3.17407 -1.18197 0
M  V30 1584 C 155.947 -4.22875 -0.554892 0
M  V30 1585 S 156.78 -5.31485 0.654489 0
M  V30 1586 C 157.936 -6.246 -0.40326 0
M  V30 1587 H 158.169 -2.91519 0.583435 0
M  V30 1588 H 155.702 -1.48618 0.418565 0
M  V30 1589 H 157.66 -3.69549 -1.78728 0
M  V30 1590 H 156.321 -2.52971 -1.86184 0
M  V30 1591 H 155.514 -4.85542 -1.35148 0
M  V30 1592 H 155.116 -3.73992 -0.0242105 0
M  V30 1593 H 157.408 -6.65375 -1.27602 0
M  V30 1594 H 158.351 -7.07851 0.187813 0
M  V30 1595 H 158.759 -5.59775 -0.728837 0
M  V30 1596 N 158.157 -0.370918 -1.53173 0
M  V30 1597 C 159.107 0.489588 -2.22681 0
M  V30 1598 C 160.091 1.04442 -1.22395 0
M  V30 1599 O 161.283 0.973578 -1.47819 0
M  V30 1600 C 158.412 1.626 -3.02351 0
M  V30 1601 C 157.498 1.08379 -4.10018 0
M  V30 1602 N 157.889 0.265004 -5.05105 0
M  V30 1603 C 156.187 1.35809 -4.2482 0
M  V30 1604 C 156.888 -0.0324755 -5.81691 0
M  V30 1605 N 155.864 0.566581 -5.40639 0
M  V30 1606 H 159.666 -0.142729 -2.93553 0
M  V30 1607 H 157.18 -0.179221 -1.61408 0
M  V30 1608 H 159.177 2.2547 -3.50669 0
M  V30 1609 H 157.837 2.26132 -2.33011 0
M  V30 1610 H 158.848 -0.0962352 -5.17811 0
M  V30 1611 H 155.525 1.9958 -3.66707 0
M  V30 1612 H 156.915 -0.69473 -6.68299 0
M  V30 1613 N 159.635 1.57281 -0.100228 0
M  V30 1614 C 160.585 2.10848 0.86759 0
M  V30 1615 C 161.569 1.02473 1.24049 0
M  V30 1616 O 162.761 1.28739 1.21471 0
M  V30 1617 C 159.89 2.69648 2.12474 0
M  V30 1618 C 158.976 3.85074 1.77704 0
M  V30 1619 N 159.367 4.92897 1.13518 0
M  V30 1620 C 157.665 3.94905 2.07282 0
M  V30 1621 C 158.366 5.73475 0.974735 0
M  V30 1622 N 157.342 5.22675 1.4937 0
M  V30 1623 H 161.144 2.91594 0.367471 0
M  V30 1624 H 158.658 1.62074 0.102829 0
M  V30 1625 H 160.655 3.06356 2.82757 0
M  V30 1626 H 159.315 1.90359 2.63047 0
M  V30 1627 H 160.326 5.11662 0.801381 0
M  V30 1628 H 157.003 3.26633 2.60033 0
M  V30 1629 H 158.393 6.70238 0.472364 0
M  V30 1630 N 161.113 -0.173488 1.56642 0
M  V30 1631 C 162.361 -0.888706 1.81512 0
M  V30 1632 C 162.682 -1.82875 0.676872 0
M  V30 1633 O 161.952 -1.93536 -0.303414 0
M  V30 1634 H 160.532 -0.331164 0.669582 0
M  V30 1635 H 163.194 -0.173823 1.94123 0
M  V30 1636 H 162.29 -1.46691 2.75478 0
M  V30 1637 N 162.591 -1.51276 -0.441967 0
M  V30 1638 C 163.538 -1.72256 -1.53612 0
M  V30 1639 C 164.508 -0.564164 -1.56225 0
M  V30 1640 O 165.693 -0.798074 -1.73307 0
M  V30 1641 C 162.833 -1.84932 -2.91366 0
M  V30 1642 C 161.946 -3.12459 -2.98317 0
M  V30 1643 C 161.081 -3.15758 -4.27166 0
M  V30 1644 C 160.12 -4.37619 -4.27967 0
M  V30 1645 N 159.257 -4.38493 -5.48333 0
M  V30 1646 H 164.097 -2.65654 -1.35026 0
M  V30 1647 H 161.634 -1.31662 -0.656009 0
M  V30 1648 H 163.592 -1.90263 -3.7129 0
M  V30 1649 H 162.222 -0.949461 -3.08521 0
M  V30 1650 H 161.274 -3.1646 -2.11086 0
M  V30 1651 H 162.586 -4.02382 -2.94771 0
M  V30 1652 H 161.74 -3.19979 -5.15459 0
M  V30 1653 H 160.479 -2.23715 -4.33362 0
M  V30 1654 H 159.484 -4.33579 -3.38067 0
M  V30 1655 H 160.709 -5.30921 -4.23438 0
M  V30 1656 H 158.655 -3.49318 -5.55259 0
M  V30 1657 H 158.572 -5.22219 -5.46647 0
M  V30 1658 H 159.84 -4.469 -6.38671 0
M  V30 1659 N 164.069 0.697108 -1.41344 0
M  V30 1660 C 165.485 1.00751 -1.2378 0
M  V30 1661 C 165.685 2.01105 -0.126066 0
M  V30 1662 O 164.741 2.47295 0.51004 0
M  V30 1663 C 166.054 1.53359 -2.58653 0
M  V30 1664 C 167.602 1.6525 -2.65822 0
M  V30 1665 C 168.077 2.2126 -4.01009 0
M  V30 1666 N 169.568 2.28622 -4.02847 0
M  V30 1667 C 170.303 2.72984 -5.04249 0
M  V30 1668 N 169.799 3.16962 -6.16041 0
M  V30 1669 N 171.592 2.72534 -4.91611 0
M  V30 1670 H 163.743 0.0322662 -2.12375 0
M  V30 1671 H 166.006 0.0768853 -0.944877 0
M  V30 1672 H 165.712 0.870773 -3.4075 0
M  V30 1673 H 165.586 2.51597 -2.81032 0
M  V30 1674 H 167.973 2.30644 -1.84086 0
M  V30 1675 H 168.054 0.655614 -2.47256 0
M  V30 1676 H 167.698 1.56482 -4.83193 0
M  V30 1677 H 167.628 3.21698 -4.16915 0
M  V30 1678 H 170.119 1.97585 -3.22131 0
M  V30 1679 H 170.432 3.49434 -6.89287 0
M  V30 1680 H 168.777 3.14875 -6.1958 0
M  V30 1681 H 171.968 2.37525 -4.0336 0
M  V30 1682 H 172.141 3.06789 -5.70775 0
M  V30 1683 N 165.547 1.27147 0.931209 0
M  V30 1684 C 166.787 1.14511 1.69312 0
M  V30 1685 C 167.151 -0.304638 1.89568 0
M  V30 1686 O 168.352 -0.553343 2.63043 0
M  V30 1687 C 166.623 1.90349 3.02493 0
M  V30 1688 S 168.182 1.93884 3.93642 0
M  V30 1689 H 165 0.408858 0.581684 0
M  V30 1690 H 167.602 1.61006 1.10893 0
M  V30 1691 H 166.306 2.94877 2.85439 0
M  V30 1692 H 165.837 1.44333 3.65966 0
M  V30 1693 H 167.852 1.03273 4.85334 0
M  V30 1694 N 167.025 -1.13721 1.09112 0
M  V30 1695 C 167.955 -2.21148 0.749385 0
M  V30 1696 C 168.936 -1.6792 -0.271475 0
M  V30 1697 O 170.121 -1.93693 -0.140251 0
M  V30 1698 C 167.251 -3.46905 0.165659 0
M  V30 1699 C 166.205 -4.13203 1.11567 0
M  V30 1700 C 165.531 -5.33248 0.393809 0
M  V30 1701 C 166.831 -4.60912 2.45678 0
M  V30 1702 H 168.525 -2.4999 1.64758 0
M  V30 1703 H 166.071 -1.20156 0.793626 0
M  V30 1704 H 168.024 -4.21313 -0.085466 0
M  V30 1705 H 166.748 -3.17449 -0.767714 0
M  V30 1706 H 165.407 -3.40758 1.35202 0
M  V30 1707 H 165.055 -5.00054 -0.543599 0
M  V30 1708 H 164.755 -5.78552 1.02721 0
M  V30 1709 H 166.279 -6.10413 0.150908 0
M  V30 1710 H 167.693 -5.26759 2.26269 0
M  V30 1711 H 166.09 -5.16944 3.04776 0
M  V30 1712 H 167.16 -3.75603 3.06677 0
M  V30 1713 N 168.503 -0.877838 -1.30888 0
M  V30 1714 C 169.433 -0.35534 -2.3078 0
M  V30 1715 C 170.414 0.557994 -1.60687 0
M  V30 1716 O 171.599 0.473355 -1.88343 0
M  V30 1717 C 168.729 0.437221 -3.44537 0
M  V30 1718 C 167.683 -0.383715 -4.26276 0
M  V30 1719 C 167.009 0.535014 -5.32017 0
M  V30 1720 C 168.309 -1.62201 -4.96476 0
M  V30 1721 H 170.003 -1.19007 -2.74732 0
M  V30 1722 H 167.549 -0.573698 -1.32078 0
M  V30 1723 H 169.502 0.813334 -4.13477 0
M  V30 1724 H 168.226 1.30553 -2.99372 0
M  V30 1725 H 166.885 -0.741874 -3.59015 0
M  V30 1726 H 166.533 1.40083 -4.831 0
M  V30 1727 H 166.233 -0.0104211 -5.87599 0
M  V30 1728 H 167.757 0.907799 -6.03814 0
M  V30 1729 H 169.171 -1.31689 -5.5797 0
M  V30 1730 H 167.568 -2.10711 -5.61891 0
M  V30 1731 H 168.638 -2.37044 -4.23011 0
M  V30 1732 N 169.982 1.44106 -0.638065 0
M  V30 1733 C 171.231 2.01194 -0.142744 0
M  V30 1734 C 171.544 1.50835 1.24532 0
M  V30 1735 O 172.75 2.00096 1.83504 0
M  V30 1736 C 171.206 3.59319 -0.20442 0
M  V30 1737 C 170.814 4.18674 -1.59423 0
M  V30 1738 C 172.558 4.23854 0.234079 0
M  V30 1739 C 170.465 5.69045 -1.61065 0
M  V30 1740 H 169.395 0.752367 -0.0495998 0
M  V30 1741 H 172.046 1.65246 -0.797881 0
M  V30 1742 H 170.428 3.92598 0.517946 0
M  V30 1743 H 171.602 3.96921 -2.34074 0
M  V30 1744 H 169.917 3.66453 -1.97741 0
M  V30 1745 H 172.514 5.34155 0.241443 0
M  V30 1746 H 172.857 3.96688 1.2627 0
M  V30 1747 H 173.39 3.95403 -0.436025 0
M  V30 1748 H 170.129 6.00956 -2.61787 0
M  V30 1749 H 169.649 5.929 -0.90718 0
M  V30 1750 H 171.328 6.32809 -1.34766 0
M  V30 1751 N 171.46 0.379036 1.52974 0
M  V30 1752 C 172.709 -0.207612 2.00629 0
M  V30 1753 C 173.022 -1.48758 1.27006 0
M  V30 1754 O 174.228 -2.15365 1.65318 0
M  V30 1755 C 172.684 -0.42053 3.57435 0
M  V30 1756 C 172.292 0.845587 4.39948 0
M  V30 1757 C 174.036 -0.964102 4.13407 0
M  V30 1758 C 171.943 0.601513 5.88333 0
M  V30 1759 H 170.873 -0.0813591 0.749598 0
M  V30 1760 H 173.524 0.499853 1.76561 0
M  V30 1761 H 171.906 -1.18959 3.7771 0
M  V30 1762 H 173.08 1.61848 4.31442 0
M  V30 1763 H 171.395 1.31336 3.95145 0
M  V30 1764 H 173.992 -1.16225 5.21916 0
M  V30 1765 H 174.335 -1.93019 3.68849 0
M  V30 1766 H 174.868 -0.25487 3.96983 0
M  V30 1767 H 171.607 1.53831 6.37194 0
M  V30 1768 H 171.127 -0.132628 5.99653 0
M  V30 1769 H 172.806 0.232134 6.46583 0
M  V30 1770 N 172.938 -1.57226 0.108567 0
M  V30 1771 C 173.871 -2.10447 -0.882464 0
M  V30 1772 C 174.849 -1.01829 -1.26766 0
M  V30 1773 O 176.033 -1.29415 -1.37054 0
M  V30 1774 C 173.16 -2.59258 -2.17952 0
M  V30 1775 C 172.206 -3.79662 -1.94318 0
M  V30 1776 S 173.039 -5.22586 -1.16892 0
M  V30 1777 C 174.195 -5.74758 -2.47799 0
M  V30 1778 H 174.428 -2.94178 -0.429745 0
M  V30 1779 H 171.961 -1.54043 -0.105 0
M  V30 1780 H 173.919 -2.88036 -2.92482 0
M  V30 1781 H 172.58 -1.75728 -2.60343 0
M  V30 1782 H 171.773 -4.11928 -2.90399 0
M  V30 1783 H 171.375 -3.51446 -1.27913 0
M  V30 1784 H 173.667 -5.83846 -3.43701 0
M  V30 1785 H 174.61 -6.73027 -2.20093 0
M  V30 1786 H 175.018 -5.02763 -2.56689 0
M  V30 1787 N 174.416 0.165178 -1.56732 0
M  V30 1788 C 175.326 1.22423 -2.00125 0
M  V30 1789 C 176.342 1.48084 -0.913619 0
M  V30 1790 O 177.518 1.60112 -1.22172 0
M  V30 1791 C 174.583 2.54197 -2.35764 0
M  V30 1792 C 173.644 2.36343 -3.58386 0
M  V30 1793 C 172.877 3.61834 -3.92316 0
M  V30 1794 O 173.1 4.67267 -3.27135 0
M  V30 1795 O 172.034 3.55579 -4.85641 0
M  V30 1796 H 175.86 0.885886 -2.90492 0
M  V30 1797 H 173.445 0.372518 -1.44681 0
M  V30 1798 H 175.327 3.3192 -2.59629 0
M  V30 1799 H 174.002 2.87598 -1.48557 0
M  V30 1800 H 172.909 1.56632 -3.39731 0
M  V30 1801 H 174.242 2.07865 -4.46154 0
M  V30 1802 N 175.894 1.51508 0.433938 0
M  V30 1803 C 177.134 1.66006 1.19253 0
M  V30 1804 C 177.498 0.369868 1.88404 0
M  V30 1805 O 178.699 0.39066 2.65946 0
M  V30 1806 C 176.97 2.83229 2.17981 0
M  V30 1807 S 178.529 3.18075 3.02281 0
M  V30 1808 H 175.347 0.584821 0.404358 0
M  V30 1809 H 177.949 1.89425 0.48357 0
M  V30 1810 H 176.653 3.75407 1.65824 0
M  V30 1811 H 176.184 2.6201 2.93453 0
M  V30 1812 H 178.199 2.64772 4.19655 0
M  V30 1813 N 177.372 -0.689602 1.41712 0
M  V30 1814 C 178.305 -1.81403 1.3845 0
M  V30 1815 C 179.283 -1.60653 0.250874 0
M  V30 1816 O 180.467 -1.83323 0.43874 0
M  V30 1817 C 177.594 -3.18176 1.1611 0
M  V30 1818 C 176.64 -3.57705 2.3227 0
M  V30 1819 S 177.473 -3.61827 3.94767 0
M  V30 1820 C 178.629 -5.01318 3.74742 0
M  V30 1821 H 178.862 -1.83893 2.33603 0
M  V30 1822 H 176.395 -0.858878 1.28307 0
M  V30 1823 H 178.353 -3.97132 1.03907 0
M  V30 1824 H 177.014 -3.13288 0.225668 0
M  V30 1825 H 176.207 -4.57082 2.12349 0
M  V30 1826 H 175.809 -2.86073 2.40911 0
M  V30 1827 H 178.101 -5.88986 3.34817 0
M  V30 1828 H 179.044 -5.26283 4.73743 0
M  V30 1829 H 179.452 -4.73138 3.07898 0
M  V30 1830 N 178.85 -1.27639 -0.924453 0
M  V30 1831 C 179.76 -1.12466 -2.05885 0
M  V30 1832 C 180.776 -0.053869 -1.73917 0
M  V30 1833 O 181.952 -0.261012 -1.99702 0
M  V30 1834 C 179.017 -0.776768 -3.37886 0
M  V30 1835 C 178.078 -1.92878 -3.83532 0
M  V30 1836 C 177.311 -1.59739 -5.09234 0
M  V30 1837 O 177.534 -0.506782 -5.68144 0
M  V30 1838 O 176.468 -2.43761 -5.50331 0
M  V30 1839 H 180.294 -2.07671 -2.21599 0
M  V30 1840 H 177.879 -1.06857 -1.04413 0
M  V30 1841 H 179.761 -0.596229 -4.17161 0
M  V30 1842 H 178.436 0.145732 -3.23372 0
M  V30 1843 H 177.343 -2.1644 -3.0513 0
M  V30 1844 H 178.676 -2.8316 -4.02593 0
M  V30 1845 N 180.328 1.1314 -1.09713 0
M  V30 1846 C 181.576 1.84119 -0.833338 0
M  V30 1847 C 181.897 1.84097 0.642904 0
M  V30 1848 O 181.167 1.29881 1.46655 0
M  V30 1849 H 179.747 0.681766 -0.305293 0
M  V30 1850 H 182.409 1.37038 -1.38588 0
M  V30 1851 H 181.505 2.88543 -1.18951 0
M  V30 1852 N 181.806 0.884767 1.30421 0
M  V30 1853 C 183.054 0.502112 1.95763 0
M  V30 1854 C 183.375 -0.951815 1.70192 0
M  V30 1855 O 182.645 -1.6692 1.0254 0
M  V30 1856 H 181.225 0.182694 0.724315 0
M  V30 1857 H 183.887 1.1278 1.58955 0
M  V30 1858 H 182.983 0.672188 3.04775 0
M  V30 1859 N 183.284 -1.43765 0.645699 0
M  V30 1860 C 184.194 -2.34544 -0.0512957 0
M  V30 1861 C 185.21 -1.53455 -0.82022 0
M  V30 1862 O 186.386 -1.86133 -0.769176 0
M  V30 1863 C 183.451 -3.31636 -1.01087 0
M  V30 1864 C 182.512 -4.2863 -0.239712 0
M  V30 1865 C 181.745 -5.21084 -1.15358 0
M  V30 1866 O 181.968 -5.1779 -2.39269 0
M  V30 1867 O 180.902 -5.98593 -0.630038 0
M  V30 1868 H 184.728 -2.95624 0.695718 0
M  V30 1869 H 182.313 -1.43781 0.405882 0
M  V30 1870 H 184.195 -3.9136 -1.56254 0
M  V30 1871 H 182.87 -2.73069 -1.73824 0
M  V30 1872 H 181.777 -3.72408 0.355356 0
M  V30 1873 H 183.11 -4.90157 0.447936 0
M  V30 1874 N 184.763 -0.387143 -1.52771 0
M  V30 1875 C 185.693 0.440551 -2.29306 0
M  V30 1876 C 186.674 1.06535 -1.32606 0
M  V30 1877 O 187.859 1.07853 -1.61497 0
M  V30 1878 C 184.989 1.56919 -3.09829 0
M  V30 1879 C 183.943 1.07054 -4.14395 0
M  V30 1880 C 183.269 2.29109 -4.83129 0
M  V30 1881 C 184.569 0.140015 -5.22112 0
M  V30 1882 H 186.263 -0.198026 -2.98744 0
M  V30 1883 H 183.809 -0.09668 -1.43675 0
M  V30 1884 H 185.762 2.15503 -3.62128 0
M  V30 1885 H 184.486 2.23532 -2.3812 0
M  V30 1886 H 183.145 0.507247 -3.63074 0
M  V30 1887 H 182.793 2.94227 -4.0797 0
M  V30 1888 H 182.493 1.96406 -5.53804 0
M  V30 1889 H 184.017 2.88339 -5.38231 0
M  V30 1890 H 185.431 0.633978 -5.69784 0
M  V30 1891 H 183.828 -0.0971485 -6.00021 0
M  V30 1892 H 184.898 -0.811711 -4.78058 0
M  V30 1893 N 186.241 1.57166 -0.116904 0
M  V30 1894 C 187.488 1.95123 0.541603 0
M  V30 1895 C 187.816 1.00006 1.6682 0
M  V30 1896 O 187.071 0.0235658 1.95686 0
M  V30 1897 C 187.37 3.39508 1.11664 0
M  V30 1898 C 187.036 4.50762 0.111606 0
M  V30 1899 C 185.698 4.80918 -0.164758 0
M  V30 1900 C 188.05 5.18036 -0.573438 0
M  V30 1901 C 185.378 5.75666 -1.13249 0
M  V30 1902 C 187.73 6.13824 -1.52978 0
M  V30 1903 C 186.394 6.42374 -1.81415 0
M  V30 1904 H 185.664 0.714005 0.198187 0
M  V30 1905 H 188.311 1.9048 -0.197365 0
M  V30 1906 H 186.616 3.40835 1.93232 0
M  V30 1907 H 188.313 3.66189 1.63422 0
M  V30 1908 H 184.903 4.27272 0.337192 0
M  V30 1909 H 189.087 4.94896 -0.373092 0
M  V30 1910 H 184.343 5.96092 -1.35958 0
M  V30 1911 H 188.517 6.65039 -2.06629 0
M  V30 1912 H 186.144 7.15599 -2.56557 0
M  V30 1913 N 187.719 -0.156864 1.56817 0
M  V30 1914 C 188.944 -0.890331 1.87318 0
M  V30 1915 C 189.369 -1.74394 0.704855 0
M  V30 1916 O 188.727 -1.77972 -0.345786 0
M  V30 1917 C 188.775 -1.73102 3.16336 0
M  V30 1918 O 187.879 -2.83422 2.99576 0
M  V30 1919 H 187.22 -0.24857 0.615718 0
M  V30 1920 H 189.75 -0.150649 2.04045 0
M  V30 1921 H 189.76 -2.12803 3.48107 0
M  V30 1922 H 188.435 -1.10412 4.00976 0
M  V30 1923 H 187.012 -2.47199 2.7919 0
M  V30 1924 N 189.197 -1.51736 -0.425897 0
M  V30 1925 C 190.613 -1.40166 -0.76326 0
M  V30 1926 C 190.813 -0.492962 -1.95377 0
M  V30 1927 O 189.869 0.0475815 -2.52455 0
M  V30 1928 C 191.182 -2.82403 -1.03291 0
M  V30 1929 C 192.73 -2.91632 -1.13665 0
M  V30 1930 C 193.205 -4.34801 -1.43916 0
M  V30 1931 N 194.696 -4.3796 -1.50816 0
M  V30 1932 C 195.431 -5.4578 -1.75817 0
M  V30 1933 N 194.927 -6.63744 -1.98534 0
M  V30 1934 N 196.72 -5.33274 -1.77694 0
M  V30 1935 H 188.871 -2.09361 0.358 0
M  V30 1936 H 191.134 -0.942941 0.0978094 0
M  V30 1937 H 190.84 -3.50943 -0.230696 0
M  V30 1938 H 190.714 -3.22428 -1.95754 0
M  V30 1939 H 193.101 -2.23284 -1.92947 0
M  V30 1940 H 193.182 -2.55088 -0.190756 0
M  V30 1941 H 192.826 -5.03703 -0.65157 0
M  V30 1942 H 192.756 -4.68868 -2.39729 0
M  V30 1943 H 195.247 -3.52919 -1.35118 0
M  V30 1944 H 195.56 -7.41704 -2.17013 0
M  V30 1945 H 193.905 -6.66839 -1.95832 0
M  V30 1946 H 197.096 -4.40098 -1.59473 0
M  V30 1947 H 197.269 -6.1738 -1.9684 0
M  V30 1948 N 190.675 0.682077 -1.42076 0
M  V30 1949 C 191.924 1.43786 -1.41451 0
M  V30 1950 C 192.237 1.95574 -0.0317074 0
M  V30 1951 O 193.443 2.71326 0.0971462 0
M  V30 1952 C 191.899 2.60071 -2.48779 0
M  V30 1953 C 191.507 2.15013 -3.93031 0
M  V30 1954 C 193.251 3.37626 -2.57311 0
M  V30 1955 C 191.158 3.28336 -4.91883 0
M  V30 1956 H 190.088 0.540143 -0.526082 0
M  V30 1957 H 192.739 0.739157 -1.67955 0
M  V30 1958 H 191.121 3.32275 -2.15429 0
M  V30 1959 H 192.295 1.5001 -4.35699 0
M  V30 1960 H 190.61 1.50416 -3.88284 0
M  V30 1961 H 193.207 4.22012 -3.28345 0
M  V30 1962 H 193.55 3.83727 -1.61429 0
M  V30 1963 H 194.083 2.72488 -2.89819 0
M  V30 1964 H 190.822 2.87234 -5.89217 0
M  V30 1965 H 190.342 3.92145 -4.53853 0
M  V30 1966 H 192.021 3.93913 -5.13265 0
M  V30 1967 N 192.153 1.28127 0.917671 0
M  V30 1968 C 193.085 1.07517 2.02417 0
M  V30 1969 C 194.098 0.0281099 1.62776 0
M  V30 1970 O 195.287 0.270748 1.76435 0
M  V30 1971 C 192.387 0.610957 3.33347 0
M  V30 1972 C 191.56 1.73255 4.01624 0
M  V30 1973 C 190.619 1.26238 5.10833 0
M  V30 1974 O 189.645 1.96389 5.34247 0
M  V30 1975 N 190.847 0.123448 5.80369 0
M  V30 1976 H 193.612 2.02806 2.20658 0
M  V30 1977 H 191.173 1.19827 1.08871 0
M  V30 1978 H 193.165 0.280101 4.0373 0
M  V30 1979 H 191.735 -0.24898 3.11607 0
M  V30 1980 H 190.955 2.23319 3.24842 0
M  V30 1981 H 192.243 2.48503 4.43986 0
M  V30 1982 H 191.641 -0.461847 5.63812 0
M  V30 1983 H 190.198 -0.148158 6.51632 0
M  V30 1984 N 193.631 -1.12557 1.10312 0
M  V30 1985 C 194.541 -2.21841 0.763142 0
M  V30 1986 C 195.557 -1.72354 -0.238801 0
M  V30 1987 O 196.733 -2.01249 -0.0778746 0
M  V30 1988 C 193.798 -3.46131 0.198632 0
M  V30 1989 C 192.859 -4.10464 1.25769 0
M  V30 1990 C 192.092 -5.28821 0.72002 0
M  V30 1991 O 192.315 -5.6859 -0.453993 0
M  V30 1992 O 191.249 -5.83437 1.47935 0
M  V30 1993 H 195.075 -2.53312 1.67532 0
M  V30 1994 H 192.66 -1.20867 0.878157 0
M  V30 1995 H 194.542 -4.2125 -0.112401 0
M  V30 1996 H 193.217 -3.16338 -0.686419 0
M  V30 1997 H 192.124 -3.3713 1.62156 0
M  V30 1998 H 193.457 -4.44408 2.11571 0
M  V30 1999 N 195.109 -0.891671 -1.2995 0
M  V30 2000 C 196.525 -0.58662 -1.48428 0
M  V30 2001 C 196.725 0.873951 -1.81561 0
M  V30 2002 O 195.781 1.65471 -1.90724 0
M  V30 2003 C 197.094 -1.50553 -2.60296 0
M  V30 2004 C 198.642 -1.50988 -2.74175 0
M  V30 2005 C 199.117 -2.41488 -3.89163 0
M  V30 2006 N 200.608 -2.39489 -3.96483 0
M  V30 2007 C 201.343 -3.06223 -4.84784 0
M  V30 2008 N 200.839 -3.82206 -5.77833 0
M  V30 2009 N 202.632 -2.95421 -4.78208 0
M  V30 2010 H 194.783 -1.83644 -1.06718 0
M  V30 2011 H 197.046 -0.786455 -0.529332 0
M  V30 2012 H 196.752 -2.54581 -2.42654 0
M  V30 2013 H 196.626 -1.22008 -3.56923 0
M  V30 2014 H 199.013 -0.47708 -2.91218 0
M  V30 2015 H 199.094 -1.83567 -1.78148 0
M  V30 2016 H 198.738 -3.44857 -3.72876 0
M  V30 2017 H 198.668 -2.06222 -4.84541 0
M  V30 2018 H 201.159 -1.84278 -3.29924 0
M  V30 2019 H 201.472 -4.302 -6.41988 0
M  V30 2020 H 199.817 -3.86313 -5.77743 0
M  V30 2021 H 203.008 -2.35581 -4.04499 0
M  V30 2022 H 203.181 -3.47704 -5.46814 0
M  V30 2023 N 196.587 1.43421 -0.653314 0
M  V30 2024 C 197.835 2.01414 -0.166415 0
M  V30 2025 C 198.156 1.51803 1.22397 0
M  V30 2026 O 197.426 0.730693 1.81763 0
M  V30 2027 H 196.006 0.744703 -0.0585319 0
M  V30 2028 H 198.668 1.75629 -0.845003 0
M  V30 2029 H 197.764 3.11734 -0.151111 0
M  V30 2030 N 198.065 0.39524 1.52563 0
M  V30 2031 C 199.342 -0.242908 1.94086 0
M  V30 2032 C 199.722 -1.63841 1.33114 0
M  V30 2033 O 199.07 -2.22928 0.501529 0
M  V30 2034 C 199.28 -0.26327 3.48006 0
M  V30 2035 C 200.628 -0.489354 4.21771 0
M  V30 2036 O 201.652 -0.343226 3.54543 0
M  V30 2037 O 200.511 -0.776169 5.4096 0
M  V30 2038 H 197.605 -0.152536 0.812811 0
M  V30 2039 H 200.151 0.450178 1.6362 0
M  V30 2040 H 198.923 0.713985 3.84731 0
M  V30 2041 H 198.546 -1.00103 3.84792 0
M  V30 2042 N 199.544 -1.57102 0.125237 0
M  V30 2043 C 200.476 -2.12726 -0.853237 0
M  V30 2044 C 201.489 -1.07145 -1.22571 0
M  V30 2045 O 202.678 -1.34497 -1.17358 0
M  V30 2046 C 199.778 -2.61709 -2.15317 0
M  V30 2047 C 198.951 -3.91456 -1.95143 0
M  V30 2048 C 198.01 -4.25973 -3.08923 0
M  V30 2049 O 197.036 -4.94682 -2.81564 0
M  V30 2050 N 198.238 -3.83795 -4.35524 0
M  V30 2051 H 201.003 -2.97307 -0.377964 0
M  V30 2052 H 198.564 -1.61792 -0.0590011 0
M  V30 2053 H 200.556 -2.81826 -2.90441 0
M  V30 2054 H 199.126 -1.81974 -2.54174 0
M  V30 2055 H 198.346 -3.80185 -1.04177 0
M  V30 2056 H 199.634 -4.76283 -1.78976 0
M  V30 2057 H 199.032 -3.2839 -4.60626 0
M  V30 2058 H 197.589 -4.09008 -5.07499 0
M  V30 2059 N 201.022 0.148545 -1.56898 0
M  V30 2060 C 201.985 1.16736 -1.97244 0
M  V30 2061 C 202.985 1.35947 -0.858777 0
M  V30 2062 O 204.175 1.32966 -1.12542 0
M  V30 2063 C 201.307 2.52798 -2.28705 0
M  V30 2064 H 202.5 0.821279 -2.88435 0
M  V30 2065 H 200.053 0.391831 -1.51309 0
M  V30 2066 H 200.788 2.92381 -1.403 0
M  V30 2067 H 200.573 2.40216 -3.09901 0
M  V30 2068 H 202.063 3.26179 -2.60762 0
M  V30 2069 N 202.5 1.5196 0.417844 0
M  V30 2070 C 203.747 1.65591 1.16559 0
M  V30 2071 C 204.075 0.381565 1.90721 0
M  V30 2072 O 203.33 -0.635156 1.85106 0
M  V30 2073 C 203.629 2.82269 2.19223 0
M  V30 2074 C 203.295 4.20819 1.61933 0
M  V30 2075 C 201.957 4.58506 1.46033 0
M  V30 2076 C 204.309 5.07196 1.20008 0
M  V30 2077 C 201.637 5.80257 0.867113 0
M  V30 2078 C 203.989 6.29544 0.621086 0
M  V30 2079 C 202.653 6.65987 0.449144 0
M  V30 2080 H 201.923 0.605939 0.42652 0
M  V30 2081 H 204.57 1.86041 0.45397 0
M  V30 2082 H 202.875 2.56118 2.96498 0
M  V30 2083 H 204.572 2.90012 2.76936 0
M  V30 2084 H 201.162 3.91116 1.7529 0
M  V30 2085 H 205.346 4.7867 1.31105 0
M  V30 2086 H 200.602 6.07124 0.721833 0
M  V30 2087 H 204.776 6.95805 0.287798 0
M  V30 2088 H 202.403 7.60199 -0.012632 0
M  V30 2089 N 203.978 -0.674533 1.42435 0
M  V30 2090 C 205.206 -1.46283 1.46317 0
M  V30 2091 C 205.621 -1.88653 0.0745836 0
M  V30 2092 O 204.978 -1.58151 -0.91074 0
M  V30 2093 C 205.029 -2.71178 2.3905 0
M  V30 2094 O 204.75 -2.30586 3.72507 0
M  V30 2095 C 206.251 -3.64738 2.51955 0
M  V30 2096 H 203.471 -0.450104 0.497642 0
M  V30 2097 H 206.015 -0.828792 1.86953 0
M  V30 2098 H 204.17 -3.3077 2.01667 0
M  V30 2099 H 204.584 -3.11241 4.22172 0
M  V30 2100 H 206.058 -4.49096 3.20962 0
M  V30 2101 H 206.535 -4.10656 1.55752 0
M  V30 2102 H 207.141 -3.11038 2.90061 0
M  V30 2103 N 205.456 -1.28612 -0.910864 0
M  V30 2104 C 206.366 -1.14643 -2.0468 0
M  V30 2105 C 207.382 -0.0723121 -1.7385 0
M  V30 2106 O 208.558 -0.282178 -1.99413 0
M  V30 2107 C 205.623 -0.812561 -3.37044 0
M  V30 2108 C 204.684 -1.96935 -3.81465 0
M  V30 2109 C 203.917 -1.65131 -5.07511 0
M  V30 2110 O 204.14 -0.567013 -5.67575 0
M  V30 2111 O 203.074 -2.49585 -5.47714 0
M  V30 2112 H 206.9 -2.1001 -2.19384 0
M  V30 2113 H 204.485 -1.07958 -1.03274 0
M  V30 2114 H 206.367 -0.640441 -4.16505 0
M  V30 2115 H 205.042 0.111426 -3.23508 0
M  V30 2116 H 203.949 -2.19664 -3.02818 0
M  V30 2117 H 205.282 -2.87414 -3.99567 0
M  V30 2118 N 206.934 1.1197 -1.10907 0
M  V30 2119 C 208.35 1.35591 -0.841852 0
M  V30 2120 C 208.55 1.94233 0.536246 0
M  V30 2121 O 207.606 2.1717 1.28816 0
M  V30 2122 C 208.919 2.29284 -1.94549 0
M  V30 2123 C 210.467 2.42862 -1.97451 0
M  V30 2124 C 210.942 3.39873 -3.07002 0
M  V30 2125 N 212.433 3.47433 -3.06341 0
M  V30 2126 C 213.168 4.22421 -3.87748 0
M  V30 2127 N 212.664 5.00432 -4.79103 0
M  V30 2128 N 214.457 4.17876 -3.75946 0
M  V30 2129 H 206.608 0.722664 -1.99728 0
M  V30 2130 H 208.871 0.380635 -0.868229 0
M  V30 2131 H 208.577 1.93378 -2.93765 0
M  V30 2132 H 208.451 3.29452 -1.83688 0
M  V30 2133 H 210.838 2.78046 -0.988645 0
M  V30 2134 H 210.919 1.42566 -2.12388 0
M  V30 2135 H 210.563 3.05417 -4.05811 0
M  V30 2136 H 210.493 4.40011 -2.89306 0
M  V30 2137 H 212.984 2.91784 -2.40147 0
M  V30 2138 H 213.297 5.55002 -5.37766 0
M  V30 2139 H 211.642 4.99612 -4.83128 0
M  V30 2140 H 214.833 3.56016 -3.03924 0
M  V30 2141 H 215.006 4.76061 -4.39624 0
M  V30 2142 N 208.412 0.89855 1.29475 0
M  V30 2143 C 209.322 0.379974 2.31502 0
M  V30 2144 C 210.338 -0.524695 1.659 0
M  V30 2145 O 211.514 -0.414551 1.97087 0
M  V30 2146 C 208.579 -0.385138 3.44554 0
M  V30 2147 C 207.64 0.550914 4.2575 0
M  V30 2148 C 206.873 -0.177778 5.33404 0
M  V30 2149 O 207.096 -1.40189 5.52904 0
M  V30 2150 O 206.03 0.479106 5.9999 0
M  V30 2151 H 209.856 1.22639 2.77837 0
M  V30 2152 H 207.441 0.662834 1.33891 0
M  V30 2153 H 209.323 -0.817841 4.13388 0
M  V30 2154 H 207.998 -1.20763 3.0033 0
M  V30 2155 H 206.905 1.03271 3.59564 0
M  V30 2156 H 208.238 1.33979 4.73614 0
M  V30 2157 N 209.89 -1.43072 0.660911 0
M  V30 2158 C 210.853 -2.29194 -0.0166406 0
M  V30 2159 C 211.853 -1.42609 -0.742912 0
M  V30 2160 O 213.043 -1.64155 -0.583004 0
M  V30 2161 C 210.175 -3.24831 -1.0343 0
M  V30 2162 H 211.368 -2.90596 0.741208 0
M  V30 2163 H 208.921 -1.5048 0.422532 0
M  V30 2164 H 209.656 -2.68339 -1.82111 0
M  V30 2165 H 209.441 -3.88676 -0.517082 0
M  V30 2166 H 210.931 -3.89451 -1.50723 0
M  V30 2167 N 211.368 -0.403325 -1.52352 0
M  V30 2168 C 212.331 0.413051 -2.25447 0
M  V30 2169 C 213.331 0.978513 -1.276 0
M  V30 2170 O 214.521 0.858305 -1.51587 0
M  V30 2171 C 211.653 1.58087 -3.02029 0
M  V30 2172 H 212.846 -0.227094 -2.99039 0
M  V30 2173 H 210.399 -0.155722 -1.55522 0
M  V30 2174 H 211.134 2.25804 -2.32772 0
M  V30 2175 H 210.919 1.18195 -3.73861 0
M  V30 2176 H 212.409 2.1585 -3.57489 0
M  V30 2177 N 212.846 1.57033 -0.133567 0
M  V30 2178 C 213.756 2.19632 0.824564 0
M  V30 2179 C 214.772 1.17666 1.28182 0
M  V30 2180 O 215.948 1.50193 1.3418 0
M  V30 2181 C 213.013 2.79499 2.05137 0
M  V30 2182 C 212.074 3.96548 1.64464 0
M  V30 2183 C 211.307 4.5355 2.81297 0
M  V30 2184 O 211.53 4.09438 3.97136 0
M  V30 2185 O 210.464 5.44018 2.57542 0
M  V30 2186 H 214.29 3.01991 0.321766 0
M  V30 2187 H 211.875 1.49112 0.0927889 0
M  V30 2188 H 213.757 3.17602 2.7696 0
M  V30 2189 H 212.432 2.00162 2.54395 0
M  V30 2190 H 211.339 3.63186 0.897048 0
M  V30 2191 H 212.672 4.77364 1.19934 0
M  V30 2192 N 214.325 -0.140222 1.56975 0
M  V30 2193 C 215.574 -0.850152 1.82908 0
M  V30 2194 C 215.887 -1.82028 0.715892 0
M  V30 2195 O 217.093 -2.57485 0.861016 0
M  V30 2196 C 215.549 -1.5625 3.24213 0
M  V30 2197 C 215.157 -0.63443 4.43485 0
M  V30 2198 C 216.901 -2.25881 3.59413 0
M  V30 2199 C 214.808 -1.34879 5.75814 0
M  V30 2200 H 213.738 -0.321221 0.682153 0
M  V30 2201 H 216.389 -0.102874 1.83211 0
M  V30 2202 H 214.771 -2.35565 3.18316 0
M  V30 2203 H 215.945 0.12398 4.60633 0
M  V30 2204 H 214.26 -0.0461836 4.16374 0
M  V30 2205 H 216.857 -2.79978 4.5554 0
M  V30 2206 H 217.2 -3.02693 2.85802 0
M  V30 2207 H 217.733 -1.53477 3.67001 0
M  V30 2208 H 214.472 -0.622385 6.52539 0
M  V30 2209 H 213.992 -2.07974 5.6259 0
M  V30 2210 H 215.671 -1.88784 6.18845 0
M  V30 2211 N 215.803 -1.52179 -0.40978 0
M  V30 2212 C 216.736 -1.70196 -1.52015 0
M  V30 2213 C 217.714 -0.549542 -1.53032 0
M  V30 2214 O 218.898 -0.776815 -1.71749 0
M  V30 2215 C 216.025 -1.74069 -2.90547 0
M  V30 2216 C 215.071 -2.95601 -3.07445 0
M  V30 2217 S 215.904 -4.55956 -2.80827 0
M  V30 2218 C 217.06 -4.62614 -4.21591 0
M  V30 2219 H 217.293 -2.64109 -1.36504 0
M  V30 2220 H 214.826 -1.4221 -0.601312 0
M  V30 2221 H 216.784 -1.76985 -3.70387 0
M  V30 2222 H 215.445 -0.812835 -3.034 0
M  V30 2223 H 214.638 -2.94791 -4.08796 0
M  V30 2224 H 214.24 -2.90569 -2.35469 0
M  V30 2225 H 216.532 -4.39951 -5.15218 0
M  V30 2226 H 217.475 -5.64548 -4.27424 0
M  V30 2227 H 217.883 -3.91654 -4.06531 0
M  V30 2228 N 217.281 0.66697 -1.42791 0
M  V30 2229 C 218.697 0.981027 -1.25889 0
M  V30 2230 C 218.897 2.00793 -0.168695 0
M  V30 2231 O 217.953 2.48321 0.45747 0
M  V30 2232 C 219.266 1.47838 -2.61848 0
M  V30 2233 C 220.814 1.59575 -2.69267 0
M  V30 2234 C 221.289 2.12704 -4.05612 0
M  V30 2235 N 222.78 2.20026 -4.07606 0
M  V30 2236 C 223.515 2.62227 -5.09926 0
M  V30 2237 N 223.011 3.03824 -6.22626 0
M  V30 2238 N 224.804 2.62045 -4.97281 0
M  V30 2239 H 216.955 -0.0127891 -2.12396 0
M  V30 2240 H 219.218 0.0568258 -0.946295 0
M  V30 2241 H 218.924 0.798299 -3.4252 0
M  V30 2242 H 218.798 2.45579 -2.86305 0
M  V30 2243 H 221.185 2.26687 -1.88936 0
M  V30 2244 H 221.266 0.60302 -2.48591 0
M  V30 2245 H 220.91 1.46198 -4.86404 0
M  V30 2246 H 220.84 3.12782 -4.23645 0
M  V30 2247 H 223.331 1.90708 -3.2625 0
M  V30 2248 H 223.644 3.34734 -6.96544 0
M  V30 2249 H 221.989 3.01662 -6.26119 0
M  V30 2250 H 225.18 2.28916 -4.08308 0
M  V30 2251 H 225.353 2.94613 -5.77154 0
M  V30 2252 N 218.759 1.29093 0.90403 0
M  V30 2253 C 220.036 1.075 1.63411 0
M  V30 2254 C 220.416 -0.382346 2.07609 0
M  V30 2255 O 219.764 -1.37031 1.82851 0
M  V30 2256 C 219.974 2.05858 2.81822 0
M  V30 2257 C 221.322 2.36539 3.52611 0
M  V30 2258 O 222.346 2.04019 2.91984 0
M  V30 2259 O 221.205 2.92085 4.61897 0
M  V30 2260 H 218.299 0.411547 0.717327 0
M  V30 2261 H 220.845 1.40449 0.952479 0
M  V30 2262 H 219.617 3.04037 2.46327 0
M  V30 2263 H 219.24 1.73613 3.57693 0
M  V30 2264 N 220.237 -1.11381 1.11499 0
M  V30 2265 C 221.486 -1.82494 0.858993 0
M  V30 2266 C 221.799 -1.85605 -0.617278 0
M  V30 2267 O 223.005 -2.52824 -0.989552 0
M  V30 2268 C 221.461 -3.27745 1.48699 0
M  V30 2269 C 221.069 -3.32961 2.99735 0
M  V30 2270 C 222.813 -4.03754 1.31085 0
M  V30 2271 C 220.72 -4.72612 3.55516 0
M  V30 2272 H 219.65 -0.683802 0.317696 0
M  V30 2273 H 222.301 -1.25331 1.34031 0
M  V30 2274 H 220.683 -3.84844 0.933339 0
M  V30 2275 H 221.857 -2.85741 3.61509 0
M  V30 2276 H 220.172 -2.70433 3.16631 0
M  V30 2277 H 222.769 -5.06891 1.70192 0
M  V30 2278 H 223.112 -4.15527 0.253496 0
M  V30 2279 H 223.645 -3.53043 1.83318 0
M  V30 2280 H 220.384 -4.66036 4.60967 0
M  V30 2281 H 219.904 -5.2024 2.98513 0
M  V30 2282 H 221.583 -5.4157 3.53992 0
M  V30 2283 N 221.715 -0.905404 -1.28997 0
M  V30 2284 C 222.963 -0.533192 -1.9494 0
M  V30 2285 C 223.284 0.924618 -1.71685 0
M  V30 2286 O 222.554 1.65268 -1.05183 0
M  V30 2287 H 221.134 -0.194194 -0.721317 0
M  V30 2288 H 223.796 -1.15294 -1.57141 0
M  V30 2289 H 222.892 -0.72059 -3.03667 0
M  V30 2290 N 223.193 1.4272 -0.668489 0
M  V30 2291 C 224.421 2.05966 -0.196348 0
M  V30 2292 C 224.836 1.50191 1.14403 0
M  V30 2293 O 224.193 0.639208 1.7094 0
M  V30 2294 C 224.244 3.61314 -0.115815 0
M  V30 2295 O 223.965 4.1502 -1.40322 0
M  V30 2296 C 225.466 4.41663 0.380579 0
M  V30 2297 H 222.686 0.663954 -0.0969829 0
M  V30 2298 H 225.23 1.82966 -0.913446 0
M  V30 2299 H 223.385 3.83448 0.551931 0
M  V30 2300 H 223.799 5.08832 -1.27243 0
M  V30 2301 H 225.273 5.5065 0.385848 0
M  V30 2302 H 225.75 4.15792 1.41471 0
M  V30 2303 H 226.356 4.24534 -0.255209 0
M  V30 2304 N 224.671 0.411399 1.52136 0
M  V30 2305 C 225.634 -0.401089 2.25663 0
M  V30 2306 C 226.634 -0.971732 1.28117 0
M  V30 2307 O 227.824 -0.850254 1.52041 0
M  V30 2308 C 224.956 -1.56483 3.02863 0
M  V30 2309 H 226.149 0.24295 2.98914 0
M  V30 2310 H 223.702 0.163968 1.55438 0
M  V30 2311 H 224.437 -2.24567 2.33967 0
M  V30 2312 H 224.222 -1.16211 3.74483 0
M  V30 2313 H 225.712 -2.13951 3.58629 0
M  V30 2314 N 226.149 -1.5696 0.141893 0
M  V30 2315 C 227.398 -1.95135 -0.510427 0
M  V30 2316 C 227.711 -1.02896 -1.66348 0
M  V30 2317 O 228.917 -1.30629 -2.38009 0
M  V30 2318 C 227.373 -3.46876 -0.959427 0
M  V30 2319 C 226.981 -4.47691 0.166419 0
M  V30 2320 C 228.725 -3.93927 -1.58183 0
M  V30 2321 C 226.632 -5.90636 -0.300565 0
M  V30 2322 H 225.562 -0.728494 -0.194454 0
M  V30 2323 H 228.213 -1.8211 0.22542 0
M  V30 2324 H 226.595 -3.55215 -1.75038 0
M  V30 2325 H 227.769 -4.51043 0.94325 0
M  V30 2326 H 226.084 -4.10527 0.696905 0
M  V30 2327 H 228.681 -4.98158 -1.94275 0
M  V30 2328 H 229.024 -3.3519 -2.46888 0
M  V30 2329 H 229.557 -3.88484 -0.855863 0
M  V30 2330 H 226.296 -6.5318 0.550989 0
M  V30 2331 H 225.816 -5.90655 -1.04338 0
M  V30 2332 H 227.495 -6.42588 -0.754265 0
M  V30 2333 N 227.627 0.131896 -1.57047 0
M  V30 2334 C 228.559 1.1878 -1.9602 0
M  V30 2335 C 229.572 1.38363 -0.857875 0
M  V30 2336 O 230.761 1.37666 -1.13623 0
M  V30 2337 C 227.861 2.55008 -2.23213 0
M  V30 2338 C 227.034 2.56201 -3.54513 0
M  V30 2339 C 226.093 3.7408 -3.70069 0
M  V30 2340 O 225.119 3.58258 -4.42312 0
M  V30 2341 N 226.321 4.92137 -3.07866 0
M  V30 2342 H 229.086 0.85639 -2.87204 0
M  V30 2343 H 226.647 0.321309 -1.5868 0
M  V30 2344 H 228.639 3.32404 -2.30846 0
M  V30 2345 H 227.209 2.80382 -1.3822 0
M  V30 2346 H 226.429 1.64613 -3.58185 0
M  V30 2347 H 227.717 2.54043 -4.4084 0
M  V30 2348 H 227.115 5.07895 -2.49116 0
M  V30 2349 H 225.672 5.67254 -3.21039 0
M  V30 2350 N 229.106 1.52395 0.401703 0
M  V30 2351 C 230.353 1.66817 1.14796 0
M  V30 2352 C 230.681 0.401772 1.90305 0
M  V30 2353 O 229.936 -0.615487 1.85769 0
M  V30 2354 C 230.235 2.84578 2.16217 0
M  V30 2355 C 229.901 4.22513 1.5746 0
M  V30 2356 C 228.563 4.60029 1.41161 0
M  V30 2357 C 230.915 5.0844 1.14622 0
M  V30 2358 C 228.243 5.81144 0.80552 0
M  V30 2359 C 230.595 6.30167 0.55428 0
M  V30 2360 C 229.259 6.66426 0.378482 0
M  V30 2361 H 228.529 0.610428 0.420069 0
M  V30 2362 H 231.176 1.86512 0.434212 0
M  V30 2363 H 229.481 2.59248 2.93764 0
M  V30 2364 H 231.178 2.92933 2.73845 0
M  V30 2365 H 227.768 3.92953 1.71132 0
M  V30 2366 H 231.952 4.80034 1.26021 0
M  V30 2367 H 227.208 6.07855 0.657399 0
M  V30 2368 H 231.382 6.96071 0.213983 0
M  V30 2369 H 229.009 7.60143 -0.0932606 0
M  V30 2370 N 230.584 -0.659388 1.43143 0
M  V30 2371 C 231.514 -1.78422 1.50625 0
M  V30 2372 C 232.495 -1.66216 0.361443 0
M  V30 2373 O 233.68 -1.85404 0.577834 0
M  V30 2374 C 230.81 -3.16815 1.42287 0
M  V30 2375 C 229.764 -3.43777 2.54954 0
M  V30 2376 C 229.09 -4.81905 2.31671 0
M  V30 2377 C 230.39 -3.39134 3.97222 0
M  V30 2378 H 232.084 -1.72417 2.44771 0
M  V30 2379 H 229.63 -0.828084 1.17808 0
M  V30 2380 H 231.583 -3.95253 1.46127 0
M  V30 2381 H 230.307 -3.23534 0.446435 0
M  V30 2382 H 228.966 -2.67707 2.50457 0
M  V30 2383 H 228.614 -4.85294 1.32284 0
M  V30 2384 H 228.314 -5.00906 3.07192 0
M  V30 2385 H 229.838 -5.62609 2.37284 0
M  V30 2386 H 231.252 -4.07518 4.03239 0
M  V30 2387 H 229.649 -3.69671 4.72719 0
M  V30 2388 H 230.719 -2.37426 4.22797 0
M  V30 2389 N 232.062 -1.29571 -0.897171 0
M  V30 2390 C 233.012 -1.11539 -1.98855 0
M  V30 2391 C 233.996 -0.0340716 -1.60864 0
M  V30 2392 O 235.188 -0.256062 -1.75138 0
M  V30 2393 C 232.317 -0.796603 -3.3393 0
M  V30 2394 C 231.403 -1.91758 -3.78272 0
M  V30 2395 N 231.794 -3.16143 -3.94826 0
M  V30 2396 C 230.092 -1.81119 -4.07568 0
M  V30 2397 C 230.793 -3.89293 -4.32233 0
M  V30 2398 N 229.769 -3.17255 -4.41419 0
M  V30 2399 H 233.571 -2.05894 -2.09726 0
M  V30 2400 H 231.085 -1.20732 -1.08616 0
M  V30 2401 H 233.082 -0.648459 -4.11826 0
M  V30 2402 H 231.742 0.139003 -3.24402 0
M  V30 2403 H 232.753 -3.5157 -3.80288 0
M  V30 2404 H 229.43 -0.948461 -4.06584 0
M  V30 2405 H 230.82 -4.9635 -4.52865 0
M  V30 2406 N 233.54 1.10788 -1.12088 0
M  V30 2407 C 234.765 1.87002 -0.896949 0
M  V30 2408 C 235.19 1.79933 0.548261 0
M  V30 2409 O 234.548 1.16662 1.38779 0
M  V30 2410 C 234.596 3.3349 -1.37174 0
M  V30 2411 O 233.7 4.08745 -0.547831 0
M  V30 2412 H 233.041 0.580397 -0.322545 0
M  V30 2413 H 235.571 1.39996 -1.49206 0
M  V30 2414 H 235.581 3.84339 -1.36922 0
M  V30 2415 H 234.256 3.37951 -2.42408 0
M  V30 2416 H 232.833 3.6776 -0.617034 0
M  V30 2417 N 235.018 0.912232 1.28515 0
M  V30 2418 C 235.968 0.370649 2.24967 0
M  V30 2419 C 236.952 -0.516375 1.52389 0
M  V30 2420 O 238.144 -0.356345 1.73376 0
M  V30 2421 C 235.273 -0.389526 3.41083 0
M  V30 2422 C 234.359 0.51313 4.20984 0
M  V30 2423 N 234.75 1.62604 4.78951 0
M  V30 2424 C 233.048 0.313235 4.44899 0
M  V30 2425 C 233.749 2.18619 5.39055 0
M  V30 2426 N 232.725 1.47765 5.23132 0
M  V30 2427 H 236.527 1.22061 2.67354 0
M  V30 2428 H 234.041 0.764712 1.43269 0
M  V30 2429 H 236.038 -0.794353 4.09262 0
M  V30 2430 H 234.698 -1.2366 3.0023 0
M  V30 2431 H 235.709 2.00864 4.77362 0
M  V30 2432 H 232.386 -0.494452 4.14562 0
M  V30 2433 H 233.776 3.12228 5.94948 0
M  V30 2434 N 236.496 -1.42363 0.676048 0
M  V30 2435 C 237.444 -2.32596 -0.0131507 0
M  V30 2436 C 238.438 -1.49891 -0.789238 0
M  V30 2437 O 239.644 -1.65955 -0.697061 0
M  V30 2438 H 236.019 -0.751647 -0.0230481 0
M  V30 2439 H 237.99 -2.88421 0.765243 0
M  V30 2440 C 236.739 -3.34479 -0.949702 0
M  V30 2441 H 236.062 -3.98158 -0.361938 0
M  V30 2442 H 237.502 -4.00199 -1.4006 0
M  V30 2443 C 235.961 -2.66838 -2.05667 0
M  V30 2444 O 236.491 -2.50124 -3.14326 0
M  V30 2445 N 234.697 -2.25843 -1.82875 0
M  V30 2446 H 234.244 -2.39637 -0.945085 0
M  V30 2447 H 234.202 -1.80918 -2.5713 0
M  V30 2448 N 237.974 -0.419461 -1.51915 0
M  V30 2449 C 239.223 0.154346 -2.01109 0
M  V30 2450 C 239.536 1.45338 -1.30905 0
M  V30 2451 O 240.742 2.10906 -1.7097 0
M  V30 2452 C 239.198 0.325615 -3.58424 0
M  V30 2453 C 238.806 -0.961934 -4.37551 0
M  V30 2454 C 240.55 0.854155 -4.15818 0
M  V30 2455 C 238.457 -0.757287 -5.86531 0
M  V30 2456 H 237.387 0.0614563 -0.751491 0
M  V30 2457 H 240.038 -0.54649 -1.75173 0
M  V30 2458 H 238.42 1.08903 -3.80731 0
M  V30 2459 H 239.594 -1.7323 -4.26999 0
M  V30 2460 H 237.909 -1.41766 -3.91524 0
M  V30 2461 H 240.506 1.02346 -5.24814 0
M  V30 2462 H 240.849 1.83172 -3.73837 0
M  V30 2463 H 241.382 0.149528 -3.97519 0
M  V30 2464 H 238.121 -1.70671 -6.32892 0
M  V30 2465 H 237.641 -0.0264061 -5.99794 0
M  V30 2466 H 239.32 -0.403482 -6.45741 0
M  V30 2467 N 239.452 1.56882 -0.150215 0
M  V30 2468 C 240.415 2.1573 0.774157 0
M  V30 2469 C 241.415 1.0999 1.17298 0
M  V30 2470 O 242.605 1.35613 1.09338 0
M  V30 2471 C 239.737 2.72302 2.05096 0
M  V30 2472 H 240.93 2.98752 0.262201 0
M  V30 2473 H 238.483 1.55985 0.099248 0
M  V30 2474 H 239.218 1.92956 2.6065 0
M  V30 2475 H 239.003 3.49665 1.77416 0
M  V30 2476 H 240.493 3.17632 2.71109 0
M  V30 2477 N 240.93 -0.123565 1.57115 0
M  V30 2478 C 241.88 -1.1575 1.96433 0
M  V30 2479 C 242.864 -1.37313 0.838686 0
M  V30 2480 O 244.056 -1.38482 1.10235 0
M  V30 2481 C 241.185 -2.48526 2.36833 0
M  V30 2482 C 240.271 -2.30457 3.5602 0
M  V30 2483 N 240.662 -1.8219 4.71848 0
M  V30 2484 C 238.96 -2.61129 3.61563 0
M  V30 2485 C 239.661 -1.77721 5.53886 0
M  V30 2486 N 238.637 -2.21899 4.96248 0
M  V30 2487 H 242.439 -0.776797 2.83449 0
M  V30 2488 H 239.953 -0.331364 1.58983 0
M  V30 2489 H 241.95 -3.233 2.63216 0
M  V30 2490 H 240.61 -2.87358 1.5118 0
M  V30 2491 H 241.621 -1.51805 4.95152 0
M  V30 2492 H 238.298 -3.03678 2.86507 0
M  V30 2493 H 239.688 -1.41697 6.56789 0
M  V30 2494 N 242.408 -1.52605 -0.393616 0
M  V30 2495 C 243.824 -1.41753 -0.733357 0
M  V30 2496 C 244.024 -0.534293 -1.94287 0
M  V30 2497 O 243.08 -0.0059787 -2.52499 0
M  V30 2498 C 244.393 -2.84531 -0.972772 0
M  V30 2499 C 245.941 -2.93978 -1.07453 0
M  V30 2500 C 246.416 -4.37756 -1.3466 0
M  V30 2501 N 247.907 -4.4106 -1.41492 0
M  V30 2502 C 248.642 -5.49387 -1.642 0
M  V30 2503 N 248.138 -6.67806 -1.8441 0
M  V30 2504 N 249.931 -5.36923 -1.66342 0
M  V30 2505 H 242.082 -2.08555 0.402328 0
M  V30 2506 H 244.345 -0.940654 0.117789 0
M  V30 2507 H 244.051 -3.51353 -0.156204 0
M  V30 2508 H 243.925 -3.26508 -1.88871 0
M  V30 2509 H 246.312 -2.27326 -1.88167 0
M  V30 2510 H 246.393 -2.55435 -0.136605 0
M  V30 2511 H 246.037 -5.04972 -0.544581 0
M  V30 2512 H 245.967 -4.73848 -2.2973 0
M  V30 2513 H 248.458 -3.55705 -1.27601 0
M  V30 2514 H 248.771 -7.46141 -2.01231 0
M  V30 2515 H 247.116 -6.70843 -1.81644 0
M  V30 2516 H 250.307 -4.43381 -1.50102 0
M  V30 2517 H 250.48 -6.21416 -1.837 0
M  V30 2518 N 243.887 0.651787 -1.4349 0
M  V30 2519 C 245.164 1.40909 -1.35661 0
M  V30 2520 C 245.544 2.11099 -0.00511733 0
M  V30 2521 O 244.892 2.04892 1.0115 0
M  V30 2522 C 245.102 2.3926 -2.54078 0
M  V30 2523 C 246.45 3.03217 -2.97228 0
M  V30 2524 O 247.474 2.49588 -2.54135 0
M  V30 2525 O 246.333 4.00455 -3.71885 0
M  V30 2526 H 243.427 0.629625 -0.536191 0
M  V30 2527 H 245.973 0.678575 -1.55542 0
M  V30 2528 H 244.745 1.86352 -3.44076 0
M  V30 2529 H 244.368 3.1976 -2.36303 0
M  V30 2530 N 245.365 1.30045 0.890287 0
M  V30 2531 C 246.611 1.18737 1.64406 0
M  V30 2532 C 246.944 -0.258525 1.92472 0
M  V30 2533 O 246.219 -1.18562 1.54186 0
M  V30 2534 C 246.502 2.01087 2.98724 0
M  V30 2535 C 246.355 3.53867 2.77665 0
M  V30 2536 C 247.674 1.84457 3.9958 0
M  V30 2537 H 244.793 0.432698 0.596608 0
M  V30 2538 H 247.435 1.5962 1.0306 0
M  V30 2539 H 245.585 1.66349 3.51084 0
M  V30 2540 H 247.257 3.98637 2.32133 0
M  V30 2541 H 245.5 3.78318 2.12269 0
M  V30 2542 H 246.171 4.06772 3.7315 0
M  V30 2543 H 248.647 2.14817 3.56361 0
M  V30 2544 H 247.523 2.44411 4.91482 0
M  V30 2545 H 247.784 0.802276 4.3476 0
M  V30 2546 N 246.843 -1.10192 1.12674 0
M  V30 2547 C 247.79 -2.16606 0.796906 0
M  V30 2548 C 248.76 -1.64394 -0.237476 0
M  V30 2549 O 249.945 -1.90474 -0.111484 0
M  V30 2550 C 247.085 -3.44116 0.26043 0
M  V30 2551 C 246.198 -4.10268 1.35293 0
M  V30 2552 C 245.333 -5.25507 0.775621 0
M  V30 2553 C 244.372 -5.83567 1.84706 0
M  V30 2554 N 243.509 -6.90179 1.28829 0
M  V30 2555 H 248.349 -2.44163 1.70846 0
M  V30 2556 H 245.886 -1.19846 0.85295 0
M  V30 2557 H 247.844 -4.17143 -0.0686814 0
M  V30 2558 H 246.474 -3.16901 -0.614274 0
M  V30 2559 H 245.526 -3.35184 1.79877 0
M  V30 2560 H 246.838 -4.4946 2.16303 0
M  V30 2561 H 245.992 -6.05398 0.397327 0
M  V30 2562 H 244.731 -4.87656 -0.0656581 0
M  V30 2563 H 243.736 -5.02344 2.23452 0
M  V30 2564 H 244.961 -6.23482 2.69161 0
M  V30 2565 H 242.907 -6.54322 0.468881 0
M  V30 2566 H 242.824 -7.28097 2.03497 0
M  V30 2567 H 244.092 -7.73844 0.937311 0
M  V30 2568 N 248.321 -0.919034 -1.28029 0
M  V30 2569 C 249.732 -0.600735 -1.76771 0
M  V30 2570 C 250.083 0.884024 -1.75156 0
M  V30 2571 O 249.208 1.69163 -1.34956 0
M  V30 2572 C 249.803 -1.08372 -3.21 0
M  V30 2573 C 248.362 -0.816248 -3.67443 0
M  V30 2574 C 247.509 -1.24742 -2.47658 0
M  V30 2575 H 250.46 -1.09974 -1.14418 0
M  V30 2576 H 250.481 -0.427512 -3.78091 0
M  V30 2577 H 249.993 -2.16437 -3.22144 0
M  V30 2578 H 248.094 0.250968 -3.71754 0
M  V30 2579 H 248.207 -1.4277 -4.57333 0
M  V30 2580 H 246.571 -0.666083 -2.45836 0
M  V30 2581 H 247.354 -2.33653 -2.51518 0
M  V30 2582 N 249.799 1.42003 -0.683588 0
M  V30 2583 C 250.709 2.34597 -0.0109075 0
M  V30 2584 C 251.725 1.55576 0.779245 0
M  V30 2585 O 252.901 1.88107 0.719555 0
M  V30 2586 C 249.966 3.34199 0.922588 0
M  V30 2587 C 249.027 4.29115 0.125984 0
M  V30 2588 C 248.26 5.23959 1.01502 0
M  V30 2589 O 248.483 5.23952 2.25456 0
M  V30 2590 O 247.417 6.00053 0.47111 0
M  V30 2591 H 251.243 2.93675 -0.773853 0
M  V30 2592 H 248.828 1.42654 -0.443861 0
M  V30 2593 H 250.71 3.95365 1.45823 0
M  V30 2594 H 249.385 2.77582 1.66523 0
M  V30 2595 H 248.292 3.71335 -0.453969 0
M  V30 2596 H 249.625 4.88798 -0.577736 0
M  V30 2597 N 251.277 0.427512 1.51691 0
M  V30 2598 C 252.225 -0.403359 2.29076 0
M  V30 2599 C 253.219 -1.02962 1.34518 0
M  V30 2600 O 254.425 -0.965715 1.51901 0
M  V30 2601 H 250.8 -0.148879 0.737115 0
M  V30 2602 H 252.771 0.270295 2.97173 0
M  V30 2603 C 251.52 -1.49763 3.13794 0
M  V30 2604 H 250.843 -1.02508 3.86435 0
M  V30 2605 H 252.283 -2.05244 3.71014 0
M  V30 2606 C 250.742 -2.47536 2.28533 0
M  V30 2607 O 251.272 -3.51848 1.93819 0
M  V30 2608 N 249.478 -2.18187 1.91945 0
M  V30 2609 H 249.025 -1.33389 2.20375 0
M  V30 2610 H 248.983 -2.83848 1.35195 0
M  V30 2611 N 252.755 -1.56801 0.158532 0
M  V30 2612 C 253.685 -2.20347 -0.772609 0
M  V30 2613 C 254.666 -1.15518 -1.24859 0
M  V30 2614 O 255.851 -1.43902 -1.30406 0
M  V30 2615 C 252.981 -2.83417 -2.00729 0
M  V30 2616 C 251.935 -3.94174 -1.66765 0
M  V30 2617 C 251.261 -4.44233 -2.97592 0
M  V30 2618 C 252.561 -5.14392 -0.905447 0
M  V30 2619 H 254.255 -2.98413 -0.242959 0
M  V30 2620 H 251.801 -1.43537 -0.115419 0
M  V30 2621 H 253.754 -3.26543 -2.6636 0
M  V30 2622 H 252.478 -2.02701 -2.56086 0
M  V30 2623 H 251.137 -3.51684 -1.03508 0
M  V30 2624 H 250.785 -3.60325 -3.50963 0
M  V30 2625 H 250.485 -5.18945 -2.75626 0
M  V30 2626 H 252.009 -4.90037 -3.64274 0
M  V30 2627 H 253.423 -5.5429 -1.46408 0
M  V30 2628 H 251.82 -5.9494 -0.7853 0
M  V30 2629 H 252.89 -4.84795 0.100668 0
M  V30 2630 N 254.233 0.115231 -1.57178 0
M  V30 2631 C 255.163 1.1423 -2.03651 0
M  V30 2632 C 256.144 1.42967 -0.921655 0
M  V30 2633 O 257.329 1.53343 -1.19162 0
M  V30 2634 C 254.459 2.4675 -2.44401 0
M  V30 2635 C 253.413 2.32467 -3.59365 0
M  V30 2636 C 252.739 3.69984 -3.86026 0
M  V30 2637 C 254.039 1.78203 -4.90959 0
M  V30 2638 H 255.733 0.755749 -2.89705 0
M  V30 2639 H 253.279 0.362093 -1.39373 0
M  V30 2640 H 255.232 3.18854 -2.75517 0
M  V30 2641 H 253.956 2.87302 -1.55322 0
M  V30 2642 H 252.615 1.62811 -3.28463 0
M  V30 2643 H 252.263 4.08028 -2.94147 0
M  V30 2644 H 251.963 3.61279 -4.63412 0
M  V30 2645 H 253.487 4.43587 -4.19599 0
M  V30 2646 H 254.901 2.40128 -5.20587 0
M  V30 2647 H 253.298 1.8031 -5.72371 0
M  V30 2648 H 254.368 0.739876 -4.79222 0
M  V30 2649 N 255.711 1.52812 0.385517 0
M  V30 2650 C 256.941 1.71658 1.14966 0
M  V30 2651 C 257.349 0.436253 1.84102 0
M  V30 2652 O 256.692 -0.599313 1.73649 0
M  V30 2653 C 256.754 2.81309 2.23843 0
M  V30 2654 C 256.418 4.22313 1.74644 0
M  V30 2655 C 257.415 5.05352 1.22129 0
M  V30 2656 C 255.1 4.68648 1.80761 0
M  V30 2657 C 257.094 6.32807 0.763838 0
M  V30 2658 C 254.781 5.96086 1.34627 0
M  V30 2659 C 255.779 6.77996 0.825264 0
M  V30 2660 O 255.467 8.03045 0.370669 0
M  V30 2661 H 255.199 0.578022 0.350523 0
M  V30 2662 H 257.753 2.00263 0.456509 0
M  V30 2663 H 255.983 2.48133 2.96592 0
M  V30 2664 H 257.672 2.88524 2.85497 0
M  V30 2665 H 258.438 4.70736 1.16758 0
M  V30 2666 H 254.317 4.04979 2.20256 0
M  V30 2667 H 257.861 6.96689 0.356494 0
M  V30 2668 H 253.758 6.30205 1.39686 0
M  V30 2669 H 254.526 8.17021 0.491829 0
M  V30 2670 N 257.189 -0.644168 1.43834 0
M  V30 2671 C 258.417 -1.43147 1.49387 0
M  V30 2672 C 258.832 -1.88452 0.114583 0
M  V30 2673 O 258.189 -1.60047 -0.876989 0
M  V30 2674 C 258.24 -2.66046 2.44748 0
M  V30 2675 O 257.961 -2.22633 3.77314 0
M  V30 2676 C 259.462 -3.59311 2.59635 0
M  V30 2677 H 256.682 -0.439447 0.507077 0
M  V30 2678 H 259.226 -0.78895 1.88669 0
M  V30 2679 H 257.381 -3.26418 2.08638 0
M  V30 2680 H 257.795 -3.02216 4.28679 0
M  V30 2681 H 259.269 -4.42187 3.30416 0
M  V30 2682 H 259.746 -4.07259 1.64427 0
M  V30 2683 H 260.352 -3.04816 2.96593 0
M  V30 2684 N 258.668 -1.30515 -0.883378 0
M  V30 2685 C 259.893 -1.22487 -1.67367 0
M  V30 2686 C 260.318 0.208767 -1.86938 0
M  V30 2687 O 259.676 1.15015 -1.40148 0
M  V30 2688 C 259.724 -1.96041 -3.02655 0
M  V30 2689 O 258.828 -1.28859 -3.91751 0
M  V30 2690 H 258.169 -0.423573 -0.511353 0
M  V30 2691 H 260.699 -1.72362 -1.10239 0
M  V30 2692 H 260.709 -2.05124 -3.52687 0
M  V30 2693 H 259.384 -3.00307 -2.8773 0
M  V30 2694 H 257.961 -1.28141 -3.50192 0
M  V30 2695 N 260.146 1.09593 -1.13257 0
M  V30 2696 C 261.093 2.1618 -0.808381 0
M  V30 2697 C 262.063 1.64517 0.228754 0
M  V30 2698 O 263.248 1.9053 0.101381 0
M  V30 2699 C 260.388 3.43973 -0.278675 0
M  V30 2700 C 259.501 4.09545 -1.37466 0
M  V30 2701 C 258.636 5.25088 -0.803479 0
M  V30 2702 C 257.675 5.82579 -1.87799 0
M  V30 2703 N 256.812 6.89486 -1.32488 0
M  V30 2704 H 261.652 2.43254 -1.72138 0
M  V30 2705 H 259.189 1.19392 -0.859294 0
M  V30 2706 H 261.147 4.17174 0.0465583 0
M  V30 2707 H 259.777 3.17223 0.597459 0
M  V30 2708 H 258.829 3.34226 -1.81652 0
M  V30 2709 H 260.141 4.48307 -2.18684 0
M  V30 2710 H 259.295 6.05178 -0.429427 0
M  V30 2711 H 258.034 4.87684 0.0397956 0
M  V30 2712 H 257.039 5.01152 -2.26113 0
M  V30 2713 H 258.264 6.22045 -2.72463 0
M  V30 2714 H 256.21 6.54064 -0.503575 0
M  V30 2715 H 256.127 7.27007 -2.07355 0
M  V30 2716 H 257.395 7.73336 -0.978336 0
M  V30 2717 N 261.624 0.925811 1.2754 0
M  V30 2718 C 262.534 0.428993 2.30644 0
M  V30 2719 C 263.55 -0.489387 1.66976 0
M  V30 2720 O 264.726 -0.372653 1.97922 0
M  V30 2721 C 261.791 -0.311967 3.45294 0
M  V30 2722 C 260.852 0.641098 4.24486 0
M  V30 2723 C 260.085 -0.0645955 5.33661 0
M  V30 2724 O 260.308 -1.28429 5.55754 0
M  V30 2725 O 259.242 0.606265 5.98839 0
M  V30 2726 H 263.068 1.28504 2.75173 0
M  V30 2727 H 260.653 0.691086 1.32455 0
M  V30 2728 H 262.535 -0.729972 4.15029 0
M  V30 2729 H 261.21 -1.14365 3.02824 0
M  V30 2730 H 260.117 1.10874 3.57292 0
M  V30 2731 H 261.45 1.43995 4.70666 0
M  V30 2732 N 263.102 -1.41638 0.69111 0
M  V30 2733 C 264.049 -2.30789 0.0229705 0
M  V30 2734 C 265.019 -1.46863 -0.775911 0
M  V30 2735 O 266.204 -1.75661 -0.74485 0
M  V30 2736 C 263.344 -3.32868 -0.910666 0
M  V30 2737 C 262.457 -4.31875 -0.103874 0
M  V30 2738 C 261.592 -5.21024 -1.03475 0
M  V30 2739 C 260.631 -6.11702 -0.220598 0
M  V30 2740 N 259.768 -6.93349 -1.10504 0
M  V30 2741 H 264.608 -2.87366 0.788978 0
M  V30 2742 H 262.145 -1.41535 0.400794 0
M  V30 2743 H 264.103 -3.90596 -1.46597 0
M  V30 2744 H 262.733 -2.77851 -1.64312 0
M  V30 2745 H 261.785 -3.76131 0.568285 0
M  V30 2746 H 263.097 -4.96003 0.527504 0
M  V30 2747 H 262.251 -5.83565 -1.65943 0
M  V30 2748 H 260.99 -4.57112 -1.69999 0
M  V30 2749 H 259.995 -5.48215 0.417187 0
M  V30 2750 H 261.22 -6.77668 0.440784 0
M  V30 2751 H 259.166 -6.3205 -1.75638 0
M  V30 2752 H 259.083 -7.54146 -0.529125 0
M  V30 2753 H 260.351 -7.60362 -1.71667 0
M  V30 2754 N 264.58 -0.43555 -1.51462 0
M  V30 2755 C 265.857 0.191364 -1.94662 0
M  V30 2756 C 266.237 1.60254 -1.37411 0
M  V30 2757 O 265.585 2.2152 -0.560458 0
M  V30 2758 C 265.795 0.17091 -3.48581 0
M  V30 2759 C 267.143 0.377357 -4.2292 0
M  V30 2760 O 268.167 0.249104 -3.55328 0
M  V30 2761 O 267.026 0.63247 -5.42828 0
M  V30 2762 H 264.12 0.130932 -0.816569 0
M  V30 2763 H 266.666 -0.4934 -1.62369 0
M  V30 2764 H 265.438 -0.815738 -3.82703 0
M  V30 2765 H 265.061 0.898659 -3.87311 0
M  V30 2766 N 266.058 1.56714 -0.166846 0
M  V30 2767 C 267.021 2.16539 0.751232 0
M  V30 2768 C 268.021 1.11228 1.16125 0
M  V30 2769 O 269.211 1.36765 1.07894 0
M  V30 2770 C 266.343 2.74462 2.02196 0
M  V30 2771 H 267.536 2.99013 0.230499 0
M  V30 2772 H 265.089 1.56081 0.0826982 0
M  V30 2773 H 265.824 1.95709 2.58589 0
M  V30 2774 H 265.609 3.51527 1.73698 0
M  V30 2775 H 267.099 3.20489 2.67725 0
M  V30 2776 N 267.536 -0.106894 1.57237 0
M  V30 2777 C 268.782 -0.81373 1.85759 0
M  V30 2778 C 269.115 -1.78952 0.754315 0
M  V30 2779 O 268.39 -1.93029 -0.23879 0
M  V30 2780 C 268.673 -1.55293 3.24894 0
M  V30 2781 C 268.526 -0.595929 4.45835 0
M  V30 2782 C 269.845 -2.5063 3.61763 0
M  V30 2783 H 266.964 -0.294369 0.67566 0
M  V30 2784 H 269.606 -0.0776472 1.89841 0
M  V30 2785 H 267.756 -2.1804 3.21544 0
M  V30 2786 H 269.428 0.0236262 4.61294 0
M  V30 2787 H 267.671 0.0916191 4.33703 0
M  V30 2788 H 268.342 -1.15004 5.39887 0
M  V30 2789 H 270.818 -1.97982 3.65981 0
M  V30 2790 H 269.694 -2.99376 4.60071 0
M  V30 2791 H 269.955 -3.3385 2.89821 0
M  V30 2792 N 269.014 -1.53014 -0.377408 0
M  V30 2793 C 269.944 -1.81589 -1.46791 0
M  V30 2794 C 270.925 -0.668622 -1.56408 0
M  V30 2795 O 272.11 -0.917337 -1.71168 0
M  V30 2796 C 269.24 -1.99519 -2.8427 0
M  V30 2797 C 268.194 -3.15249 -2.89486 0
M  V30 2798 C 267.52 -3.18451 -4.29527 0
M  V30 2799 C 268.82 -4.54084 -2.58079 0
M  V30 2800 H 270.514 -2.7291 -1.23127 0
M  V30 2801 H 268.06 -1.31319 -0.590883 0
M  V30 2802 H 270.013 -2.18092 -3.60575 0
M  V30 2803 H 268.737 -1.04897 -3.09296 0
M  V30 2804 H 267.396 -2.96477 -2.15631 0
M  V30 2805 H 267.044 -2.2149 -4.5161 0
M  V30 2806 H 266.744 -3.962 -4.33934 0
M  V30 2807 H 268.268 -3.39193 -5.07721 0
M  V30 2808 H 269.682 -4.72899 -3.24098 0
M  V30 2809 H 268.079 -5.33987 -2.7382 0
M  V30 2810 H 269.149 -4.60006 -1.53372 0
M  V30 2811 N 270.492 0.636531 -1.44174 0
M  V30 2812 C 271.439 1.74875 -1.50624 0
M  V30 2813 C 272.409 1.62275 -0.35442 0
M  V30 2814 O 273.594 1.82276 -0.563908 0
M  V30 2815 C 270.734 3.13102 -1.45125 0
M  V30 2816 C 269.847 3.36717 -2.7064 0
M  V30 2817 C 268.982 4.64885 -2.57013 0
M  V30 2818 C 268.021 4.8166 -3.77717 0
M  V30 2819 N 267.158 6.01101 -3.62798 0
M  V30 2820 H 271.998 1.68697 -2.45653 0
M  V30 2821 H 269.535 0.823004 -1.21922 0
M  V30 2822 H 271.493 3.93034 -1.39929 0
M  V30 2823 H 270.123 3.18308 -0.536671 0
M  V30 2824 H 269.175 2.50763 -2.86046 0
M  V30 2825 H 270.487 3.44993 -3.60252 0
M  V30 2826 H 269.641 5.52969 -2.49619 0
M  V30 2827 H 268.38 4.58957 -1.64953 0
M  V30 2828 H 267.385 3.92007 -3.85501 0
M  V30 2829 H 268.61 4.89406 -4.70807 0
M  V30 2830 H 266.556 5.96273 -2.73486 0
M  V30 2831 H 266.473 6.10409 -4.46023 0
M  V30 2832 H 267.741 6.91761 -3.59286 0
M  V30 2833 N 271.97 1.30982 0.876444 0
M  V30 2834 C 272.9 1.20668 1.99903 0
M  V30 2835 C 273.881 0.095354 1.69833 0
M  V30 2836 O 275.066 0.27885 1.92188 0
M  V30 2837 C 272.196 0.90655 3.3526 0
M  V30 2838 C 271.15 1.97675 3.79617 0
M  V30 2839 C 270.476 1.52943 5.1236 0
M  V30 2840 C 271.776 3.389 3.97422 0
M  V30 2841 H 273.47 2.14586 2.0879 0
M  V30 2842 H 271.016 1.03308 1.00317 0
M  V30 2843 H 272.969 0.821025 4.13324 0
M  V30 2844 H 271.693 -0.0682969 3.26529 0
M  V30 2845 H 270.352 2.05205 3.03787 0
M  V30 2846 H 270 0.54262 5.00065 0
M  V30 2847 H 269.7 2.24532 5.43009 0
M  V30 2848 H 271.224 1.45786 5.92941 0
M  V30 2849 H 272.638 3.34081 4.659 0
M  V30 2850 H 271.035 4.0865 4.3946 0
M  V30 2851 H 272.105 3.80163 3.01006 0
M  V30 2852 N 273.449 -1.08991 1.13837 0
M  V30 2853 C 274.677 -1.85011 0.926202 0
M  V30 2854 C 275.092 -1.8135 -0.525127 0
M  V30 2855 O 274.449 -1.21287 -1.36366 0
M  V30 2856 C 274.5 -3.32802 1.41155 0
M  V30 2857 O 274.221 -3.36444 2.80601 0
M  V30 2858 C 275.722 -4.25649 1.23847 0
M  V30 2859 H 272.942 -0.584249 0.32999 0
M  V30 2860 H 275.486 -1.37688 1.51202 0
M  V30 2861 H 273.641 -3.77536 0.868631 0
M  V30 2862 H 274.055 -4.28657 3.02248 0
M  V30 2863 H 275.529 -5.27485 1.62675 0
M  V30 2864 H 276.006 -4.38828 0.18065 0
M  V30 2865 H 276.612 -3.86735 1.76964 0
M  V30 2866 N 274.927 -0.932562 -1.27047 0
M  V30 2867 C 276.204 -0.49377 -1.89265 0
M  V30 2868 C 276.584 1.02833 -1.8436 0
M  V30 2869 O 275.932 1.88461 -1.29209 0
M  V30 2870 C 276.142 -1.04536 -3.32976 0
M  V30 2871 C 277.49 -1.10879 -4.09867 0
M  V30 2872 O 278.514 -0.995327 -3.42011 0
M  V30 2873 O 277.373 -1.28417 -5.31198 0
M  V30 2874 H 274.467 -0.159596 -0.811454 0
M  V30 2875 H 277.013 -1.02457 -1.3528 0
M  V30 2876 H 275.785 -2.08913 -3.30864 0
M  V30 2877 H 275.408 -0.496494 -3.94488 0
M  V30 2878 N 276.405 1.4127 -0.698611 0
M  V30 2879 C 277.652 2.0118 -0.230865 0
M  V30 2880 C 277.98 1.55338 1.17049 0
M  V30 2881 O 277.235 0.756775 1.80475 0
M  V30 2882 C 277.534 3.56592 -0.240192 0
M  V30 2883 C 277.2 4.21955 -1.58948 0
M  V30 2884 C 275.862 4.39524 -1.95887 0
M  V30 2885 C 278.214 4.58576 -2.47704 0
M  V30 2886 C 275.542 4.90992 -3.2116 0
M  V30 2887 C 277.894 5.11435 -3.72313 0
M  V30 2888 C 276.558 5.27215 -4.0939 0
M  V30 2889 H 275.828 0.736169 -0.0844796 0
M  V30 2890 H 278.475 1.69124 -0.8983 0
M  V30 2891 H 276.78 3.88456 0.510797 0
M  V30 2892 H 278.477 4.00758 0.139296 0
M  V30 2893 H 275.067 4.08657 -1.29219 0
M  V30 2894 H 279.251 4.44654 -2.20445 0
M  V30 2895 H 274.507 5.01393 -3.49878 0
M  V30 2896 H 278.681 5.38752 -4.4127 0
M  V30 2897 H 276.308 5.66859 -5.06533 0
M  V30 2898 N 277.883 0.443576 1.51229 0
M  V30 2899 C 279.131 -0.120557 2.0174 0
M  V30 2900 C 279.452 -1.42665 1.32935 0
M  V30 2901 O 278.722 -1.9028 0.465866 0
M  V30 2902 H 277.302 -0.0475426 0.745486 0
M  V30 2903 H 279.964 0.587711 1.85828 0
M  V30 2904 H 279.06 -0.291972 3.10731 0
M  V30 2905 N 279.361 -1.56624 0.175154 0
M  V30 2906 C 280.608 -1.96999 -0.468811 0
M  V30 2907 C 280.936 -1.06129 -1.62994 0
M  V30 2908 O 280.191 -0.0961771 -1.95464 0
M  V30 2909 C 280.49 -3.43419 -0.989864 0
M  V30 2910 C 280.156 -4.50866 0.0557687 0
M  V30 2911 C 278.818 -4.79975 0.343134 0
M  V30 2912 C 281.17 -5.15551 0.765308 0
M  V30 2913 C 278.498 -5.71066 1.34536 0
M  V30 2914 C 280.85 -6.07724 1.75654 0
M  V30 2915 C 279.514 -6.35199 2.05132 0
M  V30 2916 H 278.784 -0.720869 -0.17155 0
M  V30 2917 H 281.431 -1.89616 0.267924 0
M  V30 2918 H 279.736 -3.47772 -1.80449 0
M  V30 2919 H 281.433 -3.72002 -1.49719 0
M  V30 2920 H 278.023 -4.28229 -0.178381 0
M  V30 2921 H 282.207 -4.9317 0.556513 0
M  V30 2922 H 277.463 -5.90635 1.57988 0
M  V30 2923 H 281.637 -6.56912 2.31169 0
M  V30 2924 H 279.264 -7.05584 2.8294 0
M  V30 2925 N 280.839 0.0985539 -1.57292 0
M  V30 2926 C 281.802 1.10402 -2.00858 0
M  V30 2927 C 282.802 1.33146 -0.901593 0
M  V30 2928 O 283.992 1.29318 -1.16716 0
M  V30 2929 C 281.124 2.45394 -2.36632 0
M  V30 2930 H 282.317 0.729099 -2.90902 0
M  V30 2931 H 279.87 0.343495 -1.52479 0
M  V30 2932 H 280.605 2.87769 -1.49531 0
M  V30 2933 H 280.39 2.30235 -3.17387 0
M  V30 2934 H 281.88 3.17718 -2.71007 0
M  V30 2935 N 282.317 1.53212 0.369288 0
M  V30 2936 C 283.264 1.79388 1.45219 0
M  V30 2937 C 284.234 0.638059 1.53356 0
M  V30 2938 O 285.419 0.879852 1.69302 0
M  V30 2939 C 282.559 1.98623 2.82211 0
M  V30 2940 C 281.672 3.26337 2.8307 0
M  V30 2941 C 280.807 3.35779 4.11614 0
M  V30 2942 C 279.846 4.5754 4.06601 0
M  V30 2943 N 278.983 4.64155 5.26787 0
M  V30 2944 H 283.823 2.71794 1.22198 0
M  V30 2945 H 281.36 1.34642 0.592444 0
M  V30 2946 H 283.318 2.07761 3.61789 0
M  V30 2947 H 281.948 1.09558 3.03639 0
M  V30 2948 H 281 3.26171 1.95747 0
M  V30 2949 H 282.312 4.15988 2.75237 0
M  V30 2950 H 281.466 3.44208 4.99606 0
M  V30 2951 H 280.205 2.44137 4.22195 0
M  V30 2952 H 279.21 4.49215 3.16996 0
M  V30 2953 H 280.435 5.50519 3.97625 0
M  V30 2954 H 278.381 3.75413 5.3796 0
M  V30 2955 H 278.298 5.47706 5.21109 0
M  V30 2956 H 279.566 4.76863 6.16621 0
M  V30 2957 N 283.795 -0.628877 1.44509 0
M  V30 2958 C 284.705 -1.7694 1.54044 0
M  V30 2959 C 285.721 -1.68705 0.425987 0
M  V30 2960 O 286.897 -1.89442 0.683656 0
M  V30 2961 C 283.962 -3.13332 1.48405 0
M  V30 2962 C 283.023 -3.33181 2.70719 0
M  V30 2963 C 282.256 -4.63067 2.6534 0
M  V30 2964 O 282.479 -5.44017 1.71469 0
M  V30 2965 O 281.413 -4.85167 3.56226 0
M  V30 2966 H 285.239 -1.71848 2.50403 0
M  V30 2967 H 282.824 -0.790378 1.26781 0
M  V30 2968 H 284.706 -3.94634 1.47791 0
M  V30 2969 H 283.381 -3.1896 0.551898 0
M  V30 2970 H 282.288 -2.51549 2.769 0
M  V30 2971 H 283.621 -3.32416 3.62988 0
M  V30 2972 N 285.273 -1.31445 -0.869486 0
M  V30 2973 C 286.501 -1.24122 -1.65534 0
M  V30 2974 C 286.916 0.193387 -1.87807 0
M  V30 2975 O 286.273 1.12557 -1.43656 0
M  V30 2976 C 286.324 -1.98229 -3.02304 0
M  V30 2977 O 286.045 -3.3609 -2.81026 0
M  V30 2978 C 287.546 -1.97751 -3.96749 0
M  V30 2979 H 284.766 -0.428868 -0.516055 0
M  V30 2980 H 287.31 -1.73328 -1.08525 0
M  V30 2981 H 285.465 -1.52782 -3.56001 0
M  V30 2982 H 285.879 -3.7383 -3.67902 0
M  V30 2983 H 287.353 -2.54114 -4.90031 0
M  V30 2984 H 287.83 -0.960137 -4.28577 0
M  V30 2985 H 288.436 -2.43079 -3.48988 0
M  V30 2986 N 286.751 1.08385 -1.14413 0
M  V30 2987 C 287.979 1.84517 -0.936001 0
M  V30 2988 C 288.394 1.81626 0.515503 0
M  V30 2989 O 287.751 1.22008 1.35721 0
M  V30 2990 C 287.802 3.32049 -1.42918 0
M  V30 2991 O 287.523 3.34951 -2.82381 0
M  V30 2992 C 289.024 4.24986 -1.26103 0
M  V30 2993 H 286.244 0.582491 -0.333084 0
M  V30 2994 H 288.788 1.36885 -1.5193 0
M  V30 2995 H 286.943 3.7707 -0.888641 0
M  V30 2996 H 287.357 4.27048 -3.04517 0
M  V30 2997 H 288.831 5.26615 -1.6547 0
M  V30 2998 H 289.308 4.38726 -0.20392 0
M  V30 2999 H 289.914 3.85791 -1.79012 0
M  V30 3000 N 288.23 0.939286 1.26551 0
M  V30 3001 C 289.162 0.404704 2.25599 0
M  V30 3002 C 290.175 -0.470983 1.55838 0
M  V30 3003 O 291.364 -0.281734 1.76263 0
M  V30 3004 C 288.464 -0.43764 3.36062 0
M  V30 3005 C 287.637 0.421449 4.35365 0
M  V30 3006 C 286.696 -0.36015 5.24966 0
M  V30 3007 O 285.722 0.236167 5.6871 0
M  V30 3008 N 286.924 -1.65715 5.56344 0
M  V30 3009 H 289.689 1.25618 2.72103 0
M  V30 3010 H 287.25 0.807963 1.40298 0
M  V30 3011 H 289.242 -0.967866 3.92956 0
M  V30 3012 H 287.812 -1.18991 2.89067 0
M  V30 3013 H 287.032 1.1329 3.7757 0
M  V30 3014 H 288.32 1.00835 4.98708 0
M  V30 3015 H 287.718 -2.16378 5.22682 0
M  V30 3016 H 286.275 -2.13366 6.15888 0
M  V30 3017 N 289.708 -1.40897 0.706093 0
M  V30 3018 C 290.656 -2.32572 0.0361893 0
M  V30 3019 C 291.65 -1.51532 -0.757266 0
M  V30 3020 O 292.856 -1.67396 -0.661703 0
M  V30 3021 H 289.231 -0.751966 -0.00709935 0
M  V30 3022 H 291.202 -2.86733 0.826249 0
M  V30 3023 C 289.951 -3.36418 -0.87854 0
M  V30 3024 H 289.274 -3.98836 -0.277401 0
M  V30 3025 H 290.714 -4.0308 -1.3154 0
M  V30 3026 C 289.173 -2.71141 -1.99961 0
M  V30 3027 O 289.703 -2.56735 -3.0895 0
M  V30 3028 N 287.909 -2.29671 -1.78043 0
M  V30 3029 H 287.456 -2.41588 -0.894042 0
M  V30 3030 H 287.414 -1.86332 -2.53235 0
M  V30 3031 N 291.186 -0.45159 -1.50991 0
M  V30 3032 C 292.149 0.341117 -2.26647 0
M  V30 3033 C 293.149 0.937422 -1.30649 0
M  V30 3034 O 294.339 0.809644 -1.54241 0
M  V30 3035 C 291.471 1.48398 -3.06905 0
M  V30 3036 H 292.664 -0.322117 -2.98165 0
M  V30 3037 H 290.217 -0.205122 -1.54948 0
M  V30 3038 H 290.952 2.18284 -2.39838 0
M  V30 3039 H 290.737 1.06241 -3.77432 0
M  V30 3040 H 292.227 2.04367 -3.64176 0
M  V30 3041 N 292.664 1.56529 -0.183458 0
M  V30 3042 C 293.594 2.21549 0.737456 0
M  V30 3043 C 294.575 1.17489 1.23005 0
M  V30 3044 O 295.76 1.45959 1.281 0
M  V30 3045 C 292.89 2.86575 1.96194 0
M  V30 3046 C 291.844 3.96778 1.60473 0
M  V30 3047 C 291.17 4.48911 2.90487 0
M  V30 3048 C 292.47 5.15767 0.823497 0
M  V30 3049 H 294.164 2.98761 0.195453 0
M  V30 3050 H 291.71 1.43702 0.0925686 0
M  V30 3051 H 293.663 3.30739 2.61131 0
M  V30 3052 H 292.387 2.06749 2.52828 0
M  V30 3053 H 291.046 3.53286 0.978997 0
M  V30 3054 H 290.694 3.65862 3.45186 0
M  V30 3055 H 290.394 5.23265 2.67335 0
M  V30 3056 H 291.918 4.95771 3.56432 0
M  V30 3057 H 293.332 5.56549 1.37571 0
M  V30 3058 H 291.729 5.96114 0.690551 0
M  V30 3059 H 292.799 4.84574 -0.177782 0
M  V30 3060 N 294.142 -0.090211 1.57342 0
M  V30 3061 C 295.074 -1.13541 1.99101 0
M  V30 3062 C 296.087 -1.3604 0.894258 0
M  V30 3063 O 297.276 -1.34606 1.17233 0
M  V30 3064 C 294.376 -2.49001 2.29895 0
M  V30 3065 C 293.549 -2.46712 3.61182 0
M  V30 3066 C 292.608 -3.64136 3.79857 0
M  V30 3067 O 291.634 -3.46405 4.51655 0
M  V30 3068 N 292.836 -4.83802 3.20806 0
M  V30 3069 H 295.601 -0.779942 2.89373 0
M  V30 3070 H 293.162 -0.279125 1.59476 0
M  V30 3071 H 295.154 -3.26166 2.39578 0
M  V30 3072 H 293.724 -2.76619 1.45605 0
M  V30 3073 H 292.944 -1.55058 3.62423 0
M  V30 3074 H 294.232 -2.42265 4.4742 0
M  V30 3075 H 293.63 -5.01112 2.62494 0
M  V30 3076 H 292.187 -5.58543 3.35966 0
M  V30 3077 N 295.62 -1.53406 -0.361157 0
M  V30 3078 C 296.848 -1.73717 -1.12383 0
M  V30 3079 C 297.263 -0.468161 -1.82904 0
M  V30 3080 O 296.62 0.559198 -1.73722 0
M  V30 3081 C 296.671 -2.90558 -2.15078 0
M  V30 3082 O 296.392 -4.12549 -1.47428 0
M  V30 3083 C 297.893 -3.22777 -3.03858 0
M  V30 3084 H 295.113 -0.580896 -0.335858 0
M  V30 3085 H 297.657 -2.00167 -0.418728 0
M  V30 3086 H 295.812 -2.66489 -2.8118 0
M  V30 3087 H 296.226 -4.78009 -2.15887 0
M  V30 3088 H 297.7 -4.07927 -3.71887 0
M  V30 3089 H 298.177 -2.38329 -3.68912 0
M  V30 3090 H 298.783 -3.48787 -2.43367 0
M  V30 3091 N 297.098 0.621204 -1.44841 0
M  V30 3092 C 298.509 1.20298 -1.42777 0
M  V30 3093 C 298.86 1.95639 -0.148259 0
M  V30 3094 O 297.985 2.02955 0.750892 0
M  V30 3095 C 298.58 2.1882 -2.58657 0
M  V30 3096 C 297.139 2.72403 -2.59756 0
M  V30 3097 C 296.286 1.4757 -2.34773 0
M  V30 3098 H 299.237 0.411297 -1.53278 0
M  V30 3099 H 299.258 3.01607 -2.31977 0
M  V30 3100 H 298.77 1.63957 -3.51766 0
M  V30 3101 H 296.871 3.31242 -1.70615 0
M  V30 3102 H 296.984 3.17765 -3.58556 0
M  V30 3103 H 295.348 1.76051 -1.8406 0
M  V30 3104 H 296.131 0.945954 -3.3001 0
M  V30 3105 N 298.576 1.31904 0.862503 0
M  V30 3106 C 299.816 1.23324 1.63004 0
M  V30 3107 C 300.18 -0.203724 1.90916 0
M  V30 3108 O 301.381 -0.413132 2.65606 0
M  V30 3109 C 299.652 2.06116 2.91978 0
M  V30 3110 S 301.211 2.14478 3.82812 0
M  V30 3111 H 298.029 0.439117 0.559193 0
M  V30 3112 H 300.631 1.66658 1.02202 0
M  V30 3113 H 299.335 3.09593 2.69407 0
M  V30 3114 H 298.866 1.6353 3.57801 0
M  V30 3115 H 300.881 1.28855 4.79177 0
M  V30 3116 N 300.054 -1.07777 1.14986 0
M  V30 3117 C 301.284 -1.83752 0.944402 0
M  V30 3118 C 301.692 -1.8218 -0.51058 0
M  V30 3119 O 301.035 -1.22852 -1.36576 0
M  V30 3120 C 301.097 -3.32128 1.37592 0
M  V30 3121 C 300.761 -3.57425 2.84775 0
M  V30 3122 C 301.758 -3.5173 3.8286 0
M  V30 3123 C 299.443 -3.8523 3.2234 0
M  V30 3124 C 301.437 -3.73482 5.16517 0
M  V30 3125 C 299.124 -4.06634 4.56171 0
M  V30 3126 C 300.122 -4.00754 5.53069 0
M  V30 3127 O 299.81 -4.2159 6.84483 0
M  V30 3128 H 299.542 -0.58673 0.335744 0
M  V30 3129 H 302.096 -1.36982 1.53052 0
M  V30 3130 H 300.326 -3.79686 0.733165 0
M  V30 3131 H 302.015 -3.89555 1.14024 0
M  V30 3132 H 302.781 -3.30256 3.55184 0
M  V30 3133 H 298.66 -3.88923 2.47508 0
M  V30 3134 H 302.204 -3.68808 5.92137 0
M  V30 3135 H 298.101 -4.27593 4.83564 0
M  V30 3136 H 298.869 -4.38961 6.90837 0
M  V30 3137 N 301.532 -0.945985 -1.26051 0
M  V30 3138 C 302.76 -0.613025 -1.9761 0
M  V30 3139 C 303.175 0.813035 -1.70397 0
M  V30 3140 O 302.532 1.54274 -0.974979 0
M  V30 3141 C 302.583 -0.85159 -3.51326 0
M  V30 3142 O 302.304 -2.22157 -3.77595 0
M  V30 3143 C 303.805 -0.529831 -4.40122 0
M  V30 3144 H 301.025 -0.230593 -0.630133 0
M  V30 3145 H 303.569 -1.268 -1.60443 0
M  V30 3146 H 301.724 -0.243151 -3.86636 0
M  V30 3147 H 302.138 -2.2852 -4.721 0
M  V30 3148 H 303.612 -0.747348 -5.46917 0
M  V30 3149 H 304.089 0.535341 -4.35925 0
M  V30 3150 H 304.695 -1.11721 -4.10364 0
M  V30 3151 N 303.011 1.40521 -0.713556 0
M  V30 3152 C 304.422 1.83853 -0.324807 0
M  V30 3153 C 304.773 1.59667 1.14021 0
M  V30 3154 O 303.898 1.07649 1.87725 0
M  V30 3155 C 304.493 3.33751 -0.582746 0
M  V30 3156 C 303.052 3.75584 -0.247727 0
M  V30 3157 C 302.199 2.63753 -0.856121 0
M  V30 3158 H 305.15 1.29817 -0.91286 0
M  V30 3159 H 305.171 3.80194 0.152682 0
M  V30 3160 H 304.683 3.51322 -1.64908 0
M  V30 3161 H 302.784 3.63608 0.813624 0
M  V30 3162 H 302.897 4.7373 -0.715307 0
M  V30 3163 H 301.261 2.53108 -0.28432 0
M  V30 3164 H 302.044 2.84137 -1.92668 0
M  V30 3165 N 304.489 0.459591 1.5075 0
M  V30 3166 C 305.719 -0.0972338 2.06371 0
M  V30 3167 C 306.127 -1.35074 1.32483 0
M  V30 3168 O 305.47 -1.79637 0.384226 0
M  V30 3169 C 305.532 -0.462759 3.56509 0
M  V30 3170 C 305.196 0.687084 4.51805 0
M  V30 3171 C 306.193 1.56578 4.95761 0
M  V30 3172 C 303.878 0.874144 4.94635 0
M  V30 3173 C 305.872 2.61604 5.81242 0
M  V30 3174 C 303.559 1.92765 5.79901 0
M  V30 3175 C 304.557 2.79697 6.23104 0
M  V30 3176 O 304.245 3.83235 7.06673 0
M  V30 3177 H 303.977 -0.00140687 0.675999 0
M  V30 3178 H 306.531 0.644011 1.95043 0
M  V30 3179 H 304.761 -1.25703 3.65699 0
M  V30 3180 H 306.45 -0.953323 3.94546 0
M  V30 3181 H 307.216 1.4329 4.6335 0
M  V30 3182 H 303.095 0.207006 4.60535 0
M  V30 3183 H 306.639 3.29489 6.14884 0
M  V30 3184 H 302.536 2.06064 6.11725 0
M  V30 3185 H 303.304 3.80084 7.24899 0
M  V30 3186 N 305.967 -1.56429 0.191757 0
M  V30 3187 C 307.197 -2.01574 -0.452928 0
M  V30 3188 C 307.605 -1.07107 -1.55964 0
M  V30 3189 O 306.948 -0.067534 -1.83576 0
M  V30 3190 C 307.01 -3.43121 -1.07278 0
M  V30 3191 C 306.674 -4.56879 -0.105214 0
M  V30 3192 C 307.671 -5.15379 0.684149 0
M  V30 3193 C 305.356 -5.023 0.00489824 0
M  V30 3194 C 307.35 -6.17746 1.57062 0
M  V30 3195 C 305.037 -6.04511 0.894935 0
M  V30 3196 C 306.035 -6.62108 1.67637 0
M  V30 3197 O 305.723 -7.62335 2.55149 0
M  V30 3198 H 305.455 -0.665554 -0.118379 0
M  V30 3199 H 308.009 -2.03245 0.296737 0
M  V30 3200 H 306.239 -3.38425 -1.87097 0
M  V30 3201 H 307.928 -3.72093 -1.62177 0
M  V30 3202 H 308.694 -4.81157 0.609365 0
M  V30 3203 H 304.573 -4.57168 -0.593156 0
M  V30 3204 H 308.117 -6.6263 2.181 0
M  V30 3205 H 304.014 -6.38157 0.970847 0
M  V30 3206 H 304.782 -7.79741 2.48892 0
M  V30 3207 N 307.445 0.0818655 -1.57387 0
M  V30 3208 C 308.691 0.784074 -1.8703 0
M  V30 3209 C 309.024 1.77729 -0.782689 0
M  V30 3210 O 308.299 1.93384 0.208051 0
M  V30 3211 C 308.582 1.50105 -3.27323 0
M  V30 3212 C 308.435 0.524925 -4.46727 0
M  V30 3213 C 309.754 2.44843 -3.65705 0
M  V30 3214 H 306.873 0.283582 -0.680257 0
M  V30 3215 H 309.515 0.0474352 -1.89941 0
M  V30 3216 H 307.665 2.12897 -3.24972 0
M  V30 3217 H 309.337 -0.0970111 -4.61198 0
M  V30 3218 H 307.58 -0.160606 -4.33503 0
M  V30 3219 H 308.251 1.064 -5.41648 0
M  V30 3220 H 310.727 1.92135 -3.69085 0
M  V30 3221 H 309.603 2.92018 -4.64776 0
M  V30 3222 H 309.864 3.29197 -2.95096 0
M  V30 3223 N 308.923 1.53595 0.353017 0
M  V30 3224 C 309.886 1.80232 1.41594 0
M  V30 3225 C 310.886 0.673081 1.46035 0
M  V30 3226 O 312.076 0.941335 1.46576 0
M  V30 3227 C 309.208 1.93578 2.80607 0
M  V30 3228 H 310.401 2.75174 1.19244 0
M  V30 3229 H 307.954 1.44864 0.586872 0
M  V30 3230 H 308.689 1.00746 3.08254 0
M  V30 3231 H 308.474 2.75724 2.78781 0
M  V30 3232 H 309.964 2.15735 3.57558 0
M  V30 3233 N 310.401 -0.613514 1.45168 0
M  V30 3234 C 311.812 -1.19539 1.43413 0
M  V30 3235 C 312.163 -1.95558 0.158632 0
M  V30 3236 O 311.288 -2.0335 -0.740119 0
M  V30 3237 C 311.883 -2.17445 2.59813 0
M  V30 3238 C 310.442 -2.71022 2.61197 0
M  V30 3239 C 309.589 -1.46323 2.35552 0
M  V30 3240 H 312.54 -0.403163 1.53494 0
M  V30 3241 H 312.561 -3.00373 2.33574 0
M  V30 3242 H 312.073 -1.62089 3.52631 0
M  V30 3243 H 310.174 -3.30332 1.7237 0
M  V30 3244 H 310.287 -3.15859 3.60236 0
M  V30 3245 H 308.651 -1.75072 1.84992 0
M  V30 3246 H 309.434 -0.92844 3.30507 0
M  V30 3247 N 311.879 -1.3236 -0.855495 0
M  V30 3248 C 312.789 -1.23221 -1.99634 0
M  V30 3249 C 313.805 -0.145983 -1.73387 0
M  V30 3250 O 314.981 -0.366502 -1.98037 0
M  V30 3251 C 312.046 -0.954782 -3.33294 0
M  V30 3252 C 311.107 -2.12937 -3.72769 0
M  V30 3253 C 310.34 -1.86508 -5.00051 0
M  V30 3254 O 310.563 -0.807231 -5.64659 0
M  V30 3255 O 309.497 -2.72591 -5.36636 0
M  V30 3256 H 313.323 -2.19126 -2.1028 0
M  V30 3257 H 310.908 -1.12241 -0.986018 0
M  V30 3258 H 312.79 -0.816519 -4.13414 0
M  V30 3259 H 311.465 -0.0258854 -3.2369 0
M  V30 3260 H 310.372 -2.3231 -2.93228 0
M  V30 3261 H 311.705 -3.04102 -3.87018 0
M  V30 3262 N 313.357 1.07166 -1.15556 0
M  V30 3263 C 314.603 1.80065 -0.932984 0
M  V30 3264 C 314.936 1.86586 0.53845 0
M  V30 3265 O 314.211 1.35098 1.39924 0
M  V30 3266 C 314.494 3.25022 -1.55025 0
M  V30 3267 C 314.347 3.26634 -3.09242 0
M  V30 3268 C 315.666 4.22341 -1.2376 0
M  V30 3269 H 312.785 0.653697 -0.340366 0
M  V30 3270 H 315.427 1.25389 -1.4275 0
M  V30 3271 H 313.577 3.71712 -1.12972 0
M  V30 3272 H 315.249 2.88173 -3.60214 0
M  V30 3273 H 313.492 2.65539 -3.43033 0
M  V30 3274 H 314.163 4.28854 -3.47546 0
M  V30 3275 H 316.639 3.8405 -1.60139 0
M  V30 3276 H 315.515 5.22053 -1.69564 0
M  V30 3277 H 315.776 4.41828 -0.154938 0
M  V30 3278 N 314.835 0.952656 1.25548 0
M  V30 3279 C 315.765 0.489287 2.28316 0
M  V30 3280 C 316.746 -0.463359 1.63667 0
M  V30 3281 O 317.931 -0.36274 1.90782 0
M  V30 3282 C 315.061 -0.235603 3.465 0
M  V30 3283 C 314.015 0.631593 4.23314 0
M  V30 3284 C 313.341 -0.223923 5.34231 0
M  V30 3285 C 314.641 1.90871 4.86174 0
M  V30 3286 H 316.335 1.34822 2.67326 0
M  V30 3287 H 313.881 0.649728 1.28509 0
M  V30 3288 H 315.834 -0.570882 4.17515 0
M  V30 3289 H 314.558 -1.12877 3.06474 0
M  V30 3290 H 313.217 0.949929 3.54079 0
M  V30 3291 H 312.865 -1.11678 4.90446 0
M  V30 3292 H 312.565 0.35299 5.86539 0
M  V30 3293 H 314.089 -0.554214 6.0808 0
M  V30 3294 H 315.503 1.63997 5.49343 0
M  V30 3295 H 313.9 2.43112 5.4865 0
M  V30 3296 H 314.97 2.61304 4.08471 0
M  V30 3297 N 316.313 -1.40141 0.720998 0
M  V30 3298 C 317.561 -2.0039 0.262323 0
M  V30 3299 C 317.882 -1.57469 -1.15015 0
M  V30 3300 O 317.152 -0.816582 -1.78069 0
M  V30 3301 H 315.732 -0.741063 0.093996 0
M  V30 3302 H 318.394 -1.71398 0.927835 0
M  V30 3303 H 317.49 -3.10658 0.299671 0
M  V30 3304 N 317.792 -0.46758 -1.50504 0
M  V30 3305 C 319.203 -0.0116166 -1.86696 0
M  V30 3306 C 319.554 1.39202 -1.38265 0
M  V30 3307 O 318.679 2.0313 -0.746132 0
M  V30 3308 C 319.274 -0.0143044 -3.38797 0
M  V30 3309 C 317.833 0.386175 -3.74414 0
M  V30 3310 C 316.98 -0.401287 -2.74381 0
M  V30 3311 H 319.931 -0.682022 -1.43297 0
M  V30 3312 H 319.952 0.788641 -3.72237 0
M  V30 3313 H 319.464 -1.03602 -3.74016 0
M  V30 3314 H 317.565 1.41237 -3.44794 0
M  V30 3315 H 317.678 0.0899596 -4.79016 0
M  V30 3316 H 316.042 0.144536 -2.5429 0
M  V30 3317 H 316.825 -1.42244 -3.12444 0
M  V30 3318 N 319.27 1.56325 -0.20005 0
M  V30 3319 C 320.18 2.22931 0.730668 0
M  V30 3320 C 321.196 1.22997 1.23076 0
M  V30 3321 O 322.372 1.55748 1.27689 0
M  V30 3322 C 319.437 2.87948 1.93098 0
M  V30 3323 C 318.498 4.03166 1.47497 0
M  V30 3324 C 317.731 4.65073 2.61807 0
M  V30 3325 O 317.954 4.25913 3.79413 0
M  V30 3326 O 316.888 5.54452 2.34237 0
M  V30 3327 H 320.714 3.03084 0.193391 0
M  V30 3328 H 318.299 1.49371 0.0294621 0
M  V30 3329 H 320.181 3.29063 2.6324 0
M  V30 3330 H 318.856 2.10771 2.45677 0
M  V30 3331 H 317.763 3.66664 0.742201 0
M  V30 3332 H 319.096 4.82022 0.995796 0
M  V30 3333 N 320.748 -0.0735177 1.57428 0
M  V30 3334 C 321.695 -1.08756 2.0357 0
M  V30 3335 C 322.665 -1.38559 0.916 0
M  V30 3336 O 323.85 -1.49656 1.18354 0
M  V30 3337 C 320.99 -2.39657 2.48311 0
M  V30 3338 C 320.103 -2.16399 3.73892 0
M  V30 3339 C 319.238 -3.40852 4.07423 0
M  V30 3340 C 318.277 -3.1295 5.2605 0
M  V30 3341 N 317.414 -4.29729 5.55228 0
M  V30 3342 H 322.254 -0.687104 2.8997 0
M  V30 3343 H 319.791 -0.327709 1.43403 0
M  V30 3344 H 321.749 -3.16081 2.72303 0
M  V30 3345 H 320.379 -2.77508 1.64891 0
M  V30 3346 H 319.431 -1.30676 3.57251 0
M  V30 3347 H 320.743 -1.91788 4.60455 0
M  V30 3348 H 319.897 -4.25671 4.32306 0
M  V30 3349 H 318.636 -3.68537 3.19425 0
M  V30 3350 H 317.641 -2.26526 5.00965 0
M  V30 3351 H 318.866 -2.86589 6.15665 0
M  V30 3352 H 316.812 -4.57448 4.70188 0
M  V30 3353 H 316.729 -4.08385 6.36206 0
M  V30 3354 H 317.997 -5.1555 5.84661 0
M  V30 3355 N 322.226 -1.5378 -0.344866 0
M  V30 3356 C 323.456 -1.74646 -1.10374 0
M  V30 3357 C 323.864 -0.48491 -1.8288 0
M  V30 3358 O 323.207 0.553062 -1.75177 0
M  V30 3359 C 323.269 -2.87145 -2.16306 0
M  V30 3360 C 322.933 -4.26795 -1.63386 0
M  V30 3361 C 323.93 -5.08412 -1.08688 0
M  V30 3362 C 321.615 -4.73276 -1.68272 0
M  V30 3363 C 323.609 -6.34609 -0.595792 0
M  V30 3364 C 321.296 -5.99446 -1.18776 0
M  V30 3365 C 322.294 -6.79946 -0.645215 0
M  V30 3366 O 321.982 -8.03745 -0.157626 0
M  V30 3367 H 321.714 -0.587112 -0.335075 0
M  V30 3368 H 324.268 -2.01403 -0.403252 0
M  V30 3369 H 322.498 -2.55909 -2.89909 0
M  V30 3370 H 324.187 -2.95992 -2.77747 0
M  V30 3371 H 324.953 -4.73666 -1.04236 0
M  V30 3372 H 320.832 -4.10677 -2.09442 0
M  V30 3373 H 324.376 -6.97389 -0.171654 0
M  V30 3374 H 320.273 -6.33687 -1.22928 0
M  V30 3375 H 321.041 -8.18038 -0.275037 0
M  V30 3376 N 323.704 0.605807 -1.45491 0
M  V30 3377 C 324.981 1.36522 -1.40075 0
M  V30 3378 C 325.361 2.10976 -0.0722744 0
M  V30 3379 O 324.709 2.08007 0.945808 0
M  V30 3380 C 324.919 2.31056 -2.61561 0
M  V30 3381 C 326.267 2.93608 -3.06724 0
M  V30 3382 O 327.291 2.41376 -2.61946 0
M  V30 3383 O 326.15 3.88421 -3.84437 0
M  V30 3384 H 323.244 0.612248 -0.555951 0
M  V30 3385 H 325.79 0.628747 -1.57623 0
M  V30 3386 H 324.562 1.75311 -3.49831 0
M  V30 3387 H 324.185 3.12081 -2.46356 0
M  V30 3388 N 325.182 1.32811 0.848464 0
M  V30 3389 C 326.129 1.22265 1.95755 0
M  V30 3390 C 327.099 0.103413 1.65778 0
M  V30 3391 O 328.284 0.280033 1.88734 0
M  V30 3392 C 325.424 0.958014 3.31536 0
M  V30 3393 C 324.537 2.16262 3.73971 0
M  V30 3394 C 323.672 1.83295 4.98575 0
M  V30 3395 C 322.711 3.00041 5.33518 0
M  V30 3396 N 321.848 2.67125 6.49299 0
M  V30 3397 H 326.688 2.17128 2.04107 0
M  V30 3398 H 324.225 1.07982 0.998913 0
M  V30 3399 H 326.183 0.785052 4.09747 0
M  V30 3400 H 324.813 0.046159 3.22767 0
M  V30 3401 H 323.865 2.44565 2.91362 0
M  V30 3402 H 325.177 3.03572 3.95785 0
M  V30 3403 H 324.331 1.62586 5.84509 0
M  V30 3404 H 323.07 0.932078 4.7871 0
M  V30 3405 H 322.075 3.21374 4.46093 0
M  V30 3406 H 323.3 3.90869 5.55336 0
M  V30 3407 H 321.246 1.79586 6.3094 0
M  V30 3408 H 321.163 3.47965 6.71161 0
M  V30 3409 H 322.431 2.49861 7.3837 0
M  V30 3410 N 326.66 -1.06551 1.16123 0
M  V30 3411 C 327.885 -1.83544 0.965735 0
M  V30 3412 C 328.31 -1.81843 -0.481102 0
M  V30 3413 O 327.668 -1.21732 -1.34354 0
M  V30 3414 C 327.716 -3.28169 1.49457 0
M  V30 3415 O 326.82 -4.0643 0.699157 0
M  V30 3416 H 326.161 -0.568026 0.343864 0
M  V30 3417 H 328.691 -1.34362 1.54299 0
M  V30 3418 H 328.701 -3.78992 1.51092 0
M  V30 3419 H 327.376 -3.28722 2.54784 0
M  V30 3420 H 325.953 -3.65216 0.7531 0
M  V30 3421 N 328.138 -0.959301 -1.25041 0
M  V30 3422 C 329.378 -0.624343 -1.94631 0
M  V30 3423 C 329.742 0.82403 -1.73418 0
M  V30 3424 O 330.943 1.26881 -2.3697 0
M  V30 3425 C 329.214 -0.978805 -3.43736 0
M  V30 3426 S 330.773 -0.757127 -4.32219 0
M  V30 3427 H 327.591 -0.229327 -0.673001 0
M  V30 3428 H 330.193 -1.23447 -1.51595 0
M  V30 3429 H 328.897 -2.02997 -3.56679 0
M  V30 3430 H 328.428 -0.359117 -3.91757 0
M  V30 3431 H 330.443 0.369759 -4.9482 0
M  V30 3432 N 329.616 1.39756 -0.72842 0
M  V30 3433 C 330.893 1.94574 -0.200079 0
M  V30 3434 C 331.273 1.66569 1.29684 0
M  V30 3435 O 330.621 0.990326 2.05924 0
M  V30 3436 C 330.831 3.45004 -0.526608 0
M  V30 3437 C 332.179 4.21965 -0.472318 0
M  V30 3438 O 333.203 3.53173 -0.463413 0
M  V30 3439 O 332.062 5.44552 -0.461075 0
M  V30 3440 H 329.156 0.826289 -0.0342851 0
M  V30 3441 H 331.702 1.49293 -0.806829 0
M  V30 3442 H 330.474 3.58796 -1.56144 0
M  V30 3443 H 330.097 3.97449 0.109449 0
M  V30 3444 N 331.094 0.475555 1.50254 0
M  V30 3445 C 332.027 -0.362381 2.25304 0
M  V30 3446 C 333.005 -0.992393 1.28803 0
M  V30 3447 O 334.189 -1.02746 1.58036 0
M  V30 3448 C 331.316 -1.50813 3.03271 0
M  V30 3449 C 330.362 -0.995044 4.1473 0
M  V30 3450 S 331.195 0.0938436 5.35418 0
M  V30 3451 C 332.351 -1.05567 6.16933 0
M  V30 3452 H 332.584 0.274686 2.96028 0
M  V30 3453 H 330.117 0.260495 1.52187 0
M  V30 3454 H 332.075 -2.16476 3.48781 0
M  V30 3455 H 330.736 -2.11672 2.32064 0
M  V30 3456 H 329.929 -1.85293 4.68703 0
M  V30 3457 H 329.531 -0.416052 3.71679 0
M  V30 3458 H 331.823 -1.96636 6.48337 0
M  V30 3459 H 332.766 -0.555109 7.05921 0
M  V30 3460 H 333.174 -1.31151 5.49053 0
M  V30 3461 N 332.573 -1.56217 0.208337 0
M  V30 3462 C 333.819 -1.98998 -0.42086 0
M  V30 3463 C 334.174 -1.09331 -1.58317 0
M  V30 3464 O 333.467 -0.140466 -1.91084 0
M  V30 3465 C 333.661 -3.45441 -0.916797 0
M  V30 3466 C 333.49 -4.49273 0.195925 0
M  V30 3467 C 332.26 -5.00998 0.657956 0
M  V30 3468 C 334.458 -5.04294 1.00956 0
M  V30 3469 N 332.44 -5.88514 1.74712 0
M  V30 3470 C 333.811 -5.88607 1.94785 0
M  V30 3471 C 335.866 -4.86692 1.05049 0
M  V30 3472 C 334.569 -6.572 2.9237 0
M  V30 3473 C 336.595 -5.56034 2.01446 0
M  V30 3474 C 335.957 -6.40105 2.94016 0
M  V30 3475 H 332.056 -0.772574 -0.121048 0
M  V30 3476 H 334.64 -1.92101 0.317075 0
M  V30 3477 H 332.811 -3.52812 -1.62413 0
M  V30 3478 H 334.543 -3.75164 -1.51771 0
M  V30 3479 H 331.298 -4.72945 0.248912 0
M  V30 3480 H 331.722 -6.36975 2.2933 0
M  V30 3481 H 336.364 -4.21359 0.348759 0
M  V30 3482 H 334.082 -7.21723 3.63512 0
M  V30 3483 H 337.668 -5.44385 2.0527 0
M  V30 3484 H 336.548 -6.92816 3.6739 0
M  V30 3485 N 334.051 0.0651679 -1.57465 0
M  V30 3486 C 335.276 0.779605 -1.9219 0
M  V30 3487 C 335.701 1.69988 -0.805333 0
M  V30 3488 O 335.059 1.79685 0.241435 0
M  V30 3489 C 335.107 1.54364 -3.2589 0
M  V30 3490 O 334.211 2.65474 -3.1559 0
M  V30 3491 H 333.552 0.212249 -0.629163 0
M  V30 3492 H 336.082 0.0314294 -2.04576 0
M  V30 3493 H 336.092 1.92146 -3.59922 0
M  V30 3494 H 334.767 0.868457 -4.06732 0
M  V30 3495 H 333.344 2.30501 -2.93128 0
M  V30 3496 N 335.529 1.53961 0.336706 0
M  V30 3497 C 336.459 1.85417 1.41925 0
M  V30 3498 C 337.44 0.709856 1.5458 0
M  V30 3499 O 338.625 0.962396 1.68676 0
M  V30 3500 C 335.755 2.06985 2.78881 0
M  V30 3501 C 334.709 3.22813 2.81026 0
M  V30 3502 C 334.035 3.29727 4.20932 0
M  V30 3503 C 335.335 4.60767 2.45949 0
M  V30 3504 H 337.029 2.76079 1.15848 0
M  V30 3505 H 334.575 1.32839 0.555859 0
M  V30 3506 H 336.528 2.27575 3.54665 0
M  V30 3507 H 335.252 1.13061 3.06406 0
M  V30 3508 H 333.911 3.0209 2.07695 0
M  V30 3509 H 333.559 2.33385 4.45579 0
M  V30 3510 H 333.259 4.07566 4.23277 0
M  V30 3511 H 334.783 3.52536 4.98549 0
M  V30 3512 H 336.197 4.81325 3.11446 0
M  V30 3513 H 334.594 5.4106 2.59566 0
M  V30 3514 H 335.664 4.6391 1.41122 0
M  V30 3515 N 337.007 -0.598083 1.45811 0
M  V30 3516 C 338.255 -1.35413 1.50026 0
M  V30 3517 C 338.576 -1.94444 0.147177 0
M  V30 3518 O 337.846 -1.77701 -0.824571 0
M  V30 3519 H 336.426 -0.502727 0.552517 0
M  V30 3520 H 339.088 -0.701606 1.81834 0
M  V30 3521 H 338.184 -2.16871 2.2444 0
M  V30 3522 N 338.485 -1.33259 -0.841409 0
M  V30 3523 C 339.731 -1.24757 -1.59886 0
M  V30 3524 C 340.064 0.186913 -1.93298 0
M  V30 3525 O 339.339 1.12757 -1.5848 0
M  V30 3526 C 339.622 -2.12036 -2.91055 0
M  V30 3527 C 339.475 -3.63929 -2.6434 0
M  V30 3528 C 340.794 -1.9916 -3.92458 0
M  V30 3529 H 337.913 -0.454542 -0.580138 0
M  V30 3530 H 340.555 -1.63335 -0.970647 0
M  V30 3531 H 338.705 -1.79265 -3.44669 0
M  V30 3532 H 340.377 -4.06978 -2.17178 0
M  V30 3533 H 338.62 -3.85935 -1.98082 0
M  V30 3534 H 339.291 -4.20341 -3.57796 0
M  V30 3535 H 341.767 -2.27895 -3.48143 0
M  V30 3536 H 340.643 -2.62484 -4.82072 0
M  V30 3537 H 340.904 -0.963082 -4.31482 0
M  V30 3538 N 339.963 1.05934 -1.16686 0
M  V30 3539 C 341.212 1.78188 -0.945085 0
M  V30 3540 C 341.525 1.88338 0.528021 0
M  V30 3541 O 342.731 2.57258 0.867799 0
M  V30 3542 C 341.187 3.20277 -1.64167 0
M  V30 3543 C 340.795 3.18281 -3.15279 0
M  V30 3544 C 342.539 3.97039 -1.502 0
M  V30 3545 C 340.446 4.55112 -3.7766 0
M  V30 3546 H 339.376 0.667866 -0.349959 0
M  V30 3547 H 342.027 1.18794 -1.39858 0
M  V30 3548 H 340.409 3.79952 -1.11589 0
M  V30 3549 H 341.583 2.68167 -3.74731 0
M  V30 3550 H 339.898 2.55018 -3.29173 0
M  V30 3551 H 342.495 4.98194 -1.94183 0
M  V30 3552 H 342.838 4.13845 -0.451461 0
M  V30 3553 H 343.371 3.43894 -1.99954 0
M  V30 3554 H 340.11 4.43512 -4.82677 0
M  V30 3555 H 339.63 5.05406 -3.22994 0
M  V30 3556 H 341.309 5.24064 -3.79428 0
M  V30 3557 N 341.441 0.965919 1.2453 0
M  V30 3558 C 342.374 0.4393 2.23932 0
M  V30 3559 C 343.352 -0.485615 1.55179 0
M  V30 3560 O 344.536 -0.417402 1.83821 0
M  V30 3561 C 341.663 -0.366042 3.36716 0
M  V30 3562 C 340.709 0.5009 4.23548 0
M  V30 3563 S 341.542 1.94002 4.99123 0
M  V30 3564 C 342.698 1.14342 6.15367 0
M  V30 3565 H 342.931 1.28167 2.68254 0
M  V30 3566 H 340.464 0.770819 1.33782 0
M  V30 3567 H 342.422 -0.824724 4.0213 0
M  V30 3568 H 341.083 -1.18337 2.90956 0
M  V30 3569 H 340.276 -0.117341 5.03863 0
M  V30 3570 H 339.878 0.89524 3.63127 0
M  V30 3571 H 342.17 0.397572 6.76332 0
M  V30 3572 H 343.113 1.92089 6.81548 0
M  V30 3573 H 343.521 0.668579 5.60527 0
M  V30 3574 N 342.919 -1.39368 0.735821 0
M  V30 3575 C 344.149 -2.04498 0.293967 0
M  V30 3576 C 344.557 -1.55593 -1.07645 0
M  V30 3577 O 343.9 -0.716324 -1.69158 0
M  V30 3578 C 343.962 -3.58836 0.218342 0
M  V30 3579 C 343.626 -4.30721 1.52736 0
M  V30 3580 C 344.623 -4.57305 2.47322 0
M  V30 3581 C 342.308 -4.69251 1.79189 0
M  V30 3582 C 344.302 -5.21429 3.66593 0
M  V30 3583 C 341.989 -5.33104 2.98737 0
M  V30 3584 C 342.987 -5.59125 3.9226 0
M  V30 3585 O 342.675 -6.21653 5.09708 0
M  V30 3586 H 342.407 -0.664118 0.126189 0
M  V30 3587 H 344.961 -1.79385 1.00051 0
M  V30 3588 H 343.191 -3.8285 -0.544314 0
M  V30 3589 H 344.88 -4.05447 -0.191626 0
M  V30 3590 H 345.646 -4.27983 2.28156 0
M  V30 3591 H 341.525 -4.48354 1.07239 0
M  V30 3592 H 345.069 -5.41656 4.39607 0
M  V30 3593 H 340.966 -5.61846 3.17803 0
M  V30 3594 H 341.734 -6.40146 5.10054 0
M  V30 3595 N 344.397 -0.483516 -1.5 0
M  V30 3596 C 345.646 0.0689102 -2.01582 0
M  V30 3597 C 345.959 1.39655 -1.36952 0
M  V30 3598 O 347.165 2.03465 -1.79762 0
M  V30 3599 C 345.621 0.173302 -3.59483 0
M  V30 3600 C 345.229 -1.14665 -4.33077 0
M  V30 3601 C 346.973 0.677024 -4.19066 0
M  V30 3602 C 344.88 -1.00537 -5.82792 0
M  V30 3603 H 343.81 0.0295277 -0.753422 0
M  V30 3604 H 346.461 -0.620295 -1.72698 0
M  V30 3605 H 344.843 0.926569 -3.85007 0
M  V30 3606 H 346.017 -1.91184 -4.19268 0
M  V30 3607 H 344.332 -1.58244 -3.85159 0
M  V30 3608 H 346.929 0.799952 -5.28682 0
M  V30 3609 H 347.272 1.67151 -3.81269 0
M  V30 3610 H 347.805 -0.0192083 -3.97795 0
M  V30 3611 H 344.544 -1.9736 -6.25083 0
M  V30 3612 H 344.064 -0.280776 -5.99142 0
M  V30 3613 H 345.743 -0.677 -6.43448 0
M  V30 3614 N 345.875 1.56104 -0.216619 0
M  V30 3615 C 346.805 2.23063 0.690296 0
M  V30 3616 C 347.786 1.20072 1.20485 0
M  V30 3617 O 348.971 1.48643 1.24976 0
M  V30 3618 C 346.101 2.90672 1.90072 0
M  V30 3619 C 345.055 4.00092 1.5202 0
M  V30 3620 C 344.381 4.54972 2.80899 0
M  V30 3621 C 345.681 5.17398 0.71391 0
M  V30 3622 H 347.375 2.99109 0.132038 0
M  V30 3623 H 344.921 1.43866 0.0620664 0
M  V30 3624 H 346.874 3.36204 2.54057 0
M  V30 3625 H 345.598 2.12066 2.48386 0
M  V30 3626 H 344.257 3.55283 0.903839 0
M  V30 3627 H 343.905 3.73102 3.37348 0
M  V30 3628 H 343.605 5.28817 2.56176 0
M  V30 3629 H 345.129 5.0322 3.45836 0
M  V30 3630 H 346.543 5.59342 1.25735 0
M  V30 3631 H 344.94 5.97444 0.563951 0
M  V30 3632 H 346.01 4.84088 -0.280527 0
M  V30 3633 N 347.353 -0.0568162 1.57498 0
M  V30 3634 C 348.283 -1.06593 2.0775 0
M  V30 3635 C 349.264 -1.39448 0.974082 0
M  V30 3636 O 350.449 -1.48815 1.24771 0
M  V30 3637 C 347.579 -2.37509 2.5339 0
M  V30 3638 C 346.533 -2.1897 3.67745 0
M  V30 3639 C 345.859 -3.55402 3.99492 0
M  V30 3640 C 347.159 -1.59859 4.97235 0
M  V30 3641 H 348.853 -0.647706 2.9231 0
M  V30 3642 H 346.399 -0.310116 1.40621 0
M  V30 3643 H 348.352 -3.08409 2.87162 0
M  V30 3644 H 347.076 -2.8134 1.65878 0
M  V30 3645 H 345.735 -1.50508 3.3428 0
M  V30 3646 H 345.383 -3.9683 3.09088 0
M  V30 3647 H 345.083 -3.43831 4.76502 0
M  V30 3648 H 346.607 -4.27708 4.35773 0
M  V30 3649 H 348.021 -2.20642 5.29141 0
M  V30 3650 H 346.418 -1.58942 5.78669 0
M  V30 3651 H 347.488 -0.561506 4.81638 0
M  V30 3652 N 348.832 -1.54138 -0.328536 0
M  V30 3653 C 350.072 -1.73827 -1.07534 0
M  V30 3654 C 350.436 -0.498777 -1.85408 0
M  V30 3655 O 351.637 -0.572937 -2.62623 0
M  V30 3656 C 349.908 -2.97573 -1.97952 0
M  V30 3657 S 351.467 -3.38143 -2.79652 0
M  V30 3658 H 348.285 -0.611287 -0.36311 0
M  V30 3659 H 350.887 -1.92306 -0.351931 0
M  V30 3660 H 349.591 -3.85939 -1.39569 0
M  V30 3661 H 349.122 -2.81603 -2.74706 0
M  V30 3662 H 351.137 -2.93052 -4.00418 0
M  V30 3663 N 350.31 0.590341 -1.46126 0
M  V30 3664 C 351.558 1.34616 -1.50742 0
M  V30 3665 C 351.879 1.94363 -0.157486 0
M  V30 3666 O 351.149 1.78136 0.815136 0
M  V30 3667 H 349.729 0.499789 -0.555175 0
M  V30 3668 H 352.391 0.691953 -1.82203 0
M  V30 3669 H 351.487 2.15678 -2.25587 0
M  V30 3670 N 351.788 1.33704 0.83433 0
M  V30 3671 C 353.035 1.25417 1.58987 0
M  V30 3672 C 353.363 -0.178869 1.93676 0
M  V30 3673 O 352.618 -1.13723 1.59265 0
M  V30 3674 C 352.917 2.07926 2.90692 0
M  V30 3675 C 352.583 3.57066 2.75345 0
M  V30 3676 C 351.245 3.97724 2.70867 0
M  V30 3677 C 353.597 4.51817 2.59828 0
M  V30 3678 C 350.925 5.31344 2.48778 0
M  V30 3679 C 353.277 5.85604 2.39272 0
M  V30 3680 C 351.941 6.25439 2.33199 0
M  V30 3681 H 351.211 0.458934 0.581774 0
M  V30 3682 H 353.858 1.65335 0.966261 0
M  V30 3683 H 352.163 1.608 3.57282 0
M  V30 3684 H 353.86 1.98868 3.48213 0
M  V30 3685 H 350.45 3.24785 2.79665 0
M  V30 3686 H 354.634 4.21311 2.62319 0
M  V30 3687 H 349.89 5.61241 2.42526 0
M  V30 3688 H 354.064 6.58623 2.2625 0
M  V30 3689 H 351.691 7.28914 2.15843 0
M  V30 3690 N 353.266 -1.05314 1.17247 0
M  V30 3691 C 354.677 -1.59753 0.96623 0
M  V30 3692 C 355.028 -1.9005 -0.487378 0
M  V30 3693 O 354.153 -1.68126 -1.36245 0
M  V30 3694 C 354.748 -2.90249 1.74759 0
M  V30 3695 C 353.307 -3.41352 1.58606 0
M  V30 3696 C 352.454 -2.15103 1.75002 0
M  V30 3697 H 355.405 -0.881406 1.31973 0
M  V30 3698 H 355.426 -3.60097 1.22925 0
M  V30 3699 H 354.938 -2.68166 2.8055 0
M  V30 3700 H 353.039 -3.68474 0.552985 0
M  V30 3701 H 353.152 -4.16019 2.37624 0
M  V30 3702 H 351.516 -2.25804 1.17833 0
M  V30 3703 H 352.299 -1.95491 2.82202 0
M  V30 3704 N 354.744 -0.972509 -1.24016 0
M  V30 3705 C 356.155 -0.67517 -1.74064 0
M  V30 3706 C 356.506 0.808939 -1.78747 0
M  V30 3707 O 355.631 1.63286 -1.42009 0
M  V30 3708 C 356.226 -1.21889 -3.16115 0
M  V30 3709 C 354.785 -0.971358 -3.6365 0
M  V30 3710 C 353.932 -1.35134 -2.42145 0
M  V30 3711 H 356.883 -1.14727 -1.09651 0
M  V30 3712 H 356.904 -0.587489 -3.75937 0
M  V30 3713 H 356.416 -2.29906 -3.12674 0
M  V30 3714 H 354.517 0.0930686 -3.72484 0
M  V30 3715 H 354.63 -1.62039 -4.50866 0
M  V30 3716 H 352.994 -0.769751 -2.4279 0
M  V30 3717 H 353.777 -2.4411 -2.41381 0
M  V30 3718 N 356.222 1.38976 -0.743202 0
M  V30 3719 C 357.469 2.00343 -0.294752 0
M  V30 3720 C 357.797 1.58983 1.12047 0
M  V30 3721 O 357.052 0.813809 1.77977 0
M  V30 3722 C 357.351 3.55647 -0.353517 0
M  V30 3723 C 357.017 4.16685 -1.72292 0
M  V30 3724 C 355.679 4.3307 -2.09771 0
M  V30 3725 C 358.031 4.50464 -2.62168 0
M  V30 3726 C 355.359 4.80526 -3.36618 0
M  V30 3727 C 357.711 4.99332 -3.88395 0
M  V30 3728 C 356.375 5.13924 -4.25956 0
M  V30 3729 H 355.645 0.733108 -0.107857 0
M  V30 3730 H 358.292 1.6618 -0.951651 0
M  V30 3731 H 356.597 3.89884 0.386954 0
M  V30 3732 H 358.294 4.00998 0.0117269 0
M  V30 3733 H 354.884 4.04339 -1.42155 0
M  V30 3734 H 359.068 4.37416 -2.3448 0
M  V30 3735 H 354.324 4.90008 -3.65653 0
M  V30 3736 H 358.498 5.2444 -4.58187 0
M  V30 3737 H 356.125 5.50457 -5.2431 0
M  V30 3738 N 357.7 0.491464 1.49741 0
M  V30 3739 C 358.93 -0.0534375 2.06531 0
M  V30 3740 C 359.338 -1.32233 1.35318 0
M  V30 3741 O 358.681 -1.78781 0.422243 0
M  V30 3742 C 358.743 -0.387034 3.57411 0
M  V30 3743 C 358.407 0.782764 4.50246 0
M  V30 3744 C 359.404 1.67059 4.92329 0
M  V30 3745 C 357.089 0.978866 4.9267 0
M  V30 3746 C 359.083 2.73874 5.75562 0
M  V30 3747 C 356.77 2.05022 5.75682 0
M  V30 3748 C 357.768 2.92851 6.17031 0
M  V30 3749 O 357.456 3.98138 6.98385 0
M  V30 3750 H 357.188 0.0129324 0.675876 0
M  V30 3751 H 359.742 0.685238 1.93633 0
M  V30 3752 H 357.972 -1.17918 3.68283 0
M  V30 3753 H 359.661 -0.869419 3.96479 0
M  V30 3754 H 360.427 1.53086 4.60206 0
M  V30 3755 H 356.306 0.304646 4.59992 0
M  V30 3756 H 359.85 3.42458 6.07757 0
M  V30 3757 H 355.747 2.18993 6.07217 0
M  V30 3758 H 356.515 3.95374 7.16674 0
M  V30 3759 N 359.178 -1.55987 0.224894 0
M  V30 3760 C 360.403 -2.03232 -0.41369 0
M  V30 3761 C 360.828 -1.10359 -1.52323 0
M  V30 3762 O 360.186 -0.092395 -1.81064 0
M  V30 3763 C 360.234 -3.48682 -0.919405 0
M  V30 3764 O 359.338 -3.58947 -2.03054 0
M  V30 3765 H 358.679 -0.657428 -0.0931903 0
M  V30 3766 H 361.209 -2.01679 0.34451 0
M  V30 3767 H 361.219 -3.8907 -1.22835 0
M  V30 3768 H 359.894 -4.15761 -0.107339 0
M  V30 3769 H 358.471 -3.30448 -1.72796 0
M  V30 3770 N 360.656 0.0484629 -1.57525 0
M  V30 3771 C 361.604 1.07359 -2.06341 0
M  V30 3772 C 362.598 1.3865 -0.973269 0
M  V30 3773 O 363.804 1.37783 -1.15827 0
M  V30 3774 H 360.179 0.363662 -0.65822 0
M  V30 3775 H 362.15 0.635916 -2.91545 0
M  V30 3776 C 360.899 2.37198 -2.54229 0
M  V30 3777 H 360.222 2.13977 -3.37719 0
M  V30 3778 H 361.662 3.07319 -2.92115 0
M  V30 3779 C 360.121 3.04805 -1.43511 0
M  V30 3780 O 360.651 3.93848 -0.79034 0
M  V30 3781 N 358.857 2.65811 -1.17444 0
M  V30 3782 H 358.404 1.93488 -1.70059 0
M  V30 3783 H 358.362 3.11366 -0.435737 0
M  V30 3784 N 362.134 1.5431 0.320358 0
M  V30 3785 C 363.362 1.76636 1.07738 0
M  V30 3786 C 363.777 0.51649 1.81598 0
M  V30 3787 O 363.134 -0.512942 1.75143 0
M  V30 3788 C 363.185 2.96158 2.07299 0
M  V30 3789 O 362.906 4.16313 1.36438 0
M  V30 3790 C 364.407 3.3072 2.95193 0
M  V30 3791 H 361.627 0.589597 0.320339 0
M  V30 3792 H 364.171 2.01207 0.36551 0
M  V30 3793 H 362.326 2.73851 2.74016 0
M  V30 3794 H 362.74 4.83565 2.03138 0
M  V30 3795 H 364.214 4.17643 3.60941 0
M  V30 3796 H 364.691 2.48026 3.62463 0
M  V30 3797 H 365.297 3.55117 2.34034 0
M  V30 3798 N 363.613 -0.582584 1.46437 0
M  V30 3799 C 364.861 -1.33814 1.51453 0
M  V30 3800 C 365.182 -1.94277 0.167792 0
M  V30 3801 O 364.452 -1.78566 -0.805677 0
M  V30 3802 H 363.032 -0.496838 0.557818 0
M  V30 3803 H 365.694 -0.682281 1.82568 0
M  V30 3804 H 364.79 -2.14479 2.26728 0
M  V30 3805 N 365.091 -1.34144 -0.827227 0
M  V30 3806 C 366.023 -1.21206 -1.9453 0
M  V30 3807 C 367.036 -0.140176 -1.62195 0
M  V30 3808 O 368.225 -0.391647 -1.7415 0
M  V30 3809 C 365.325 -0.839141 -3.28347 0
M  V30 3810 C 364.498 -2.0051 -3.88734 0
M  V30 3811 C 363.557 -1.61128 -5.00923 0
M  V30 3812 O 362.583 -2.32726 -5.19449 0
M  V30 3813 N 363.785 -0.522958 -5.7814 0
M  V30 3814 H 366.55 -2.17525 -2.06162 0
M  V30 3815 H 364.111 -1.27043 -1.00358 0
M  V30 3816 H 366.103 -0.557556 -4.00841 0
M  V30 3817 H 364.673 0.0337293 -3.12582 0
M  V30 3818 H 363.893 -2.45166 -3.08686 0
M  V30 3819 H 365.181 -2.78498 -4.25812 0
M  V30 3820 H 364.579 0.0723518 -5.65654 0
M  V30 3821 H 363.136 -0.301089 -6.51104 0
M  V30 3822 N 366.569 1.04691 -1.17803 0
M  V30 3823 C 367.532 2.10724 -0.901545 0
M  V30 3824 C 368.532 1.6042 0.110437 0
M  V30 3825 O 369.722 1.7377 -0.122303 0
M  V30 3826 C 366.854 3.39084 -0.351409 0
M  V30 3827 H 368.047 2.36686 -1.84174 0
M  V30 3828 H 365.6 1.21015 -0.98919 0
M  V30 3829 H 366.335 3.18782 0.59569 0
M  V30 3830 H 366.12 3.76909 -1.08083 0
M  V30 3831 H 367.61 4.17227 -0.176451 0
M  V30 3832 N 368.047 0.979072 1.23499 0
M  V30 3833 C 369.296 0.642751 1.91185 0
M  V30 3834 C 369.609 -0.827253 1.77245 0
M  V30 3835 O 370.815 -1.27458 2.39722 0
M  V30 3836 C 369.271 1.09901 3.42709 0
M  V30 3837 C 368.879 2.59327 3.65313 0
M  V30 3838 C 370.623 0.836371 4.16179 0
M  V30 3839 C 368.53 2.98627 5.10467 0
M  V30 3840 H 367.46 0.236698 0.715884 0
M  V30 3841 H 370.111 1.1868 1.39955 0
M  V30 3842 H 368.493 0.48319 3.93041 0
M  V30 3843 H 369.667 3.26136 3.25533 0
M  V30 3844 H 367.982 2.83323 3.05151 0
M  V30 3845 H 370.579 1.10586 5.23139 0
M  V30 3846 H 370.922 -0.227509 4.15678 0
M  V30 3847 H 371.455 1.41371 3.71832 0
M  V30 3848 H 368.194 4.04133 5.16098 0
M  V30 3849 H 367.714 2.3651 5.51201 0
M  V30 3850 H 369.393 2.89159 5.78788 0
M  V30 3851 N 369.525 -1.3858 0.750561 0
M  V30 3852 C 370.75 -2.04997 0.314812 0
M  V30 3853 C 371.175 -1.56235 -1.04749 0
M  V30 3854 O 370.533 -0.712981 -1.66692 0
M  V30 3855 C 370.581 -3.58961 0.343415 0
M  V30 3856 O 369.685 -4.07025 -0.663628 0
M  V30 3857 H 369.026 -0.649081 0.139962 0
M  V30 3858 H 371.556 -1.77313 1.02084 0
M  V30 3859 H 371.566 -4.07542 0.193233 0
M  V30 3860 H 370.241 -3.93811 1.33738 0
M  V30 3861 H 368.818 -3.6982 -0.478307 0
M  V30 3862 N 371.003 -0.499398 -1.49478 0
M  V30 3863 C 372.414 -0.051215 -1.8663 0
M  V30 3864 C 372.765 1.36238 -1.41186 0
M  V30 3865 O 371.89 2.01502 -0.789051 0
M  V30 3866 C 372.485 -0.0861651 -3.3869 0
M  V30 3867 C 371.044 0.30667 -3.75149 0
M  V30 3868 C 370.191 -0.459397 -2.73468 0
M  V30 3869 H 373.142 -0.712264 -1.41818 0
M  V30 3870 H 373.163 0.709507 -3.73826 0
M  V30 3871 H 372.675 -1.11512 -3.71735 0
M  V30 3872 H 370.776 1.33892 -3.47712 0
M  V30 3873 H 370.889 -0.0116669 -4.79099 0
M  V30 3874 H 369.253 0.0905645 -2.54539 0
M  V30 3875 H 370.036 -1.4884 -3.09357 0
M  V30 3876 N 372.481 1.55866 -0.233164 0
M  V30 3877 C 373.729 1.9821 0.394593 0
M  V30 3878 C 374.05 1.12234 1.59463 0
M  V30 3879 O 373.32 0.201981 1.94856 0
M  V30 3880 H 371.9 0.732034 0.148778 0
M  V30 3881 H 374.562 1.92107 -0.32876 0
M  V30 3882 H 373.658 3.03845 0.713063 0
M  V30 3883 N 373.959 -0.0401083 1.57549 0
M  V30 3884 C 374.892 -1.07689 2.01192 0
M  V30 3885 C 375.87 -1.358 0.894273 0
M  V30 3886 O 377.054 -1.48642 1.15921 0
M  V30 3887 C 374.181 -2.41418 2.3756 0
M  V30 3888 C 373.227 -2.29237 3.59656 0
M  V30 3889 S 374.06 -1.65628 5.09242 0
M  V30 3890 C 375.216 -3.0087 5.48843 0
M  V30 3891 H 375.449 -0.705108 2.88817 0
M  V30 3892 H 372.982 -0.249724 1.52367 0
M  V30 3893 H 374.94 -3.18329 2.59186 0
M  V30 3894 H 373.601 -2.75747 1.50407 0
M  V30 3895 H 372.794 -3.27932 3.82722 0
M  V30 3896 H 372.396 -1.60469 3.37825 0
M  V30 3897 H 374.688 -3.97201 5.48851 0
M  V30 3898 H 375.631 -2.82549 6.49286 0
M  V30 3899 H 376.039 -3.02934 4.76331 0
M  V30 3900 N 375.437 -1.54477 -0.31217 0
M  V30 3901 C 376.384 -1.84655 -1.38461 0
M  V30 3902 C 377.354 -0.694536 -1.50882 0
M  V30 3903 O 378.539 -0.942081 -1.6592 0
M  V30 3904 C 375.679 -2.0896 -2.74645 0
M  V30 3905 C 374.792 -3.36618 -2.70763 0
M  V30 3906 C 373.927 -3.50824 -3.98868 0
M  V30 3907 C 372.966 -4.72315 -3.89339 0
M  V30 3908 N 372.103 -4.83387 -5.09197 0
M  V30 3909 H 376.943 -2.76142 -1.12026 0
M  V30 3910 H 374.48 -1.36748 -0.542065 0
M  V30 3911 H 376.438 -2.21045 -3.53829 0
M  V30 3912 H 375.068 -1.20752 -2.99364 0
M  V30 3913 H 374.12 -3.33211 -1.83506 0
M  V30 3914 H 375.432 -4.25917 -2.59608 0
M  V30 3915 H 374.586 -3.62513 -4.86486 0
M  V30 3916 H 373.325 -2.59638 -4.12843 0
M  V30 3917 H 372.33 -4.6067 -3.00105 0
M  V30 3918 H 373.555 -5.64897 -3.76919 0
M  V30 3919 H 371.501 -3.9512 -5.23657 0
M  V30 3920 H 371.418 -5.66669 -5.00422 0
M  V30 3921 H 372.686 -4.9942 -5.98498 0
M  V30 3922 N 376.915 0.57481 -1.46744 0
M  V30 3923 C 378.331 0.898981 -1.31873 0
M  V30 3924 C 378.531 1.99313 -0.29605 0
M  V30 3925 O 377.587 2.50728 0.298621 0
M  V30 3926 C 378.9 1.30886 -2.7072 0
M  V30 3927 C 380.448 1.42127 -2.78871 0
M  V30 3928 C 380.923 1.86478 -4.18318 0
M  V30 3929 N 382.414 1.93658 -4.20774 0
M  V30 3930 C 383.149 2.29267 -5.2557 0
M  V30 3931 N 382.645 2.63612 -6.40688 0
M  V30 3932 N 384.438 2.29889 -5.1294 0
M  V30 3933 H 376.589 -0.147839 -2.11885 0
M  V30 3934 H 378.852 -0.00347013 -0.947994 0
M  V30 3935 H 378.558 0.578853 -3.46904 0
M  V30 3936 H 378.432 2.26874 -3.01343 0
M  V30 3937 H 380.819 2.14213 -2.0297 0
M  V30 3938 H 380.9 0.443705 -2.51922 0
M  V30 3939 H 380.544 1.14968 -4.94717 0
M  V30 3940 H 380.474 2.85207 -4.42679 0
M  V30 3941 H 382.965 1.69574 -3.37718 0
M  V30 3942 H 383.278 2.89759 -7.16421 0
M  V30 3943 H 381.623 2.61232 -6.44036 0
M  V30 3944 H 384.814 2.02485 -4.22039 0
M  V30 3945 H 384.987 2.57312 -5.94722 0
M  V30 3946 N 378.394 1.34581 0.820102 0
M  V30 3947 C 379.81 1.14325 1.11364 0
M  V30 3948 C 380.01 -0.0533648 2.01429 0
M  V30 3949 O 379.066 -0.728044 2.41776 0
M  V30 3950 C 380.379 2.43983 1.75764 0
M  V30 3951 C 381.927 2.50065 1.88246 0
M  V30 3952 C 382.402 3.79732 2.56061 0
M  V30 3953 N 383.893 3.80908 2.63558 0
M  V30 3954 C 384.628 4.77961 3.16766 0
M  V30 3955 N 384.124 5.85397 3.70517 0
M  V30 3956 N 385.917 4.65413 3.15194 0
M  V30 3957 H 378.068 2.11246 0.221096 0
M  V30 3958 H 380.331 0.934289 0.160649 0
M  V30 3959 H 380.037 3.31651 1.1705 0
M  V30 3960 H 379.911 2.57531 2.75604 0
M  V30 3961 H 382.298 1.62834 2.46108 0
M  V30 3962 H 382.379 2.40442 0.873006 0
M  V30 3963 H 382.023 4.67354 1.98853 0
M  V30 3964 H 381.953 3.86639 3.57516 0
M  V30 3965 H 384.444 3.03274 2.25463 0
M  V30 3966 H 384.757 6.55463 4.09376 0
M  V30 3967 H 383.102 5.89107 3.68752 0
M  V30 3968 H 386.293 3.80627 2.72471 0
M  V30 3969 H 386.466 5.41216 3.56356 0
M  V30 3970 N 379.872 -1.04064 1.18357 0
M  V30 3971 C 381.121 -1.76662 0.973313 0
M  V30 3972 C 381.434 -1.89154 -0.497991 0
M  V30 3973 O 382.64 -2.58606 -0.826762 0
M  V30 3974 C 381.096 -3.17624 1.69242 0
M  V30 3975 C 380.704 -3.13225 3.20303 0
M  V30 3976 C 382.448 -3.946 1.56497 0
M  V30 3977 C 380.355 -4.49046 3.84853 0
M  V30 3978 H 379.285 -0.662214 0.36054 0
M  V30 3979 H 381.936 -1.16553 1.41731 0
M  V30 3980 H 380.318 -3.78129 1.1762 0
M  V30 3981 H 381.492 -2.62172 3.78949 0
M  V30 3982 H 379.807 -2.49749 3.33189 0
M  V30 3983 H 382.404 -4.95042 2.02084 0
M  V30 3984 H 382.747 -4.13074 0.517243 0
M  V30 3985 H 383.28 -3.4067 2.05399 0
M  V30 3986 H 380.019 -4.35777 4.89672 0
M  V30 3987 H 379.539 -5.00203 3.30994 0
M  V30 3988 H 381.218 -5.17961 3.87718 0
M  V30 3989 N 381.35 -0.985608 -1.22978 0
M  V30 3990 C 382.766 -0.695104 -1.43668 0
M  V30 3991 C 382.966 0.736866 -1.87543 0
M  V30 3992 O 382.022 1.50868 -2.02473 0
M  V30 3993 C 383.335 -1.69447 -2.48412 0
M  V30 3994 C 384.883 -1.70909 -2.62219 0
M  V30 3995 C 385.358 -2.6969 -3.70178 0
M  V30 3996 N 386.849 -2.6824 -3.77626 0
M  V30 3997 C 387.584 -3.41339 -4.60733 0
M  V30 3998 N 387.08 -4.24015 -5.4789 0
M  V30 3999 N 388.873 -3.30079 -4.54977 0
M  V30 4000 H 381.024 -1.91054 -0.928016 0
M  V30 4001 H 383.287 -0.823553 -0.469536 0
M  V30 4002 H 382.993 -2.7188 -2.23102 0
M  V30 4003 H 382.867 -1.48147 -3.46889 0
M  V30 4004 H 385.254 -0.691785 -2.86877 0
M  V30 4005 H 385.335 -1.96276 -1.6404 0
M  V30 4006 H 384.979 -3.71566 -3.46268 0
M  V30 4007 H 384.909 -2.41595 -4.67909 0
M  V30 4008 H 387.4 -2.08243 -3.15346 0
M  V30 4009 H 387.713 -4.76636 -6.08308 0
M  V30 4010 H 386.058 -4.28104 -5.47496 0
M  V30 4011 H 389.249 -2.64937 -3.85909 0
M  V30 4012 H 389.422 -3.87308 -5.19516 0
M  V30 4013 N 382.828 1.3818 -0.7579 0
M  V30 4014 C 383.758 2.33027 -0.148597 0
M  V30 4015 C 384.739 1.55085 0.69875 0
M  V30 4016 O 385.924 1.83384 0.639053 0
M  V30 4017 C 383.054 3.3928 0.742034 0
M  V30 4018 C 382.008 4.28 -0.00291946 0
M  V30 4019 C 381.334 5.25146 1.00625 0
M  V30 4020 C 382.634 5.08938 -1.17385 0
M  V30 4021 H 384.328 2.84231 -0.940909 0
M  V30 4022 H 381.874 1.36659 -0.453908 0
M  V30 4023 H 383.827 4.046 1.17799 0
M  V30 4024 H 382.551 2.86569 1.56671 0
M  V30 4025 H 381.21 3.64192 -0.419504 0
M  V30 4026 H 380.858 4.68721 1.8251 0
M  V30 4027 H 380.558 5.85361 0.512428 0
M  V30 4028 H 382.082 5.93342 1.44143 0
M  V30 4029 H 383.496 5.67474 -0.815224 0
M  V30 4030 H 381.893 5.7841 -1.59882 0
M  V30 4031 H 382.963 4.42424 -1.98468 0
M  V30 4032 N 384.306 0.507319 1.49211 0
M  V30 4033 C 385.554 -0.0348839 2.0207 0
M  V30 4034 C 385.875 -1.36898 1.38866 0
M  V30 4035 O 385.145 -1.88133 0.546151 0
M  V30 4036 H 383.725 -0.0158812 0.746831 0
M  V30 4037 H 386.387 0.665998 1.83168 0
M  V30 4038 H 385.483 -0.159917 3.1169 0
M  V30 4039 N 385.784 -1.5574 0.241426 0
M  V30 4040 C 386.716 -2.18469 -0.693091 0
M  V30 4041 C 387.729 -1.15942 -1.14286 0
M  V30 4042 O 388.918 -1.42832 -1.07058 0
M  V30 4043 C 386.018 -2.7696 -1.95311 0
M  V30 4044 C 385.191 -4.04853 -1.65568 0
M  V30 4045 C 384.25 -4.47715 -2.76474 0
M  V30 4046 O 383.276 -5.14205 -2.44094 0
M  V30 4047 N 384.478 -4.15044 -4.05855 0
M  V30 4048 H 387.243 -2.99292 -0.156388 0
M  V30 4049 H 384.804 -1.61784 0.0611752 0
M  V30 4050 H 386.796 -3.02594 -2.68736 0
M  V30 4051 H 385.366 -2.00326 -2.39975 0
M  V30 4052 H 384.586 -3.86865 -0.756886 0
M  V30 4053 H 385.874 -4.88246 -1.43153 0
M  V30 4054 H 385.272 -3.61654 -4.34998 0
M  V30 4055 H 383.829 -4.45526 -4.75762 0
M  V30 4056 N 387.262 0.0317525 -1.57568 0
M  V30 4057 C 388.492 0.733884 -1.93126 0
M  V30 4058 C 388.9 1.69563 -0.839352 0
M  V30 4059 O 388.243 1.82681 0.193175 0
M  V30 4060 C 388.305 1.54798 -3.24465 0
M  V30 4061 C 387.969 0.751304 -4.50782 0
M  V30 4062 C 388.966 0.0527632 -5.19873 0
M  V30 4063 C 386.651 0.706639 -4.97305 0
M  V30 4064 C 388.645 -0.679774 -6.33765 0
M  V30 4065 C 386.332 -0.0296449 -6.11093 0
M  V30 4066 C 387.33 -0.721614 -6.79177 0
M  V30 4067 O 387.018 -1.44595 -7.90789 0
M  V30 4068 H 386.75 0.211459 -0.642076 0
M  V30 4069 H 389.304 -0.00585615 -2.05399 0
M  V30 4070 H 387.534 2.33147 -3.08512 0
M  V30 4071 H 389.223 2.13247 -3.4537 0
M  V30 4072 H 389.989 0.0783188 -4.84937 0
M  V30 4073 H 385.868 1.23474 -4.44157 0
M  V30 4074 H 389.412 -1.22042 -6.86842 0
M  V30 4075 H 385.309 -0.0571331 -6.45475 0
M  V30 4076 H 386.077 -1.35935 -8.07133 0
M  V30 4077 N 388.74 1.54641 0.303973 0
M  V30 4078 C 389.988 1.73437 1.0375 0
M  V30 4079 C 390.309 0.521449 1.87899 0
M  V30 4080 O 389.579 -0.46432 1.90318 0
M  V30 4081 H 388.159 0.639518 0.386039 0
M  V30 4082 H 390.821 1.91988 0.335675 0
M  V30 4083 H 389.917 2.62235 1.69231 0
M  V30 4084 N 390.218 -0.567019 1.47046 0
M  V30 4085 C 391.465 -1.32462 1.53167 0
M  V30 4086 C 391.793 -1.93571 0.189841 0
M  V30 4087 O 391.048 -1.77865 -0.816243 0
M  V30 4088 C 391.347 -2.4623 2.59047 0
M  V30 4089 C 391.013 -2.03014 4.02612 0
M  V30 4090 C 389.675 -1.90944 4.41694 0
M  V30 4091 C 392.027 -1.69895 4.92732 0
M  V30 4092 C 389.355 -1.44035 5.68745 0
M  V30 4093 C 391.707 -1.2446 6.20236 0
M  V30 4094 C 390.371 -1.10979 6.5821 0
M  V30 4095 H 389.641 -0.484713 0.560477 0
M  V30 4096 H 392.288 -0.636888 1.80599 0
M  V30 4097 H 390.593 -3.20517 2.25335 0
M  V30 4098 H 392.29 -3.04427 2.61008 0
M  V30 4099 H 388.88 -2.13348 3.71726 0
M  V30 4100 H 393.064 -1.78098 4.63244 0
M  V30 4101 H 388.32 -1.32254 5.96925 0
M  V30 4102 H 392.494 -0.978924 6.89485 0
M  V30 4103 H 390.121 -0.744078 7.5655 0
M  V30 4104 N 391.696 -1.35014 -0.812953 0
M  V30 4105 C 393.107 -1.25035 -1.38648 0
M  V30 4106 C 393.458 0.119967 -1.95833 0
M  V30 4107 O 392.583 1.02069 -1.90816 0
M  V30 4108 C 393.178 -2.26394 -2.52054 0
M  V30 4109 C 391.737 -2.20175 -3.05287 0
M  V30 4110 C 390.884 -2.12451 -1.78213 0
M  V30 4111 H 393.835 -1.46235 -0.616516 0
M  V30 4112 H 393.856 -1.88672 -3.30429 0
M  V30 4113 H 393.368 -3.26116 -2.10404 0
M  V30 4114 H 391.469 -1.23841 -3.51417 0
M  V30 4115 H 391.582 -3.11863 -3.63701 0
M  V30 4116 H 389.946 -1.58328 -1.9951 0
M  V30 4117 H 390.729 -3.14024 -1.38723 0
M  V30 4118 N 393.175 1.03435 -1.18907 0
M  V30 4119 C 394.123 2.13703 -0.918353 0
M  V30 4120 C 395.117 1.68947 0.123767 0
M  V30 4121 O 396.323 1.79983 -0.0249701 0
M  V30 4122 H 392.698 0.698112 -0.279542 0
M  V30 4123 H 394.669 2.33731 -1.85506 0
M  V30 4124 C 393.418 3.44542 -0.467532 0
M  V30 4125 H 392.741 3.79394 -1.26095 0
M  V30 4126 H 394.181 4.22812 -0.317164 0
M  V30 4127 C 392.64 3.26829 0.817588 0
M  V30 4128 O 393.17 3.54975 1.88031 0
M  V30 4129 N 391.376 2.80139 0.772677 0
M  V30 4130 H 390.923 2.57434 -0.0923883 0
M  V30 4131 H 390.881 2.68668 1.63294 0
M  V30 4132 N 394.653 0.992116 1.22453 0
M  V30 4133 C 396.064 0.702776 1.72968 0
M  V30 4134 C 396.415 -0.780399 1.80012 0
M  V30 4135 O 395.54 -1.61007 1.44589 0
M  V30 4136 C 396.135 1.26903 3.14135 0
M  V30 4137 C 394.694 1.02909 3.62059 0
M  V30 4138 C 393.841 1.38969 2.39964 0
M  V30 4139 H 396.792 1.16457 1.07812 0
M  V30 4140 H 396.813 0.647223 3.74955 0
M  V30 4141 H 396.325 2.34851 3.08977 0
M  V30 4142 H 394.426 -0.0337979 3.72585 0
M  V30 4143 H 394.539 1.69191 4.48231 0
M  V30 4144 H 392.903 0.808279 2.41535 0
M  V30 4145 H 393.686 2.4792 2.37467 0
M  V30 4146 N 396.131 -1.37776 0.765217 0
M  V30 4147 C 397.041 -2.34135 0.147666 0
M  V30 4148 C 398.057 -1.59854 -0.687215 0
M  V30 4149 O 399.233 -1.91983 -0.608659 0
M  V30 4150 C 396.298 -3.3901 -0.72617 0
M  V30 4151 C 395.359 -4.2912 0.124417 0
M  V30 4152 C 394.592 -5.28986 -0.707807 0
M  V30 4153 O 394.815 -5.36205 -1.94525 0
M  V30 4154 O 393.749 -6.01779 -0.12046 0
M  V30 4155 H 397.575 -2.88664 0.943758 0
M  V30 4156 H 395.16 -1.39824 0.526277 0
M  V30 4157 H 397.042 -4.03195 -1.22524 0
M  V30 4158 H 395.717 -2.86819 -1.50056 0
M  V30 4159 H 394.624 -3.68057 0.669696 0
M  V30 4160 H 395.957 -4.84598 0.861736 0
M  V30 4161 N 397.609 -0.515225 -1.4894 0
M  V30 4162 C 398.855 0.016187 -2.03394 0
M  V30 4163 C 399.21 1.33377 -1.38666 0
M  V30 4164 O 398.503 1.84461 -0.518141 0
M  V30 4165 C 398.697 0.210595 -3.56779 0
M  V30 4166 C 398.526 -1.08659 -4.36375 0
M  V30 4167 C 397.296 -1.64237 -4.77864 0
M  V30 4168 C 399.494 -1.9935 -4.74093 0
M  V30 4169 N 397.476 -2.88398 -5.41941 0
M  V30 4170 C 398.847 -3.08088 -5.38035 0
M  V30 4171 C 400.902 -1.99856 -4.56029 0
M  V30 4172 C 399.605 -4.17377 -5.85823 0
M  V30 4173 C 401.631 -3.08129 -5.04787 0
M  V30 4174 C 400.993 -4.15586 -5.68742 0
M  V30 4175 H 397.092 -0.0352107 -0.781207 0
M  V30 4176 H 399.676 -0.693237 -1.8194 0
M  V30 4177 H 397.847 0.889088 -3.78087 0
M  V30 4178 H 399.579 0.740287 -3.97872 0
M  V30 4179 H 396.334 -1.18566 -4.58518 0
M  V30 4180 H 396.758 -3.51572 -5.78555 0
M  V30 4181 H 401.4 -1.18079 -4.05977 0
M  V30 4182 H 399.118 -4.99943 -6.34888 0
M  V30 4183 H 402.704 -3.09557 -4.92611 0
M  V30 4184 H 401.584 -4.97987 -6.05787 0
M  V30 4185 N 399.087 1.5561 -0.249682 0
M  V30 4186 C 400.312 2.03865 0.381305 0
M  V30 4187 C 400.737 1.12769 1.50548 0
M  V30 4188 O 400.095 0.121189 1.80895 0
M  V30 4189 C 400.143 3.50101 0.863816 0
M  V30 4190 O 399.247 3.62132 1.97318 0
M  V30 4191 H 398.588 0.658827 0.0827194 0
M  V30 4192 H 401.118 2.01105 -0.376552 0
M  V30 4193 H 401.128 3.90975 1.1663 0
M  V30 4194 H 399.803 4.1588 0.0411816 0
M  V30 4195 H 398.38 3.33155 1.67517 0
M  V30 4196 N 400.565 -0.0233959 1.57583 0
M  V30 4197 C 401.475 -1.03907 2.10334 0
M  V30 4198 C 402.491 -1.39257 1.04323 0
M  V30 4199 O 403.667 -1.48462 1.36091 0
M  V30 4200 C 400.732 -2.31938 2.57693 0
M  V30 4201 C 399.793 -2.03117 3.78209 0
M  V30 4202 C 399.026 -3.25043 4.233 0
M  V30 4203 O 399.249 -4.35916 3.67876 0
M  V30 4204 O 398.183 -3.10411 5.15683 0
M  V30 4205 H 402.009 -0.620748 2.97288 0
M  V30 4206 H 399.594 -0.240743 1.47448 0
M  V30 4207 H 401.476 -3.07196 2.88458 0
M  V30 4208 H 400.151 -2.73055 1.73847 0
M  V30 4209 H 399.058 -1.25408 3.52454 0
M  V30 4210 H 400.391 -1.66852 4.63056 0
M  V30 4211 N 402.043 -1.548 -0.295768 0
M  V30 4212 C 403.289 -1.74588 -1.03184 0
M  V30 4213 C 403.622 -0.532962 -1.86744 0
M  V30 4214 O 402.897 0.469872 -1.88739 0
M  V30 4215 C 403.18 -3.03791 -1.93347 0
M  V30 4216 C 403.033 -4.35392 -1.12933 0
M  V30 4217 C 404.352 -3.28892 -2.92435 0
M  V30 4218 H 401.471 -0.635221 -0.373715 0
M  V30 4219 H 404.113 -1.87519 -0.30606 0
M  V30 4220 H 402.263 -2.92898 -2.55232 0
M  V30 4221 H 403.935 -4.58211 -0.532943 0
M  V30 4222 H 402.178 -4.31642 -0.432168 0
M  V30 4223 H 402.849 -5.22074 -1.79284 0
M  V30 4224 H 405.325 -3.39429 -2.4068 0
M  V30 4225 H 404.201 -4.20603 -3.52682 0
M  V30 4226 H 404.462 -2.47437 -3.6637 0
M  V30 4227 N 403.521 0.559213 -1.47345 0
M  V30 4228 C 404.746 1.34676 -1.57725 0
M  V30 4229 C 405.171 1.86723 -0.227164 0
M  V30 4230 O 404.529 1.6286 0.796642 0
M  V30 4231 C 404.577 2.49399 -2.60447 0
M  V30 4232 O 403.681 3.51567 -2.15578 0
M  V30 4233 H 403.022 0.400115 -0.52991 0
M  V30 4234 H 405.552 0.676009 -1.93109 0
M  V30 4235 H 405.562 2.95996 -2.80803 0
M  V30 4236 H 404.237 2.10873 -3.58477 0
M  V30 4237 H 402.814 3.11289 -2.05313 0
M  V30 4238 N 404.999 1.35443 0.805782 0
M  V30 4239 C 405.909 1.30546 1.94923 0
M  V30 4240 C 406.925 0.210233 1.72725 0
M  V30 4241 O 408.101 0.43975 1.9654 0
M  V30 4242 C 405.166 1.07782 3.29521 0
M  V30 4243 C 404.227 2.26625 3.64609 0
M  V30 4244 C 403.46 2.04938 4.92784 0
M  V30 4245 O 403.683 1.01624 5.61274 0
M  V30 4246 O 402.617 2.9232 5.26149 0
M  V30 4247 H 406.443 2.26779 2.02002 0
M  V30 4248 H 404.028 1.15823 0.943682 0
M  V30 4249 H 405.91 0.969392 4.10098 0
M  V30 4250 H 404.585 0.146003 3.23371 0
M  V30 4251 H 403.492 2.43033 2.84404 0
M  V30 4252 H 404.825 3.18257 3.75464 0
M  V30 4253 N 406.477 -1.02803 1.19454 0
M  V30 4254 C 407.754 -1.73299 0.907013 0
M  V30 4255 C 408.134 -2.02772 -0.587086 0
M  V30 4256 O 407.482 -1.68304 -1.54551 0
M  V30 4257 C 407.692 -3.00912 1.76785 0
M  V30 4258 C 409.04 -3.74403 2.00268 0
M  V30 4259 O 410.064 -3.10841 1.73943 0
M  V30 4260 O 408.923 -4.88675 2.4466 0
M  V30 4261 H 406.017 -0.754727 0.338106 0
M  V30 4262 H 408.563 -1.08754 1.30271 0
M  V30 4263 H 407.335 -2.75366 2.7801 0
M  V30 4264 H 406.958 -3.73197 1.37149 0
M  V30 4265 N 407.956 -0.998596 -1.21925 0
M  V30 4266 C 408.919 -0.558679 -2.22287 0
M  V30 4267 C 409.919 0.361525 -1.56683 0
M  V30 4268 O 411.109 0.152695 -1.73529 0
M  V30 4269 C 408.241 0.18661 -3.40389 0
M  V30 4270 H 409.434 -1.4463 -2.62721 0
M  V30 4271 H 406.987 -0.786413 -1.35075 0
M  V30 4272 H 407.722 1.08996 -3.05435 0
M  V30 4273 H 407.507 -0.474188 -3.89222 0
M  V30 4274 H 408.997 0.482367 -4.14805 0
M  V30 4275 N 409.434 1.37368 -0.772513 0
M  V30 4276 C 410.381 2.30262 -0.157488 0
M  V30 4277 C 411.351 1.51137 0.688965 0
M  V30 4278 O 412.536 1.79704 0.641168 0
M  V30 4279 C 409.676 3.37611 0.715045 0
M  V30 4280 C 408.789 4.31746 -0.148098 0
M  V30 4281 C 407.924 5.26171 0.729213 0
M  V30 4282 C 406.963 6.11948 -0.136418 0
M  V30 4283 N 406.1 6.98613 0.698914 0
M  V30 4284 H 410.94 2.82277 -0.955179 0
M  V30 4285 H 408.477 1.38957 -0.482631 0
M  V30 4286 H 410.435 3.98479 1.23575 0
M  V30 4287 H 409.065 2.86959 1.47833 0
M  V30 4288 H 408.117 3.72178 -0.786613 0
M  V30 4289 H 409.429 4.92084 -0.81579 0
M  V30 4290 H 408.583 5.92247 1.31637 0
M  V30 4291 H 407.322 4.66246 1.43059 0
M  V30 4292 H 406.327 5.4485 -0.736102 0
M  V30 4293 H 407.552 6.73945 -0.835134 0
M  V30 4294 H 405.498 6.41215 1.38489 0
M  V30 4295 H 405.415 7.55948 0.0885358 0
M  V30 4296 H 406.683 7.69077 1.27044 0
M  V30 4297 N 410.912 0.523116 1.48665 0
M  V30 4298 C 411.844 -0.280421 2.27478 0
M  V30 4299 C 412.857 -0.910694 1.34945 0
M  V30 4300 O 414.046 -0.790295 1.60052 0
M  V30 4301 C 411.146 -1.41171 3.08097 0
M  V30 4302 C 410.319 -0.884642 4.28361 0
M  V30 4303 C 409.378 -1.89622 4.90846 0
M  V30 4304 O 408.404 -1.4559 5.50265 0
M  V30 4305 N 409.606 -3.22801 4.82472 0
M  V30 4306 H 412.371 0.395481 2.97079 0
M  V30 4307 H 409.932 0.357018 1.57915 0
M  V30 4308 H 411.924 -2.08645 3.4677 0
M  V30 4309 H 410.494 -1.99139 2.40961 0
M  V30 4310 H 409.714 -0.0341177 3.94185 0
M  V30 4311 H 411.002 -0.511268 5.06225 0
M  V30 4312 H 410.4 -3.61246 4.35336 0
M  V30 4313 H 408.957 -3.85927 5.25265 0
M  V30 4314 N 412.39 -1.55475 0.257931 0
M  V30 4315 C 413.32 -2.24815 -0.630912 0
M  V30 4316 C 414.301 -1.23224 -1.17259 0
M  V30 4317 O 415.486 -1.51904 -1.20991 0
M  V30 4318 C 412.616 -2.95609 -1.82298 0
M  V30 4319 C 411.57 -4.03982 -1.41359 0
M  V30 4320 C 410.896 -4.6226 -2.68738 0
M  V30 4321 C 412.196 -5.19109 -0.57648 0
M  V30 4322 H 413.89 -2.99354 -0.0526878 0
M  V30 4323 H 411.436 -1.4398 -0.023901 0
M  V30 4324 H 413.389 -3.42822 -2.45054 0
M  V30 4325 H 412.113 -2.18577 -2.42676 0
M  V30 4326 H 410.772 -3.57555 -0.809324 0
M  V30 4327 H 410.42 -3.81915 -3.27338 0
M  V30 4328 H 410.12 -5.35424 -2.42065 0
M  V30 4329 H 411.644 -5.12212 -3.32372 0
M  V30 4330 H 413.058 -5.62479 -1.10861 0
M  V30 4331 H 411.455 -5.98729 -0.405351 0
M  V30 4332 H 412.525 -4.83174 0.408776 0
M  V30 4333 N 413.868 0.0150385 -1.57593 0
M  V30 4334 C 415.117 0.702115 -1.89085 0
M  V30 4335 C 415.43 1.75764 -0.858277 0
M  V30 4336 O 416.636 2.49829 -1.0629 0
M  V30 4337 C 415.092 1.29992 -3.35604 0
M  V30 4338 C 414.7 0.280007 -4.47124 0
M  V30 4339 C 416.444 1.96606 -3.76227 0
M  V30 4340 C 414.351 0.886949 -5.84711 0
M  V30 4341 H 413.281 0.265997 -0.705522 0
M  V30 4342 H 415.932 -0.0430408 -1.8345 0
M  V30 4343 H 414.314 2.09525 -3.36029 0
M  V30 4344 H 415.488 -0.489631 -4.58191 0
M  V30 4345 H 413.803 -0.284835 -4.15425 0
M  V30 4346 H 416.4 2.42893 -4.76347 0
M  V30 4347 H 416.743 2.79024 -3.08952 0
M  V30 4348 H 417.276 1.23828 -3.78036 0
M  V30 4349 H 414.015 0.101876 -6.55421 0
M  V30 4350 H 413.535 1.6261 -5.77337 0
M  V30 4351 H 415.214 1.39011 -6.3189 0
M  V30 4352 N 415.346 1.54954 0.287554 0
M  V30 4353 C 416.762 1.46469 0.633964 0
M  V30 4354 C 416.962 0.666865 1.90145 0
M  V30 4355 O 416.018 0.179906 2.51858 0
M  V30 4356 C 417.331 2.90556 0.774454 0
M  V30 4357 C 418.879 3.00681 0.869462 0
M  V30 4358 C 419.354 4.45993 1.04184 0
M  V30 4359 N 420.845 4.4976 1.10772 0
M  V30 4360 C 421.58 5.59393 1.25964 0
M  V30 4361 N 421.076 6.78923 1.37968 0
M  V30 4362 N 422.869 5.47107 1.28959 0
M  V30 4363 H 415.02 2.05288 -0.545041 0
M  V30 4364 H 417.283 0.930305 -0.182308 0
M  V30 4365 H 416.989 3.51594 -0.086207 0
M  V30 4366 H 416.863 3.38743 1.6593 0
M  V30 4367 H 419.25 2.39749 1.7206 0
M  V30 4368 H 419.331 2.55769 -0.0396831 0
M  V30 4369 H 418.975 5.07524 0.195422 0
M  V30 4370 H 418.905 4.88548 1.96542 0
M  V30 4371 H 421.396 3.63651 1.02794 0
M  V30 4372 H 421.709 7.58231 1.49353 0
M  V30 4373 H 420.054 6.81763 1.34999 0
M  V30 4374 H 423.245 4.52668 1.19202 0
M  V30 4375 H 423.418 6.32595 1.40455 0
M  V30 4376 N 416.824 -0.551391 1.4764 0
M  V30 4377 C 417.754 -1.66757 1.63445 0
M  V30 4378 C 418.735 -1.63077 0.483742 0
M  V30 4379 O 419.92 -1.80607 0.71377 0
M  V30 4380 C 417.05 -3.05387 1.65396 0
M  V30 4381 C 416.004 -3.23918 2.79752 0
M  V30 4382 C 415.33 -4.63393 2.66779 0
M  V30 4383 C 416.63 -3.08735 4.21284 0
M  V30 4384 H 418.324 -1.53786 2.56886 0
M  V30 4385 H 415.87 -0.738415 1.23626 0
M  V30 4386 H 417.823 -3.83325 1.75043 0
M  V30 4387 H 416.547 -3.19332 0.685195 0
M  V30 4388 H 415.206 -2.48391 2.69625 0
M  V30 4389 H 414.854 -4.74144 1.67918 0
M  V30 4390 H 414.554 -4.7674 3.43501 0
M  V30 4391 H 416.078 -5.43458 2.78364 0
M  V30 4392 H 417.492 -3.76484 4.32357 0
M  V30 4393 H 415.889 -3.33588 4.98838 0
M  V30 4394 H 416.959 -2.0541 4.39243 0
M  V30 4395 N 418.302 -1.35869 -0.798587 0
M  V30 4396 C 419.232 -1.32118 -1.92528 0
M  V30 4397 C 420.213 -0.194209 -1.68988 0
M  V30 4398 O 421.398 -0.390426 -1.90235 0
M  V30 4399 C 418.528 -1.10047 -3.29404 0
M  V30 4400 C 417.482 -2.19471 -3.67446 0
M  V30 4401 C 416.808 -1.82555 -5.02571 0
M  V30 4402 C 418.108 -3.61495 -3.76987 0
M  V30 4403 H 419.802 -2.26394 -1.95924 0
M  V30 4404 H 417.348 -1.08981 -0.94123 0
M  V30 4405 H 419.301 -1.06061 -4.07835 0
M  V30 4406 H 418.025 -0.122195 -3.26371 0
M  V30 4407 H 416.684 -2.22568 -2.91306 0
M  V30 4408 H 416.332 -0.833249 -4.9605 0
M  V30 4409 H 416.032 -2.5581 -5.28995 0
M  V30 4410 H 417.556 -1.80108 -5.83432 0
M  V30 4411 H 418.97 -3.60676 -4.4563 0
M  V30 4412 H 417.367 -4.33577 -4.14887 0
M  V30 4413 H 418.437 -3.97065 -2.78329 0
M  V30 4414 N 419.78 1.02168 -1.19998 0
M  V30 4415 C 420.71 2.12488 -0.96804 0
M  V30 4416 C 421.691 1.69799 0.101185 0
M  V30 4417 O 422.876 1.94121 -0.0552993 0
M  V30 4418 C 420.006 3.43479 -0.513776 0
M  V30 4419 C 418.96 3.99884 -1.52566 0
M  V30 4420 C 418.286 5.26582 -0.928214 0
M  V30 4421 C 419.586 4.33861 -2.90795 0
M  V30 4422 H 421.28 2.32149 -1.89069 0
M  V30 4423 H 418.826 1.11564 -0.910468 0
M  V30 4424 H 420.779 4.20036 -0.338774 0
M  V30 4425 H 419.503 3.23561 0.444493 0
M  V30 4426 H 418.162 3.25429 -1.68794 0
M  V30 4427 H 417.81 5.02986 0.0378289 0
M  V30 4428 H 417.51 5.65284 -1.60397 0
M  V30 4429 H 419.034 6.05799 -0.764167 0
M  V30 4430 H 420.448 5.01327 -2.78109 0
M  V30 4431 H 418.845 4.83664 -3.55231 0
M  V30 4432 H 419.915 3.42848 -3.42904 0
M  V30 4433 N 421.258 1.00505 1.21394 0
M  V30 4434 C 422.205 0.565496 2.23765 0
M  V30 4435 C 423.175 -0.408466 1.60999 0
M  V30 4436 O 424.36 -0.310503 1.88257 0
M  V30 4437 C 421.5 -0.101667 3.4495 0
M  V30 4438 C 420.613 0.915479 4.22188 0
M  V30 4439 C 419.748 0.220574 5.30742 0
M  V30 4440 C 418.787 1.22527 5.99711 0
M  V30 4441 N 417.924 0.557831 6.9988 0
M  V30 4442 H 422.764 1.44314 2.60725 0
M  V30 4443 H 420.301 0.722643 1.28126 0
M  V30 4444 H 422.259 -0.505504 4.14126 0
M  V30 4445 H 420.889 -0.94303 3.08718 0
M  V30 4446 H 419.941 1.43756 3.52191 0
M  V30 4447 H 421.253 1.68005 4.69655 0
M  V30 4448 H 420.407 -0.239368 6.06228 0
M  V30 4449 H 419.146 -0.576401 4.84282 0
M  V30 4450 H 418.151 1.69571 5.22997 0
M  V30 4451 H 419.376 2.02332 6.48258 0
M  V30 4452 H 417.322 -0.219486 6.55633 0
M  V30 4453 H 417.239 1.26065 7.45415 0
M  V30 4454 H 418.507 0.121095 7.79406 0
M  V30 4455 N 422.737 -1.36956 0.779787 0
M  V30 4456 C 423.965 -2.03755 0.359398 0
M  V30 4457 C 424.38 -1.58807 -1.02106 0
M  V30 4458 O 423.737 -0.773024 -1.6532 0
M  V30 4459 C 423.788 -3.59251 0.402568 0
M  V30 4460 O 423.509 -4.02557 1.72858 0
M  V30 4461 C 425.01 -4.43291 -0.0284068 0
M  V30 4462 H 422.23 -0.654148 0.149437 0
M  V30 4463 H 424.774 -1.75128 1.05595 0
M  V30 4464 H 422.929 -3.86621 -0.245478 0
M  V30 4465 H 423.343 -4.97111 1.67275 0
M  V30 4466 H 424.817 -5.51975 0.0529466 0
M  V30 4467 H 425.294 -4.25719 -1.07982 0
M  V30 4468 H 425.9 -4.21163 0.591758 0
M  V30 4469 N 424.215 -0.530993 -1.48385 0
M  V30 4470 C 425.492 0.0671788 -1.95485 0
M  V30 4471 C 425.872 1.51191 -1.47324 0
M  V30 4472 O 425.22 2.17507 -0.700202 0
M  V30 4473 C 425.43 -0.0511206 -3.48963 0
M  V30 4474 C 426.778 0.107632 -4.24464 0
M  V30 4475 O 427.802 0.0226248 -3.56193 0
M  V30 4476 O 426.661 0.285972 -5.45751 0
M  V30 4477 H 423.755 0.0787365 -0.823243 0
M  V30 4478 H 426.301 -0.595662 -1.58902 0
M  V30 4479 H 425.073 -1.05747 -3.7674 0
M  V30 4480 H 424.696 0.650525 -3.92242 0
M  V30 4481 N 425.693 1.55336 -0.266172 0
M  V30 4482 C 427.104 1.85236 0.233315 0
M  V30 4483 C 427.455 1.18816 1.56132 0
M  V30 4484 O 426.58 0.473307 2.11161 0
M  V30 4485 C 427.175 3.36059 0.430113 0
M  V30 4486 C 425.734 3.66116 0.873842 0
M  V30 4487 C 424.881 2.77274 -0.0380016 0
M  V30 4488 H 427.832 1.51004 -0.488214 0
M  V30 4489 H 427.853 3.58681 1.26998 0
M  V30 4490 H 427.365 3.84373 -0.536588 0
M  V30 4491 H 425.466 3.23295 1.85233 0
M  V30 4492 H 425.579 4.73699 0.717358 0
M  V30 4493 H 423.943 2.50198 0.476759 0
M  V30 4494 H 424.726 3.284 -1.00042 0
M  V30 4495 N 427.171 -0.0066808 1.57599 0
M  V30 4496 C 428.399 -0.704087 1.94551 0
M  V30 4497 C 428.814 -1.67677 0.867746 0
M  V30 4498 O 428.171 -1.8185 -0.153925 0
M  V30 4499 C 428.222 -1.44177 3.31505 0
M  V30 4500 O 427.943 -0.508097 4.35144 0
M  V30 4501 C 429.444 -2.23429 3.82876 0
M  V30 4502 H 426.664 -0.196523 0.641576 0
M  V30 4503 H 429.208 0.042453 2.04456 0
M  V30 4504 H 427.363 -2.13999 3.22929 0
M  V30 4505 H 427.777 -1.02782 5.14331 0
M  V30 4506 H 429.251 -2.70552 4.8115 0
M  V30 4507 H 429.728 -3.05818 3.15233 0
M  V30 4508 H 430.334 -1.58636 3.94607 0
M  V30 4509 N 428.649 -1.55105 -0.279332 0
M  V30 4510 C 429.559 -1.90638 -1.36727 0
M  V30 4511 C 430.575 -0.802899 -1.54368 0
M  V30 4512 O 431.751 -1.10138 -1.68616 0
M  V30 4513 C 428.816 -2.16547 -2.70755 0
M  V30 4514 C 427.877 -3.40146 -2.61915 0
M  V30 4515 C 427.11 -3.6481 -3.8955 0
M  V30 4516 O 427.333 -2.92095 -4.89935 0
M  V30 4517 O 426.267 -4.58343 -3.90135 0
M  V30 4518 H 430.093 -2.83237 -1.09591 0
M  V30 4519 H 427.678 -1.4157 -0.477306 0
M  V30 4520 H 429.56 -2.34665 -3.50014 0
M  V30 4521 H 428.235 -1.27131 -2.9769 0
M  V30 4522 H 427.142 -3.2737 -1.81052 0
M  V30 4523 H 428.475 -4.29761 -2.3993 0
M  V30 4524 N 430.127 0.543554 -1.4793 0
M  V30 4525 C 431.543 0.870806 -1.3375 0
M  V30 4526 C 431.743 1.9864 -0.338261 0
M  V30 4527 O 430.799 2.51305 0.245371 0
M  V30 4528 C 432.112 1.25114 -2.73435 0
M  V30 4529 C 433.66 1.3618 -2.81823 0
M  V30 4530 C 434.135 1.77563 -4.22179 0
M  V30 4531 N 435.626 1.8469 -4.24787 0
M  V30 4532 C 436.361 2.18067 -5.30315 0
M  V30 4533 N 435.857 2.49963 -6.46135 0
M  V30 4534 N 437.65 2.18958 -5.17701 0
M  V30 4535 H 429.801 -0.19275 -2.11524 0
M  V30 4536 H 432.064 -0.0235777 -0.947707 0
M  V30 4537 H 431.77 0.50514 -3.48053 0
M  V30 4538 H 431.644 2.20431 -3.06088 0
M  V30 4539 H 434.031 2.09859 -2.07468 0
M  V30 4540 H 434.112 0.390169 -2.52807 0
M  V30 4541 H 433.756 1.04449 -4.97044 0
M  V30 4542 H 433.686 2.75753 -4.48629 0
M  V30 4543 H 436.177 1.62372 -3.41239 0
M  V30 4544 H 436.49 2.74497 -7.22406 0
M  V30 4545 H 434.835 2.47513 -6.49432 0
M  V30 4546 H 438.026 1.93488 -4.2624 0
M  V30 4547 H 438.199 2.44639 -6.00047 0
M  V30 4548 N 431.605 1.3629 0.791371 0
M  V30 4549 C 432.535 1.33137 1.91825 0
M  V30 4550 C 433.516 0.203168 1.68882 0
M  V30 4551 O 434.701 0.400509 1.90025 0
M  V30 4552 C 431.831 1.11793 3.28816 0
M  V30 4553 C 430.785 2.21417 3.66277 0
M  V30 4554 C 430.111 1.85218 5.01596 0
M  V30 4555 C 431.411 3.63489 3.75064 0
M  V30 4556 H 433.105 2.2743 1.9472 0
M  V30 4557 H 430.651 1.09479 0.935437 0
M  V30 4558 H 432.604 1.08222 4.07266 0
M  V30 4559 H 431.328 0.139501 3.26302 0
M  V30 4560 H 429.987 2.2411 2.90121 0
M  V30 4561 H 429.635 0.859544 4.95602 0
M  V30 4562 H 429.335 2.58611 5.27631 0
M  V30 4563 H 430.859 1.832 5.82469 0
M  V30 4564 H 432.273 3.63034 4.43711 0
M  V30 4565 H 430.67 4.35771 4.12582 0
M  V30 4566 H 431.74 3.98536 2.76219 0
M  V30 4567 N 433.083 -1.0153 1.20538 0
M  V30 4568 C 434.311 -1.78746 1.04199 0
M  V30 4569 C 434.726 -1.84323 -0.408733 0
M  V30 4570 O 434.083 -1.29714 -1.28377 0
M  V30 4571 C 434.134 -3.23152 1.62035 0
M  V30 4572 O 433.855 -3.17918 3.0143 0
M  V30 4573 C 435.356 -4.16911 1.50666 0
M  V30 4574 H 432.576 -0.56208 0.366479 0
M  V30 4575 H 435.12 -1.27794 1.59653 0
M  V30 4576 H 433.275 -3.71248 1.10697 0
M  V30 4577 H 433.689 -4.08567 3.28897 0
M  V30 4578 H 435.163 -5.16072 1.95892 0
M  V30 4579 H 435.64 -4.36791 0.459363 0
M  V30 4580 H 436.246 -3.74698 2.01201 0
M  V30 4581 N 434.561 -1.01147 -1.20859 0
M  V30 4582 C 435.81 -0.693214 -1.89413 0
M  V30 4583 C 436.123 0.779969 -1.79376 0
M  V30 4584 O 437.329 1.21057 -2.43017 0
M  V30 4585 C 435.785 -1.18949 -3.39675 0
M  V30 4586 C 435.393 -2.68921 -3.58309 0
M  V30 4587 C 437.137 -0.94642 -4.13815 0
M  V30 4588 C 435.044 -3.12056 -5.0237 0
M  V30 4589 H 433.974 -0.255595 -0.709357 0
M  V30 4590 H 436.625 -1.22349 -1.36759 0
M  V30 4591 H 435.007 -0.587228 -3.91622 0
M  V30 4592 H 436.181 -3.34652 -3.16772 0
M  V30 4593 H 434.496 -2.91314 -2.97532 0
M  V30 4594 H 437.093 -1.24417 -5.20023 0
M  V30 4595 H 437.436 0.117219 -4.16135 0
M  V30 4596 H 437.969 -1.5118 -3.67953 0
M  V30 4597 H 434.708 -4.17674 -5.05202 0
M  V30 4598 H 434.228 -2.51041 -5.44737 0
M  V30 4599 H 435.907 -3.04403 -5.70918 0
M  V30 4600 N 436.039 1.36541 -0.78704 0
M  V30 4601 C 437.267 2.03561 -0.370199 0
M  V30 4602 C 437.682 1.59347 1.01263 0
M  V30 4603 O 437.039 0.781781 1.64907 0
M  V30 4604 C 437.09 3.59033 -0.421614 0
M  V30 4605 O 436.811 4.01634 -1.7499 0
M  V30 4606 C 438.312 4.433 0.00489763 0
M  V30 4607 H 435.532 0.653346 -0.152904 0
M  V30 4608 H 438.076 1.74566 -1.06522 0
M  V30 4609 H 436.231 3.86746 0.224971 0
M  V30 4610 H 436.645 4.96217 -1.69909 0
M  V30 4611 H 438.119 5.51939 -0.0822184 0
M  V30 4612 H 438.596 4.26285 1.05723 0
M  V30 4613 H 439.202 4.20843 -0.614085 0
M  V30 4614 N 437.518 0.538854 1.48102 0
M  V30 4615 C 438.45 -0.256278 2.27763 0
M  V30 4616 C 439.463 -0.89633 1.35904 0
M  V30 4617 O 440.652 -0.773275 1.60881 0
M  V30 4618 C 437.752 -1.37896 3.09577 0
M  V30 4619 C 436.925 -0.839159 4.29275 0
M  V30 4620 C 435.984 -1.84405 4.9283 0
M  V30 4621 O 435.01 -1.39746 5.51779 0
M  V30 4622 N 436.212 -3.17666 4.85869 0
M  V30 4623 H 438.977 0.426968 2.96643 0
M  V30 4624 H 436.538 0.373747 1.57527 0
M  V30 4625 H 438.53 -2.04955 3.48963 0
M  V30 4626 H 437.1 -1.96572 2.4306 0
M  V30 4627 H 436.32 0.00769287 3.94199 0
M  V30 4628 H 437.608 -0.457548 5.06739 0
M  V30 4629 H 437.006 -3.56609 4.39143 0
M  V30 4630 H 435.563 -3.80334 5.29329 0
M  V30 4631 N 438.996 -1.55193 0.274407 0
M  V30 4632 C 440.243 -1.99581 -0.342579 0
M  V30 4633 C 440.571 -1.1628 -1.55914 0
M  V30 4634 O 439.826 -0.22029 -1.94456 0
M  V30 4635 C 440.125 -3.49019 -0.769458 0
M  V30 4636 C 439.791 -4.49598 0.342389 0
M  V30 4637 C 438.453 -4.76821 0.647686 0
M  V30 4638 C 440.805 -5.0964 1.09163 0
M  V30 4639 C 438.133 -5.61354 1.70581 0
M  V30 4640 C 440.485 -5.95323 2.13948 0
M  V30 4641 C 439.149 -6.20867 2.45113 0
M  V30 4642 H 438.419 -0.730319 -0.125358 0
M  V30 4643 H 441.066 -1.87529 0.387971 0
M  V30 4644 H 439.371 -3.58544 -1.57967 0
M  V30 4645 H 441.068 -3.8077 -1.25757 0
M  V30 4646 H 437.658 -4.28496 0.094318 0
M  V30 4647 H 441.842 -4.88632 0.869024 0
M  V30 4648 H 437.098 -5.79392 1.9523 0
M  V30 4649 H 441.272 -6.40881 2.72478 0
M  V30 4650 H 438.899 -6.86162 3.27239 0
M  V30 4651 N 440.474 -0.00167713 -1.576 0
M  V30 4652 C 441.407 1.02317 -2.03977 0
M  V30 4653 C 442.385 1.33381 -0.929963 0
M  V30 4654 O 443.569 1.45517 -1.19822 0
M  V30 4655 C 440.696 2.35035 -2.43878 0
M  V30 4656 C 439.742 2.19621 -3.65607 0
M  V30 4657 S 440.575 1.52068 -5.13455 0
M  V30 4658 C 441.731 2.86212 -5.56627 0
M  V30 4659 H 441.964 0.628285 -2.90585 0
M  V30 4660 H 439.497 0.209239 -1.52976 0
M  V30 4661 H 441.455 3.11345 -2.67534 0
M  V30 4662 H 440.116 2.71663 -1.57665 0
M  V30 4663 H 439.309 3.1767 -3.91282 0
M  V30 4664 H 438.911 1.51455 -3.41961 0
M  V30 4665 H 441.203 3.82509 -5.59189 0
M  V30 4666 H 442.146 2.65235 -6.56549 0
M  V30 4667 H 442.554 2.90199 -4.84195 0
M  V30 4668 N 441.952 1.55251 0.271103 0
M  V30 4669 C 442.9 1.89054 1.35504 0
M  V30 4670 C 443.894 0.767064 1.51038 0
M  V30 4671 O 445.1 0.951429 1.528 0
M  V30 4672 H 441.475 0.600072 0.45323 0
M  V30 4673 H 443.446 2.79598 1.04247 0
M  V30 4674 C 442.195 2.18068 2.70817 0
M  V30 4675 H 441.518 3.04005 2.59656 0
M  V30 4676 H 442.958 2.4564 3.45597 0
M  V30 4677 C 441.417 0.988901 3.2206 0
M  V30 4678 O 441.947 0.224501 4.01072 0
M  V30 4679 N 440.153 0.786085 2.79766 0
M  V30 4680 H 439.7 1.40937 2.15626 0
M  V30 4681 H 439.658 -0.00969349 3.14399 0
M  V30 4682 N 443.43 -0.535701 1.48216 0
M  V30 4683 C 444.38 -1.63688 1.58714 0
M  V30 4684 C 445.364 -1.54635 0.444615 0
M  V30 4685 O 446.556 -1.62753 0.695742 0
M  V30 4686 C 443.685 -3.02423 1.62466 0
M  V30 4687 C 442.771 -3.16601 2.82178 0
M  V30 4688 N 443.162 -3.00771 4.06658 0
M  V30 4689 C 441.46 -3.47645 2.79391 0
M  V30 4690 C 442.161 -3.18213 4.86945 0
M  V30 4691 N 441.137 -3.45528 4.19656 0
M  V30 4692 H 444.939 -1.5005 2.5271 0
M  V30 4693 H 442.453 -0.741018 1.44508 0
M  V30 4694 H 444.45 -3.81517 1.6808 0
M  V30 4695 H 443.11 -3.17157 0.695826 0
M  V30 4696 H 444.121 -2.77652 4.37184 0
M  V30 4697 H 440.798 -3.68771 1.95739 0
M  V30 4698 H 442.188 -3.1076 5.95716 0
M  V30 4699 N 444.908 -1.36708 -0.784132 0
M  V30 4700 C 446.319 -1.27947 -1.35965 0
M  V30 4701 C 446.67 0.0784013 -1.96043 0
M  V30 4702 O 445.795 0.979989 -1.92938 0
M  V30 4703 C 446.39 -2.31689 -2.47195 0
M  V30 4704 C 444.949 -2.26601 -3.00548 0
M  V30 4705 C 444.096 -2.16184 -1.73666 0
M  V30 4706 H 447.047 -1.4751 -0.585358 0
M  V30 4707 H 447.068 -1.95638 -3.26352 0
M  V30 4708 H 446.58 -3.30506 -2.03439 0
M  V30 4709 H 444.681 -1.31268 -3.48711 0
M  V30 4710 H 444.794 -3.19508 -3.57004 0
M  V30 4711 H 443.158 -1.62524 -1.96107 0
M  V30 4712 H 443.941 -3.16896 -1.32031 0
M  V30 4713 N 446.386 1.0089 -1.21074 0
M  V30 4714 C 447.632 1.7497 -1.03717 0
M  V30 4715 C 447.987 1.8764 0.425344 0
M  V30 4716 O 447.28 1.39679 1.3115 0
M  V30 4717 C 447.474 3.16335 -1.66334 0
M  V30 4718 C 447.303 3.17449 -3.18522 0
M  V30 4719 C 446.073 3.2425 -3.87543 0
M  V30 4720 C 448.271 3.02877 -4.15656 0
M  V30 4721 N 446.253 3.14949 -5.26954 0
M  V30 4722 C 447.624 3.0143 -5.41793 0
M  V30 4723 C 449.679 2.8715 -4.06755 0
M  V30 4724 C 448.382 2.85869 -6.60054 0
M  V30 4725 C 450.408 2.72944 -5.24648 0
M  V30 4726 C 449.77 2.72171 -6.49694 0
M  V30 4727 H 445.869 0.650627 -0.43383 0
M  V30 4728 H 448.453 1.19944 -1.53367 0
M  V30 4729 H 446.624 3.69638 -1.19256 0
M  V30 4730 H 448.356 3.78888 -1.42219 0
M  V30 4731 H 445.111 3.31288 -3.38446 0
M  V30 4732 H 445.535 3.13651 -5.9996 0
M  V30 4733 H 450.177 2.86557 -3.10878 0
M  V30 4734 H 447.895 2.8521 -7.56096 0
M  V30 4735 H 451.481 2.61782 -5.19578 0
M  V30 4736 H 450.361 2.61307 -7.39384 0
M  V30 4737 N 447.864 1.01787 1.20321 0
M  V30 4738 C 449.113 0.703249 1.89043 0
M  V30 4739 C 449.426 -0.770445 1.79787 0
M  V30 4740 O 450.632 -1.19767 2.43656 0
M  V30 4741 C 449.088 1.20749 3.3904 0
M  V30 4742 C 448.696 2.70817 3.56878 0
M  V30 4743 C 450.44 0.968352 4.13308 0
M  V30 4744 C 448.347 3.14716 5.00708 0
M  V30 4745 H 447.277 0.259354 0.707991 0
M  V30 4746 H 449.928 1.23072 1.36108 0
M  V30 4747 H 448.31 0.607989 3.91305 0
M  V30 4748 H 449.484 3.36327 3.14993 0
M  V30 4749 H 447.799 2.92888 2.95983 0
M  V30 4750 H 450.396 1.27173 5.19356 0
M  V30 4751 H 450.739 -0.095149 4.16191 0
M  V30 4752 H 451.272 1.53129 3.67146 0
M  V30 4753 H 448.011 4.20347 5.02979 0
M  V30 4754 H 447.531 2.53927 5.43398 0
M  V30 4755 H 449.21 3.07426 5.69296 0
M  V30 4756 N 449.342 -1.36122 0.79427 0
M  V30 4757 C 450.29 -2.31871 0.184023 0
M  V30 4758 C 451.284 -1.56041 -0.659365 0
M  V30 4759 O 452.49 -1.71266 -0.553906 0
M  V30 4760 H 448.865 -0.750896 0.0407373 0
M  V30 4761 H 450.836 -2.80898 1.00693 0
M  V30 4762 C 449.585 -3.41324 -0.662813 0
M  V30 4763 H 448.908 -3.99793 -0.0231944 0
M  V30 4764 H 450.348 -4.10629 -1.05639 0
M  V30 4765 C 448.807 -2.83308 -1.82313 0
M  V30 4766 O 449.337 -2.75863 -2.91997 0
M  V30 4767 N 447.543 -2.40529 -1.63077 0
M  V30 4768 H 447.09 -2.46785 -0.738591 0
M  V30 4769 H 447.048 -2.02059 -2.40872 0
M  V30 4770 N 450.82 -0.546701 -1.47814 0
M  V30 4771 C 451.752 0.244196 -2.27895 0
M  V30 4772 C 452.765 0.88911 -1.36377 0
M  V30 4773 O 453.954 0.764733 -1.61289 0
M  V30 4774 C 451.054 1.36252 -3.10304 0
M  V30 4775 C 450.227 0.816382 -4.29714 0
M  V30 4776 C 449.286 1.81789 -4.93801 0
M  V30 4777 O 448.312 1.36818 -5.52512 0
M  V30 4778 N 449.514 3.15085 -4.87547 0
M  V30 4779 H 452.279 -0.442694 -2.96412 0
M  V30 4780 H 449.84 -0.382095 -1.57327 0
M  V30 4781 H 451.832 2.03102 -3.50045 0
M  V30 4782 H 450.402 1.95281 -2.44099 0
M  V30 4783 H 449.622 -0.0285981 -3.9419 0
M  V30 4784 H 450.91 0.430668 -5.06974 0
M  V30 4785 H 450.308 3.54275 -4.41028 0
M  V30 4786 H 448.865 3.77522 -5.31339 0
M  V30 4787 N 452.299 1.55045 -0.282633 0
M  V30 4788 C 453.524 2.04628 0.337977 0
M  V30 4789 C 453.949 1.15937 1.48123 0
M  V30 4790 O 453.307 0.159532 1.80597 0
M  V30 4791 C 453.355 3.51854 0.78936 0
M  V30 4792 O 452.459 3.66236 1.89592 0
M  V30 4793 H 451.8 0.660434 0.0687261 0
M  V30 4794 H 454.33 2.00261 -0.419124 0
M  V30 4795 H 454.34 3.93361 1.08311 0
M  V30 4796 H 453.015 4.15873 -0.0470419 0
M  V30 4797 H 451.592 3.36633 1.60413 0
M  V30 4798 N 453.777 0.010035 1.57597 0
M  V30 4799 C 454.71 -1.01234 2.04516 0
M  V30 4800 C 455.688 -1.32886 0.937024 0
M  V30 4801 O 456.872 -1.44879 1.20592 0
M  V30 4802 C 453.999 -2.33738 2.45121 0
M  V30 4803 C 453.045 -2.17679 3.66767 0
M  V30 4804 S 453.878 -1.49343 5.14254 0
M  V30 4805 C 455.034 -2.83256 5.58137 0
M  V30 4806 H 455.267 -0.612866 2.90914 0
M  V30 4807 H 452.8 -0.201124 1.53084 0
M  V30 4808 H 454.758 -3.09922 2.69182 0
M  V30 4809 H 453.419 -2.70823 1.59103 0
M  V30 4810 H 452.612 -3.1559 3.92962 0
M  V30 4811 H 452.214 -1.4964 3.42759 0
M  V30 4812 H 454.506 -3.79538 5.6121 0
M  V30 4813 H 455.449 -2.61749 6.57946 0
M  V30 4814 H 455.857 -2.87627 4.85727 0
M  V30 4815 N 455.255 -1.55392 -0.262866 0
M  V30 4816 C 456.501 -1.76737 -0.99458 0
M  V30 4817 C 456.834 -0.572453 -1.85571 0
M  V30 4818 O 456.109 0.429732 -1.89693 0
M  V30 4819 C 456.392 -3.07824 -1.8686 0
M  V30 4820 C 456.245 -4.3769 -1.03672 0
M  V30 4821 C 457.564 -3.35021 -2.85393 0
M  V30 4822 H 454.683 -0.643005 -0.360157 0
M  V30 4823 H 457.325 -1.88126 -0.266216 0
M  V30 4824 H 455.475 -2.98245 -2.48962 0
M  V30 4825 H 457.147 -4.59238 -0.43563 0
M  V30 4826 H 455.39 -4.32461 -0.340513 0
M  V30 4827 H 456.061 -5.25759 -1.6817 0
M  V30 4828 H 458.537 -3.44458 -2.33426 0
M  V30 4829 H 457.413 -4.27989 -3.43681 0
M  V30 4830 H 457.674 -2.55153 -3.61039 0
M  V30 4831 N 456.733 0.527833 -1.48498 0
M  V30 4832 C 457.979 1.28545 -1.56857 0
M  V30 4833 C 458.312 1.92678 -0.242651 0
M  V30 4834 O 457.587 1.79394 0.751545 0
M  V30 4835 C 457.87 2.37314 -2.70839 0
M  V30 4836 C 457.723 1.77858 -4.13142 0
M  V30 4837 C 459.042 3.39068 -2.80573 0
M  V30 4838 H 456.161 0.466006 -0.570971 0
M  V30 4839 H 458.803 0.587784 -1.8068 0
M  V30 4840 H 456.953 2.96821 -2.50658 0
M  V30 4841 H 458.625 1.22385 -4.44769 0
M  V30 4842 H 456.868 1.08383 -4.20042 0
M  V30 4843 H 457.539 2.56624 -4.88721 0
M  V30 4844 H 460.015 2.89518 -2.98862 0
M  V30 4845 H 458.891 4.12566 -3.6205 0
M  V30 4846 H 459.152 3.9975 -1.88818 0
M  V30 4847 N 458.211 1.37122 0.776871 0
M  V30 4848 C 459.622 1.28667 1.35284 0
M  V30 4849 C 459.973 -0.0680035 1.96082 0
M  V30 4850 O 459.098 -0.969743 1.93455 0
M  V30 4851 C 459.693 2.32997 2.45963 0
M  V30 4852 C 458.252 2.28191 2.99342 0
M  V30 4853 C 457.399 2.17101 1.72517 0
M  V30 4854 H 460.35 1.47819 0.577527 0
M  V30 4855 H 460.371 1.97366 3.2531 0
M  V30 4856 H 459.883 3.3158 2.01684 0
M  V30 4857 H 457.984 1.33115 3.4801 0
M  V30 4858 H 458.097 3.21397 3.55304 0
M  V30 4859 H 456.461 1.63562 1.95242 0
M  V30 4860 H 457.244 3.17591 1.30348 0
M  V30 4861 N 459.689 -1.00246 1.21608 0
M  V30 4862 C 460.621 -2.09244 0.935401 0
M  V30 4863 C 461.634 -1.62592 -0.0823594 0
M  V30 4864 O 462.823 -1.77865 0.150456 0
M  V30 4865 C 459.923 -3.36724 0.383453 0
M  V30 4866 C 459.096 -4.1245 1.45615 0
M  V30 4867 C 458.155 -5.18219 0.912991 0
M  V30 4868 O 457.181 -5.46337 1.59701 0
M  V30 4869 N 458.383 -5.7987 -0.270478 0
M  V30 4870 H 461.148 -2.33905 1.87373 0
M  V30 4871 H 458.709 -1.16748 1.12167 0
M  V30 4872 H 460.701 -4.047 0.00562157 0
M  V30 4873 H 459.271 -3.09201 -0.459758 0
M  V30 4874 H 458.491 -3.39241 2.00772 0
M  V30 4875 H 459.779 -4.59819 2.17817 0
M  V30 4876 H 459.177 -5.59381 -0.843195 0
M  V30 4877 H 457.734 -6.49126 -0.589794 0
M  V30 4878 N 461.167 -1.02423 -1.1978 0
M  V30 4879 C 462.395 -0.737456 -1.93311 0
M  V30 4880 C 462.81 0.703023 -1.75223 0
M  V30 4881 O 462.167 1.47761 -1.07112 0
M  V30 4882 C 462.218 -1.0733 -3.45199 0
M  V30 4883 O 461.939 -2.4572 -3.62702 0
M  V30 4884 C 463.44 -0.80866 -4.35862 0
M  V30 4885 H 460.66 -0.2702 -0.614193 0
M  V30 4886 H 463.204 -1.36747 -1.52054 0
M  V30 4887 H 461.359 -0.488545 -3.84307 0
M  V30 4888 H 461.773 -2.58081 -4.56612 0
M  V30 4889 H 463.247 -1.09365 -5.41057 0
M  V30 4890 H 463.724 0.257025 -4.38447 0
M  V30 4891 H 464.33 -1.37592 -4.02428 0
M  V30 4892 N 462.645 1.35699 -0.801477 0
M  V30 4893 C 464.056 1.81415 -0.441073 0
M  V30 4894 C 464.407 1.66595 1.03636 0
M  V30 4895 O 463.532 1.19369 1.80499 0
M  V30 4896 C 464.127 3.29369 -0.793819 0
M  V30 4897 C 462.686 3.73248 -0.486083 0
M  V30 4898 C 461.833 2.57775 -1.02213 0
M  V30 4899 H 464.784 1.23749 -0.993572 0
M  V30 4900 H 464.805 3.80395 -0.0894158 0
M  V30 4901 H 464.317 3.40123 -1.86917 0
M  V30 4902 H 462.418 3.68046 0.580735 0
M  V30 4903 H 462.531 4.68222 -1.01513 0
M  V30 4904 H 460.895 2.50788 -0.444712 0
M  V30 4905 H 461.678 2.71309 -2.10348 0
M  V30 4906 N 464.123 0.554532 1.47522 0
M  V30 4907 C 465.053 -0.182974 2.32782 0
M  V30 4908 C 466.034 -0.911377 1.43624 0
M  V30 4909 O 467.219 -0.892366 1.72483 0
M  V30 4910 C 464.349 -1.21513 3.25349 0
M  V30 4911 C 463.303 -0.603355 4.23726 0
M  V30 4912 C 462.629 -1.73995 5.05598 0
M  V30 4913 C 463.929 0.441121 5.20434 0
M  V30 4914 H 465.623 0.52882 2.94693 0
M  V30 4915 H 463.169 0.255759 1.41711 0
M  V30 4916 H 465.122 -1.73922 3.83835 0
M  V30 4917 H 463.846 -1.95683 2.61487 0
M  V30 4918 H 462.505 -0.10059 3.66462 0
M  V30 4919 H 462.153 -2.47063 4.38143 0
M  V30 4920 H 461.853 -1.3364 5.72201 0
M  V30 4921 H 463.377 -2.26735 5.66942 0
M  V30 4922 H 464.791 0.00319931 5.733 0
M  V30 4923 H 463.188 0.763402 5.95224 0
M  V30 4924 H 464.258 1.33799 4.66075 0
M  V30 4925 N 465.601 -1.54893 0.290851 0
M  V30 4926 C 466.551 -2.19838 -0.604599 0
M  V30 4927 C 467.535 -1.16805 -1.10659 0
M  V30 4928 O 468.727 -1.42562 -1.04905 0
M  V30 4929 C 465.856 -2.93497 -1.78086 0
M  V30 4930 C 464.942 -4.03835 -1.29531 0
M  V30 4931 N 465.333 -5.03047 -0.527024 0
M  V30 4932 C 463.631 -4.17192 -1.57693 0
M  V30 4933 C 464.332 -5.81074 -0.269728 0
M  V30 4934 N 463.308 -5.36966 -0.846651 0
M  V30 4935 H 467.11 -2.93898 -0.00995032 0
M  V30 4936 H 464.624 -1.62121 0.0951353 0
M  V30 4937 H 466.621 -3.38484 -2.43381 0
M  V30 4938 H 465.281 -2.2095 -2.37931 0
M  V30 4939 H 466.292 -5.17611 -0.172872 0
M  V30 4940 H 462.969 -3.55845 -2.18359 0
M  V30 4941 H 464.359 -6.71005 0.346643 0
M  V30 4942 N 467.08 -0.0183926 -1.57589 0
M  V30 4943 C 468.308 0.673046 -1.95647 0
M  V30 4944 C 468.723 1.66275 -0.894312 0
M  V30 4945 O 468.08 1.82072 0.124975 0
M  V30 4946 C 468.131 1.38884 -3.33756 0
M  V30 4947 O 467.852 0.438806 -4.35897 0
M  V30 4948 C 469.353 2.1731 -3.86383 0
M  V30 4949 H 466.573 0.186292 -0.644621 0
M  V30 4950 H 469.117 -0.0749748 -2.04363 0
M  V30 4951 H 467.272 2.08835 -3.26293 0
M  V30 4952 H 467.686 0.945869 -5.15901 0
M  V30 4953 H 469.16 2.62863 -4.85394 0
M  V30 4954 H 469.637 3.00764 -3.20059 0
M  V30 4955 H 470.243 1.52339 -3.97081 0
M  V30 4956 N 468.558 1.5553 0.254621 0
M  V30 4957 C 469.521 1.88872 1.29846 0
M  V30 4958 C 470.521 0.764591 1.41459 0
M  V30 4959 O 471.711 1.03265 1.40293 0
M  V30 4960 C 468.843 2.11032 2.67728 0
M  V30 4961 H 470.036 2.82201 1.01502 0
M  V30 4962 H 467.589 1.48303 0.493556 0
M  V30 4963 H 468.324 1.20146 3.01223 0
M  V30 4964 H 468.109 2.92895 2.60682 0
M  V30 4965 H 469.599 2.38038 3.43115 0
M  V30 4966 N 470.036 -0.519951 1.48776 0
M  V30 4967 C 471.452 -0.849418 1.35119 0
M  V30 4968 C 471.652 -1.98077 0.36982 0
M  V30 4969 O 470.708 -2.51664 -0.205359 0
M  V30 4970 C 472.021 -1.20748 2.75391 0
M  V30 4971 C 473.569 -1.31679 2.83954 0
M  V30 4972 C 474.044 -1.70824 4.24951 0
M  V30 4973 N 475.535 -1.77908 4.27672 0
M  V30 4974 C 476.27 -2.09603 5.33717 0
M  V30 4975 N 475.766 -2.39652 6.5003 0
M  V30 4976 N 477.559 -2.10694 5.21119 0
M  V30 4977 H 469.71 0.226377 2.1119 0
M  V30 4978 H 471.973 0.0386519 0.947212 0
M  V30 4979 H 471.679 -0.449703 3.48813 0
M  V30 4980 H 471.553 -2.15534 3.09556 0
M  V30 4981 H 473.94 -2.06532 2.10781 0
M  V30 4982 H 474.021 -0.3499 2.53396 0
M  V30 4983 H 473.665 -0.965282 4.98643 0
M  V30 4984 H 473.595 -2.6858 4.52959 0
M  V30 4985 H 476.086 -1.56923 3.43779 0
M  V30 4986 H 476.399 -2.6297 7.26682 0
M  V30 4987 H 474.744 -2.37149 6.53288 0
M  V30 4988 H 477.935 -1.86682 4.29264 0
M  V30 4989 H 478.108 -2.35062 6.03863 0
M  V30 4990 N 471.514 -1.37532 -0.769588 0
M  V30 4991 C 472.76 -1.33057 -1.53048 0
M  V30 4992 C 473.093 0.0841865 -1.94017 0
M  V30 4993 O 472.368 1.04198 -1.64235 0
M  V30 4994 C 472.651 -2.27166 -2.79406 0
M  V30 4995 C 472.504 -3.77429 -2.44677 0
M  V30 4996 C 473.823 -2.19683 -3.81349 0
M  V30 4997 H 470.942 -0.484655 -0.555228 0
M  V30 4998 H 473.584 -1.68251 -0.882702 0
M  V30 4999 H 471.734 -1.97283 -3.34682 0
M  V30 5000 H 473.406 -4.17918 -1.953 0
M  V30 5001 H 471.649 -3.95892 -1.77346 0
M  V30 5002 H 472.32 -4.38716 -3.35011 0
M  V30 5003 H 474.796 -2.46029 -3.35573 0
M  V30 5004 H 473.672 -2.87668 -4.67481 0
M  V30 5005 H 473.933 -1.19045 -4.25771 0
M  V30 5006 N 472.992 0.995999 -1.22138 0
M  V30 5007 C 473.922 2.10387 -1.01289 0
M  V30 5008 C 474.903 1.69975 0.0651454 0
M  V30 5009 O 476.088 1.9396 -0.0964628 0
M  V30 5010 C 473.218 3.42312 -0.586517 0
M  V30 5011 C 472.172 3.96558 -1.61014 0
M  V30 5012 C 471.498 5.24494 -1.0397 0
M  V30 5013 C 472.798 4.27595 -2.99933 0
M  V30 5014 H 474.492 2.28086 -1.93951 0
M  V30 5015 H 472.038 1.09607 -0.933928 0
M  V30 5016 H 473.991 4.19223 -0.427793 0
M  V30 5017 H 472.715 3.24431 0.375761 0
M  V30 5018 H 471.374 3.21776 -1.75658 0
M  V30 5019 H 471.022 5.02953 -0.0688703 0
M  V30 5020 H 470.722 5.61755 -1.72352 0
M  V30 5021 H 472.246 6.04042 -0.892494 0
M  V30 5022 H 473.66 4.95315 -2.8868 0
M  V30 5023 H 472.057 4.76021 -3.6541 0
M  V30 5024 H 473.127 3.35498 -3.50099 0
M  V30 5025 N 474.47 1.03057 1.19235 0
M  V30 5026 C 475.402 0.570932 2.21975 0
M  V30 5027 C 476.415 -0.354088 1.58903 0
M  V30 5028 O 477.604 -0.150211 1.77867 0
M  V30 5029 C 474.704 -0.187152 3.38383 0
M  V30 5030 C 473.877 0.743231 4.31039 0
M  V30 5031 C 472.936 0.0302493 5.26191 0
M  V30 5032 O 471.962 0.657371 5.65391 0
M  V30 5033 N 473.164 -1.23991 5.67104 0
M  V30 5034 H 475.929 1.45456 2.62036 0
M  V30 5035 H 473.49 0.909807 1.33918 0
M  V30 5036 H 475.482 -0.673715 3.99053 0
M  V30 5037 H 474.052 -0.972205 2.97098 0
M  V30 5038 H 473.272 1.40985 3.68126 0
M  V30 5039 H 474.56 1.3755 4.89854 0
M  V30 5040 H 473.958 -1.77011 5.37293 0
M  V30 5041 H 472.515 -1.67093 6.30018 0
M  V30 5042 N 475.948 -1.35272 0.808662 0
M  V30 5043 C 476.858 -2.33546 0.222079 0
M  V30 5044 C 477.874 -1.6196 -0.636011 0
M  V30 5045 O 479.05 -1.93822 -0.547274 0
M  V30 5046 C 476.115 -3.41148 -0.61795 0
M  V30 5047 C 475.176 -4.28507 0.260875 0
M  V30 5048 C 474.409 -5.3097 -0.539156 0
M  V30 5049 O 474.632 -5.42123 -1.77367 0
M  V30 5050 O 473.566 -6.01858 0.0710526 0
M  V30 5051 H 477.392 -2.85515 1.03512 0
M  V30 5052 H 474.977 -1.38079 0.570495 0
M  V30 5053 H 476.859 -4.06889 -1.09634 0
M  V30 5054 H 475.534 -2.91447 -1.40855 0
M  V30 5055 H 474.441 -3.6574 0.786451 0
M  V30 5056 H 475.774 -4.81611 1.01547 0
M  V30 5057 N 477.426 -0.562348 -1.47226 0
M  V30 5058 C 478.703 0.0256985 -1.95583 0
M  V30 5059 C 479.083 1.48032 -1.50498 0
M  V30 5060 O 478.431 2.15973 -0.746181 0
M  V30 5061 C 478.641 -0.125129 -3.48776 0
M  V30 5062 C 479.989 0.0175728 -4.24596 0
M  V30 5063 O 481.013 -0.0529341 -3.56161 0
M  V30 5064 O 479.872 0.170145 -5.46235 0
M  V30 5065 H 476.966 0.0612565 -0.824728 0
M  V30 5066 H 479.512 -0.629233 -1.57603 0
M  V30 5067 H 478.284 -1.13715 -3.74412 0
M  V30 5068 H 477.907 0.567178 -3.93534 0
M  V30 5069 N 478.904 1.54736 -0.299062 0
M  V30 5070 C 479.851 2.23448 0.577899 0
M  V30 5071 C 480.821 1.21637 1.13109 0
M  V30 5072 O 482.006 1.50252 1.17597 0
M  V30 5073 C 479.146 2.9774 1.74484 0
M  V30 5074 C 478.259 4.1432 1.22323 0
M  V30 5075 C 477.394 4.76199 2.35388 0
M  V30 5076 C 476.433 5.84927 1.80351 0
M  V30 5077 N 475.57 6.4077 2.86982 0
M  V30 5078 H 480.41 2.97996 -0.0146545 0
M  V30 5079 H 477.947 1.47088 -0.0190013 0
M  V30 5080 H 479.905 3.39045 2.43114 0
M  V30 5081 H 478.535 2.25572 2.30905 0
M  V30 5082 H 477.587 3.7797 0.429249 0
M  V30 5083 H 478.899 4.92659 0.780309 0
M  V30 5084 H 478.053 5.20346 3.11969 0
M  V30 5085 H 476.792 3.97188 2.83006 0
M  V30 5086 H 475.797 5.40207 1.02259 0
M  V30 5087 H 477.022 6.65821 1.3364 0
M  V30 5088 H 474.968 5.64643 3.33938 0
M  V30 5089 H 474.885 7.1445 2.4718 0
M  V30 5090 H 476.153 6.89574 3.63466 0
M  V30 5091 N 480.382 0.0267497 1.57577 0
M  V30 5092 C 481.659 -0.690926 1.82991 0
M  V30 5093 C 482.039 -1.90471 0.910164 0
M  V30 5094 O 481.387 -2.28474 -0.0347985 0
M  V30 5095 C 481.597 -1.07139 3.32148 0
M  V30 5096 C 482.945 -1.46402 3.98562 0
M  V30 5097 O 483.969 -1.16443 3.36629 0
M  V30 5098 O 482.828 -2.02214 5.07712 0
M  V30 5099 H 479.922 -0.338747 0.75444 0
M  V30 5100 H 482.468 0.0542506 1.69613 0
M  V30 5101 H 481.24 -0.207394 3.9075 0
M  V30 5102 H 480.863 -1.87481 3.50623 0
M  V30 5103 N 481.861 -1.55662 -0.24637 0
M  V30 5104 C 482.811 -1.86753 -1.30795 0
M  V30 5105 C 483.795 -0.728445 -1.43466 0
M  V30 5106 O 484.987 -0.99038 -1.46699 0
M  V30 5107 C 482.116 -2.16618 -2.66329 0
M  V30 5108 C 481.202 -3.36855 -2.57661 0
M  V30 5109 N 481.593 -4.56111 -2.18624 0
M  V30 5110 C 479.891 -3.39976 -2.88673 0
M  V30 5111 C 480.592 -5.38247 -2.20601 0
M  V30 5112 N 479.568 -4.77322 -2.60124 0
M  V30 5113 H 483.37 -2.76486 -0.996642 0
M  V30 5114 H 480.884 -1.55896 -0.454994 0
M  V30 5115 H 482.881 -2.37057 -3.42942 0
M  V30 5116 H 481.541 -1.28185 -2.98327 0
M  V30 5117 H 482.552 -4.81726 -1.9016 0
M  V30 5118 H 479.229 -2.61815 -3.25206 0
M  V30 5119 H 480.619 -6.43657 -1.92756 0
M  V30 5120 N 483.339 0.512053 -1.4905 0
M  V30 5121 C 484.585 1.26613 -1.59187 0
M  V30 5122 C 484.94 1.90494 -0.270163 0
M  V30 5123 O 484.233 1.77204 0.728648 0
M  V30 5124 C 484.427 2.36446 -2.68008 0
M  V30 5125 C 484.256 1.83334 -4.10632 0
M  V30 5126 C 483.026 1.65131 -4.77556 0
M  V30 5127 C 485.224 1.35153 -4.96224 0
M  V30 5128 N 483.206 1.06833 -6.04533 0
M  V30 5129 C 484.577 0.889186 -6.13591 0
M  V30 5130 C 486.632 1.23623 -4.82309 0
M  V30 5131 C 485.335 0.322953 -7.18575 0
M  V30 5132 C 487.361 0.683978 -5.87431 0
M  V30 5133 C 486.723 0.2318 -7.04018 0
M  V30 5134 H 482.822 0.453678 -0.636946 0
M  V30 5135 H 485.406 0.575217 -1.86009 0
M  V30 5136 H 483.577 3.03012 -2.42978 0
M  V30 5137 H 485.309 3.03485 -2.67729 0
M  V30 5138 H 482.064 1.89178 -4.34176 0
M  V30 5139 H 482.488 0.796425 -6.72299 0
M  V30 5140 H 487.13 1.57184 -3.92496 0
M  V30 5141 H 484.848 -0.024943 -8.08096 0
M  V30 5142 H 488.434 0.597694 -5.78722 0
M  V30 5143 H 487.314 -0.188869 -7.83973 0
M  V30 5144 N 484.817 1.37938 0.762283 0
M  V30 5145 C 486.094 1.24196 1.51112 0
M  V30 5146 C 486.474 -0.160409 2.1049 0
M  V30 5147 O 485.822 -1.16904 1.96331 0
M  V30 5148 C 486.032 2.34537 2.58445 0
M  V30 5149 C 487.38 2.7254 3.25588 0
M  V30 5150 O 488.404 2.33783 2.68745 0
M  V30 5151 O 487.263 3.39343 4.28379 0
M  V30 5152 H 484.357 0.485175 0.669727 0
M  V30 5153 H 486.903 1.49743 0.798438 0
M  V30 5154 H 485.675 3.28406 2.12756 0
M  V30 5155 H 485.298 2.10505 3.37303 0
M  V30 5156 N 486.295 -0.989507 1.22664 0
M  V30 5157 C 487.205 -2.11449 1.01619 0
M  V30 5158 C 488.221 -1.73962 -0.036545 0
M  V30 5159 O 489.397 -2.00788 0.156924 0
M  V30 5160 C 486.462 -3.41465 0.600204 0
M  V30 5161 C 485.523 -3.93033 1.72695 0
M  V30 5162 C 484.756 -5.16844 1.33071 0
M  V30 5163 O 484.979 -5.7001 0.210975 0
M  V30 5164 O 483.913 -5.6225 2.14845 0
M  V30 5165 H 487.739 -2.32088 1.9588 0
M  V30 5166 H 485.324 -1.09823 1.01289 0
M  V30 5167 H 487.206 -4.19695 0.37873 0
M  V30 5168 H 485.881 -3.22178 -0.313511 0
M  V30 5169 H 484.788 -3.15961 2.00298 0
M  V30 5170 H 486.121 -4.16758 2.61865 0
M  V30 5171 N 487.773 -1.03688 -1.18687 0
M  V30 5172 C 489.019 -0.739123 -1.88851 0
M  V30 5173 C 489.352 0.731042 -1.79915 0
M  V30 5174 O 488.627 1.53313 -1.19688 0
M  V30 5175 C 488.91 -1.20106 -3.3948 0
M  V30 5176 C 488.763 -2.73304 -3.57246 0
M  V30 5177 C 490.082 -0.788134 -4.32986 0
M  V30 5178 H 487.201 -0.269978 -0.68577 0
M  V30 5179 H 489.843 -1.28822 -1.3966 0
M  V30 5180 H 487.993 -0.733915 -3.81505 0
M  V30 5181 H 489.665 -3.28027 -3.24339 0
M  V30 5182 H 487.908 -3.13313 -3.00029 0
M  V30 5183 H 488.579 -3.00684 -4.62918 0
M  V30 5184 H 491.055 -1.19005 -3.98719 0
M  V30 5185 H 489.931 -1.13915 -5.36949 0
M  V30 5186 H 490.192 0.308988 -4.41019 0
M  V30 5187 N 489.251 1.34841 -0.815825 0
M  V30 5188 C 490.198 2.29644 -0.230664 0
M  V30 5189 C 491.168 1.53253 0.640533 0
M  V30 5190 O 492.353 1.81653 0.583672 0
M  V30 5191 C 489.493 3.39715 0.607275 0
M  V30 5192 C 488.606 4.31056 -0.28538 0
M  V30 5193 C 487.741 5.28225 0.561446 0
M  V30 5194 C 486.78 6.11204 -0.331035 0
M  V30 5195 N 485.917 7.00483 0.476302 0
M  V30 5196 H 490.757 2.79095 -1.0445 0
M  V30 5197 H 488.294 1.37351 -0.526595 0
M  V30 5198 H 490.252 4.02208 1.10835 0
M  V30 5199 H 488.882 2.91517 1.38629 0
M  V30 5200 H 487.934 3.69487 -0.904621 0
M  V30 5201 H 489.246 4.89239 -0.97193 0
M  V30 5202 H 488.4 5.96135 1.12728 0
M  V30 5203 H 487.139 4.70562 1.28153 0
M  V30 5204 H 486.144 5.42232 -0.909069 0
M  V30 5205 H 487.369 6.70947 -1.04912 0
M  V30 5206 H 485.315 6.45296 1.18019 0
M  V30 5207 H 485.232 7.55847 -0.152008 0
M  V30 5208 H 486.5 7.7273 1.02512 0
M  V30 5209 N 490.729 0.570148 1.46925 0
M  V30 5210 C 491.639 -0.173061 2.33961 0
M  V30 5211 C 492.655 -0.898825 1.48987 0
M  V30 5212 O 493.831 -0.864825 1.81887 0
M  V30 5213 C 490.896 -1.18177 3.25937 0
M  V30 5214 C 489.957 -0.462041 4.26806 0
M  V30 5215 C 489.19 -1.4227 5.14388 0
M  V30 5216 O 489.413 -2.65842 5.04662 0
M  V30 5217 O 488.347 -0.940127 5.94513 0
M  V30 5218 H 492.173 0.541216 2.98839 0
M  V30 5219 H 489.758 0.330647 1.45695 0
M  V30 5220 H 491.64 -1.76372 3.82715 0
M  V30 5221 H 490.315 -1.87774 2.63671 0
M  V30 5222 H 489.222 0.161429 3.73752 0
M  V30 5223 H 490.555 0.192719 4.91823 0
M  V30 5224 N 492.207 -1.54576 0.307264 0
M  V30 5225 C 493.117 -2.27435 -0.57536 0
M  V30 5226 C 494.133 -1.31183 -1.14311 0
M  V30 5227 O 495.309 -1.64175 -1.16656 0
M  V30 5228 C 492.374 -3.00566 -1.72803 0
M  V30 5229 C 491.435 -4.12369 -1.19373 0
M  V30 5230 C 490.668 -4.82003 -2.29147 0
M  V30 5231 O 490.891 -4.51038 -3.49171 0
M  V30 5232 O 489.825 -5.69271 -1.95485 0
M  V30 5233 H 493.651 -3.03696 0.0158558 0
M  V30 5234 H 491.236 -1.49219 0.0735064 0
M  V30 5235 H 493.118 -3.46416 -2.39946 0
M  V30 5236 H 491.793 -2.27195 -2.30574 0
M  V30 5237 H 490.7 -3.70905 -0.487851 0
M  V30 5238 H 492.033 -4.87736 -0.661376 0
M  V30 5239 N 493.685 -0.035106 -1.57561 0
M  V30 5240 C 494.618 0.979673 -2.06101 0
M  V30 5241 C 495.596 1.31378 -0.958046 0
M  V30 5242 O 496.78 1.42942 -1.22881 0
M  V30 5243 C 493.907 2.29809 -2.48808 0
M  V30 5244 C 492.953 2.11817 -3.70184 0
M  V30 5245 S 493.786 1.41143 -5.16565 0
M  V30 5246 C 494.942 2.74341 -5.62572 0
M  V30 5247 H 495.175 0.566506 -2.91853 0
M  V30 5248 H 492.708 0.176744 -1.53385 0
M  V30 5249 H 494.666 3.056 -2.74078 0
M  V30 5250 H 493.327 2.68257 -1.63392 0
M  V30 5251 H 492.52 3.09299 -3.97933 0
M  V30 5252 H 492.122 1.44168 -3.45097 0
M  V30 5253 H 494.414 3.70562 -5.67177 0
M  V30 5254 H 495.357 2.51249 -6.62027 0
M  V30 5255 H 495.765 2.79863 -4.90242 0
M  V30 5256 N 495.163 1.55791 0.238111 0
M  V30 5257 C 496.391 1.82098 0.982233 0
M  V30 5258 C 496.806 0.612025 1.78605 0
M  V30 5259 O 496.163 -0.419381 1.77616 0
M  V30 5260 C 496.214 3.0673 1.91309 0
M  V30 5261 O 495.935 4.2296 1.14179 0
M  V30 5262 C 497.436 3.45903 2.77248 0
M  V30 5263 H 494.656 0.605748 0.288635 0
M  V30 5264 H 497.2 2.02862 0.258341 0
M  V30 5265 H 495.355 2.87991 2.59114 0
M  V30 5266 H 495.769 4.93653 1.7722 0
M  V30 5267 H 497.243 4.36189 3.38295 0
M  V30 5268 H 497.72 2.66891 3.48806 0
M  V30 5269 H 498.326 3.67024 2.14881 0
M  V30 5270 N 496.642 -0.504142 1.49319 0
M  V30 5271 C 497.867 -1.28729 1.62615 0
M  V30 5272 C 498.292 -1.85752 0.296309 0
M  V30 5273 O 497.65 -1.65704 -0.735649 0
M  V30 5274 C 497.698 -2.39561 2.69524 0
M  V30 5275 O 496.802 -3.43324 2.28478 0
M  V30 5276 H 496.143 -0.380172 0.544395 0
M  V30 5277 H 498.673 -0.603872 1.95485 0
M  V30 5278 H 498.683 -2.8537 2.91595 0
M  V30 5279 H 497.358 -1.97423 3.66056 0
M  V30 5280 H 495.935 -3.03455 2.16725 0
M  V30 5281 N 498.12 -1.38341 -0.754957 0
M  V30 5282 C 499.083 -1.35262 -1.85032 0
M  V30 5283 C 500.083 -0.253393 -1.58791 0
M  V30 5284 O 501.273 -0.510205 -1.66561 0
M  V30 5285 C 498.405 -1.10544 -3.22479 0
M  V30 5286 H 499.598 -2.32712 -1.8917 0
M  V30 5287 H 497.151 -1.23614 -0.956515 0
M  V30 5288 H 497.886 -0.136952 -3.24011 0
M  V30 5289 H 497.671 -1.90127 -3.4292 0
M  V30 5290 H 499.161 -1.11082 -4.02555 0
M  V30 5291 N 499.598 0.982988 -1.23187 0
M  V30 5292 C 500.528 2.09301 -1.03515 0
M  V30 5293 C 501.509 1.70035 0.0471136 0
M  V30 5294 O 502.694 1.93847 -0.117029 0
M  V30 5295 C 499.824 3.4167 -0.622791 0
M  V30 5296 C 498.778 3.94828 -1.65211 0
M  V30 5297 C 498.104 5.23362 -1.09527 0
M  V30 5298 C 499.404 4.2439 -3.04451 0
M  V30 5299 H 501.098 2.26016 -1.96359 0
M  V30 5300 H 498.644 1.08611 -0.945501 0
M  V30 5301 H 500.597 4.18746 -0.472233 0
M  V30 5302 H 499.321 3.24811 0.341329 0
M  V30 5303 H 497.98 3.19895 -1.79061 0
M  V30 5304 H 497.628 5.02852 -0.122211 0
M  V30 5305 H 497.328 5.59895 -1.783 0
M  V30 5306 H 498.852 6.03062 -0.956511 0
M  V30 5307 H 500.266 4.92225 -2.93917 0
M  V30 5308 H 498.663 4.72118 -3.70438 0
M  V30 5309 H 499.733 3.31765 -3.53638 0
M  V30 5310 N 501.076 1.04316 1.18135 0
M  V30 5311 C 502.039 0.640794 2.2006 0
M  V30 5312 C 503.039 -0.303124 1.57917 0
M  V30 5313 O 504.229 -0.0881855 1.73977 0
M  V30 5314 C 501.361 -0.060148 3.40847 0
M  V30 5315 H 502.554 1.54281 2.57172 0
M  V30 5316 H 500.107 0.836004 1.32063 0
M  V30 5317 H 500.842 -0.975845 3.0927 0
M  V30 5318 H 500.627 0.618319 3.87194 0
M  V30 5319 H 502.117 -0.328082 4.16309 0
M  V30 5320 N 502.554 -1.34406 0.822964 0
M  V30 5321 C 503.782 -2.02508 0.424039 0
M  V30 5322 C 504.197 -1.61975 -0.970022 0
M  V30 5323 O 503.554 -0.825228 -1.62777 0
M  V30 5324 C 503.605 -3.57789 0.516657 0
M  V30 5325 O 503.326 -3.96853 1.85577 0
M  V30 5326 C 504.827 -4.43157 0.112637 0
M  V30 5327 H 502.047 -0.649063 0.170173 0
M  V30 5328 H 504.591 -1.7168 1.11113 0
M  V30 5329 H 502.746 -3.87207 -0.122353 0
M  V30 5330 H 503.16 -4.91538 1.83005 0
M  V30 5331 H 504.634 -5.51527 0.228526 0
M  V30 5332 H 505.111 -4.28939 -0.943837 0
M  V30 5333 H 505.717 -4.19067 0.725449 0
M  V30 5334 N 504.032 -0.577932 -1.46621 0
M  V30 5335 C 504.965 0.206312 -2.27265 0
M  V30 5336 C 505.943 0.901306 -1.35334 0
M  V30 5337 O 507.127 0.916151 -1.64739 0
M  V30 5338 C 504.254 1.29563 -3.1294 0
M  V30 5339 C 503.3 0.706981 -4.206 0
M  V30 5340 S 504.133 -0.462459 -5.33499 0
M  V30 5341 C 505.289 0.628171 -6.2274 0
M  V30 5342 H 505.522 -0.477961 -2.93433 0
M  V30 5343 H 503.055 -0.364715 -1.50031 0
M  V30 5344 H 505.013 1.91935 -3.62865 0
M  V30 5345 H 503.674 1.95183 -2.46095 0
M  V30 5346 H 502.867 1.52565 -4.80354 0
M  V30 5347 H 502.469 0.159022 -3.73662 0
M  V30 5348 H 504.761 1.51506 -6.60342 0
M  V30 5349 H 505.704 0.0674961 -7.08068 0
M  V30 5350 H 506.112 0.930167 -5.56784 0
M  V30 5351 N 505.51 1.54411 -0.315457 0
M  V30 5352 C 506.926 1.59556 0.037464 0
M  V30 5353 C 507.126 1.33217 1.5118 0
M  V30 5354 O 506.182 1.11264 2.26664 0
M  V30 5355 C 507.495 2.98372 -0.373477 0
M  V30 5356 C 509.043 3.11324 -0.323452 0
M  V30 5357 C 509.518 4.52472 -0.709433 0
M  V30 5358 N 511.009 4.58437 -0.662524 0
M  V30 5359 C 511.744 5.65751 -0.933474 0
M  V30 5360 N 511.24 6.81039 -1.27114 0
M  V30 5361 N 513.033 5.55489 -0.859573 0
M  V30 5362 H 505.184 1.6979 -1.27614 0
M  V30 5363 H 507.447 0.793732 -0.518356 0
M  V30 5364 H 507.153 3.22618 -1.40037 0
M  V30 5365 H 507.027 3.76264 0.265615 0
M  V30 5366 H 509.414 2.86818 0.694223 0
M  V30 5367 H 509.495 2.35555 -0.997367 0
M  V30 5368 H 509.139 4.7771 -1.72498 0
M  V30 5369 H 509.069 5.26598 -0.0132923 0
M  V30 5370 H 511.56 3.75636 -0.413065 0
M  V30 5371 H 511.873 7.58816 -1.46348 0
M  V30 5372 H 510.218 6.82555 -1.30932 0
M  V30 5373 H 513.409 4.64299 -0.595324 0
M  V30 5374 H 513.582 6.39036 -1.0741 0
M  V30 5375 N 506.988 0.0434614 1.5754 0
M  V30 5376 C 508.234 -0.632971 1.92669 0
M  V30 5377 C 508.567 -1.70947 0.921446 0
M  V30 5378 O 507.842 -1.94426 -0.0537202 0
M  V30 5379 C 508.125 -1.23619 3.38216 0
M  V30 5380 C 507.978 -0.168274 4.49485 0
M  V30 5381 C 509.297 -2.15008 3.84005 0
M  V30 5382 H 506.416 -0.228629 0.700641 0
M  V30 5383 H 509.058 0.103651 1.89717 0
M  V30 5384 H 507.208 -1.864 3.40863 0
M  V30 5385 H 508.88 0.463196 4.58969 0
M  V30 5386 H 507.123 0.504581 4.30855 0
M  V30 5387 H 507.794 -0.630218 5.48391 0
M  V30 5388 H 510.27 -1.62198 3.83185 0
M  V30 5389 H 509.146 -2.54161 4.86511 0
M  V30 5390 H 509.407 -3.04707 3.20322 0
M  V30 5391 N 508.466 -1.55915 -0.229846 0
M  V30 5392 C 509.743 -1.6932 -0.979295 0
M  V30 5393 C 510.123 -0.588321 -2.02736 0
M  V30 5394 O 509.471 0.40586 -2.24867 0
M  V30 5395 C 509.681 -3.10305 -1.59724 0
M  V30 5396 C 511.029 -3.6945 -2.09264 0
M  V30 5397 O 512.053 -3.13214 -1.69633 0
M  V30 5398 O 510.912 -4.68072 -2.82082 0
M  V30 5399 H 508.006 -0.689314 -0.456919 0
M  V30 5400 H 510.552 -1.68238 -0.222283 0
M  V30 5401 H 509.324 -3.82177 -0.840039 0
M  V30 5402 H 508.947 -3.1547 -2.42001 0
M  V30 5403 N 509.944 0.496216 -1.49584 0
M  V30 5404 C 511.174 1.27209 -1.62793 0
M  V30 5405 C 511.582 1.86799 -0.300476 0
M  V30 5406 O 510.925 1.68802 0.724674 0
M  V30 5407 C 510.987 2.43812 -2.64189 0
M  V30 5408 C 510.651 2.05055 -4.08414 0
M  V30 5409 C 511.648 1.58752 -4.9507 0
M  V30 5410 C 509.333 2.14543 -4.54177 0
M  V30 5411 C 511.327 1.22448 -6.25528 0
M  V30 5412 C 509.014 1.77851 -5.84647 0
M  V30 5413 C 510.012 1.31878 -6.70147 0
M  V30 5414 O 509.7 0.956834 -7.98185 0
M  V30 5415 H 509.432 0.391848 -0.550846 0
M  V30 5416 H 511.986 0.601712 -1.96389 0
M  V30 5417 H 510.216 3.13941 -2.25783 0
M  V30 5418 H 511.905 3.05829 -2.66877 0
M  V30 5419 H 512.671 1.50863 -4.60939 0
M  V30 5420 H 508.55 2.49277 -3.87791 0
M  V30 5421 H 512.094 0.864933 -6.92217 0
M  V30 5422 H 507.991 1.8539 -6.18305 0
M  V30 5423 H 508.759 1.08789 -8.11238 0
M  V30 5424 N 511.423 1.38739 0.74761 0
M  V30 5425 C 512.7 1.25791 1.49786 0
M  V30 5426 C 513.08 -0.138075 2.10648 0
M  V30 5427 O 512.428 -1.14815 1.9756 0
M  V30 5428 C 512.638 2.37265 2.55942 0
M  V30 5429 C 513.986 2.75978 3.22679 0
M  V30 5430 O 515.01 2.36621 2.6625 0
M  V30 5431 O 513.869 3.43867 4.24756 0
M  V30 5432 H 510.963 0.492251 0.664543 0
M  V30 5433 H 513.509 1.50582 0.782511 0
M  V30 5434 H 512.281 3.30644 2.0926 0
M  V30 5435 H 511.904 2.14071 3.35051 0
M  V30 5436 N 512.901 -0.976442 1.23707 0
M  V30 5437 C 513.833 -2.07212 0.979574 0
M  V30 5438 C 514.846 -1.6273 -0.0478528 0
M  V30 5439 O 516.035 -1.77506 0.18815 0
M  V30 5440 C 513.135 -3.35835 0.45479 0
M  V30 5441 C 512.308 -4.09268 1.54331 0
M  V30 5442 C 511.367 -5.16166 1.02271 0
M  V30 5443 O 510.393 -5.42827 1.71254 0
M  V30 5444 N 511.595 -5.80313 -0.147419 0
M  V30 5445 H 514.36 -2.29878 1.92292 0
M  V30 5446 H 511.921 -1.14343 1.14618 0
M  V30 5447 H 513.913 -4.04597 0.0914631 0
M  V30 5448 H 512.483 -3.10106 -0.394068 0
M  V30 5449 H 511.703 -3.34906 2.07923 0
M  V30 5450 H 512.991 -4.55095 2.27522 0
M  V30 5451 H 512.389 -5.61043 -0.724353 0
M  V30 5452 H 510.946 -6.50231 -0.451972 0
M  V30 5453 N 514.379 -1.04941 -1.1758 0
M  V30 5454 C 515.625 -0.759112 -1.88057 0
M  V30 5455 C 515.958 0.711918 -1.8068 0
M  V30 5456 O 515.233 1.52035 -1.21308 0
M  V30 5457 C 515.516 -1.237 -3.38187 0
M  V30 5458 C 515.369 -2.77078 -3.54327 0
M  V30 5459 C 516.688 -0.834014 -4.32125 0
M  V30 5460 H 513.807 -0.277237 -0.682868 0
M  V30 5461 H 516.449 -1.30296 -1.38286 0
M  V30 5462 H 514.599 -0.774337 -3.80705 0
M  V30 5463 H 516.271 -3.31449 -3.20842 0
M  V30 5464 H 514.514 -3.16477 -2.96689 0
M  V30 5465 H 515.185 -3.05577 -4.59703 0
M  V30 5466 H 517.661 -1.23228 -3.97434 0
M  V30 5467 H 516.537 -1.19603 -5.35711 0
M  V30 5468 H 516.798 0.262195 -4.41322 0
M  V30 5469 N 515.857 1.33968 -0.830081 0
M  V30 5470 C 516.804 2.29387 -0.255008 0
M  V30 5471 C 517.774 1.53923 0.624243 0
M  V30 5472 O 518.959 1.82262 0.564372 0
M  V30 5473 C 516.099 3.4034 0.571209 0
M  V30 5474 C 515.212 4.30729 -0.331083 0
M  V30 5475 C 514.347 5.2879 0.505389 0
M  V30 5476 C 513.386 6.10819 -0.395843 0
M  V30 5477 N 512.523 7.00948 0.401979 0
M  V30 5478 H 517.363 2.77972 -1.07404 0
M  V30 5479 H 514.9 1.36785 -0.541133 0
M  V30 5480 H 516.858 4.03361 1.06562 0
M  V30 5481 H 515.488 2.9297 1.35529 0
M  V30 5482 H 514.54 3.68507 -0.943759 0
M  V30 5483 H 515.852 4.88181 -1.02377 0
M  V30 5484 H 515.006 5.97297 1.06399 0
M  V30 5485 H 513.745 4.71894 1.23155 0
M  V30 5486 H 512.75 5.41238 -0.966529 0
M  V30 5487 H 513.975 6.69797 -1.12023 0
M  V30 5488 H 511.921 6.46512 1.11168 0
M  V30 5489 H 511.838 7.55643 -0.232167 0
M  V30 5490 H 513.106 7.73774 0.943102 0
M  V30 5491 N 517.335 0.585699 1.46312 0
M  V30 5492 C 518.584 0.0701192 2.01578 0
M  V30 5493 C 518.897 -1.29889 1.46247 0
M  V30 5494 O 520.103 -1.90598 1.93351 0
M  V30 5495 C 518.559 0.0747499 3.59822 0
M  V30 5496 C 518.167 1.44226 4.24149 0
M  V30 5497 C 519.911 -0.38673 4.22735 0
M  V30 5498 C 517.818 1.40446 5.74481 0
M  V30 5499 H 516.748 0.0224441 0.753666 0
M  V30 5500 H 519.399 0.737789 1.68015 0
M  V30 5501 H 517.781 -0.659144 3.90476 0
M  V30 5502 H 518.955 2.19612 4.05101 0
M  V30 5503 H 517.27 1.84401 3.73343 0
M  V30 5504 H 519.867 -0.433853 5.32937 0
M  V30 5505 H 520.21 -1.40489 3.91878 0
M  V30 5506 H 520.743 0.293195 3.96718 0
M  V30 5507 H 517.482 2.39952 6.10003 0
M  V30 5508 H 517.002 0.692845 5.95785 0
M  V30 5509 H 518.681 1.11865 6.37256 0
M  V30 5510 N 518.813 -1.54241 0.323641 0
M  V30 5511 C 519.76 -2.24339 -0.542277 0
M  V30 5512 C 520.73 -1.23421 -1.11159 0
M  V30 5513 O 521.915 -1.52104 -1.15192 0
M  V30 5514 C 519.055 -3.00479 -1.69725 0
M  V30 5515 C 518.168 -4.16214 -1.15716 0
M  V30 5516 C 517.303 -4.79884 -2.27783 0
M  V30 5517 C 516.342 -5.87722 -1.71023 0
M  V30 5518 N 515.479 -6.45254 -2.76752 0
M  V30 5519 H 520.319 -2.97935 0.0620613 0
M  V30 5520 H 517.856 -1.47039 0.0423993 0
M  V30 5521 H 519.814 -3.42869 -2.3769 0
M  V30 5522 H 518.444 -2.29217 -2.27288 0
M  V30 5523 H 517.496 -3.78605 -0.369063 0
M  V30 5524 H 518.808 -4.93838 -0.701832 0
M  V30 5525 H 517.962 -5.25243 -3.03651 0
M  V30 5526 H 516.701 -4.01641 -2.76652 0
M  V30 5527 H 515.706 -5.41765 -0.936518 0
M  V30 5528 H 516.931 -6.67863 -1.2303 0
M  V30 5529 H 514.877 -5.69884 -3.24912 0
M  V30 5530 H 514.794 -7.18292 -2.35782 0
M  V30 5531 H 516.062 -6.95269 -3.5245 0
M  V30 5532 N 520.291 -0.0518155 -1.57515 0
M  V30 5533 C 521.568 0.661727 -1.84067 0
M  V30 5534 C 521.948 1.88999 -0.940351 0
M  V30 5535 O 521.296 2.285 -0.00155404 0
M  V30 5536 C 521.506 1.01841 -3.3381 0
M  V30 5537 C 522.854 1.40043 -4.00841 0
M  V30 5538 O 523.878 1.11073 -3.38439 0
M  V30 5539 O 522.737 1.94111 -5.10865 0
M  V30 5540 H 519.831 0.326702 -0.759733 0
M  V30 5541 H 522.377 -0.0812277 -1.69505 0
M  V30 5542 H 521.149 0.145202 -3.91031 0
M  V30 5543 H 520.772 1.81879 -3.53562 0
M  V30 5544 N 521.769 1.56035 0.221574 0
M  V30 5545 C 522.699 1.95434 1.2778 0
M  V30 5546 C 523.68 0.822564 1.48889 0
M  V30 5547 O 524.865 1.08486 1.61072 0
M  V30 5548 C 521.995 2.27102 2.62759 0
M  V30 5549 C 520.949 3.4277 2.56306 0
M  V30 5550 C 520.275 3.60043 3.95314 0
M  V30 5551 C 521.575 4.77742 2.11093 0
M  V30 5552 H 523.269 2.83912 0.950504 0
M  V30 5553 H 520.815 1.36596 0.455791 0
M  V30 5554 H 522.768 2.53256 3.36807 0
M  V30 5555 H 521.492 1.35478 2.97176 0
M  V30 5556 H 520.151 3.16664 1.84715 0
M  V30 5557 H 519.799 2.65794 4.27039 0
M  V30 5558 H 519.499 4.37841 3.91879 0
M  V30 5559 H 521.023 3.88545 4.71025 0
M  V30 5560 H 522.437 5.03102 2.74885 0
M  V30 5561 H 520.834 5.58823 2.18716 0
M  V30 5562 H 521.904 4.731 1.06321 0
M  V30 5563 N 523.247 -0.488276 1.49845 0
M  V30 5564 C 524.194 -1.58836 1.67451 0
M  V30 5565 C 525.164 -1.57886 0.515857 0
M  V30 5566 O 526.349 -1.75679 0.744403 0
M  V30 5567 C 523.489 -2.96915 1.75885 0
M  V30 5568 C 522.602 -3.07784 3.03138 0
M  V30 5569 C 521.737 -4.36673 3.02473 0
M  V30 5570 C 520.776 -4.41222 4.24252 0
M  V30 5571 N 519.913 -5.61557 4.21424 0
M  V30 5572 H 524.753 -1.43131 2.61376 0
M  V30 5573 H 522.29 -0.696186 1.29583 0
M  V30 5574 H 524.248 -3.76965 1.78755 0
M  V30 5575 H 522.878 -3.11295 0.85414 0
M  V30 5576 H 521.93 -2.20717 3.09819 0
M  V30 5577 H 523.242 -3.07005 3.93128 0
M  V30 5578 H 522.396 -5.25055 3.03977 0
M  V30 5579 H 521.135 -4.40037 2.10283 0
M  V30 5580 H 520.14 -3.5124 4.22978 0
M  V30 5581 H 521.365 -4.39564 5.17649 0
M  V30 5582 H 519.311 -5.65738 3.32078 0
M  V30 5583 H 519.228 -5.62447 5.05163 0
M  V30 5584 H 520.496 -6.52111 4.2705 0
M  V30 5585 N 524.725 -1.39134 -0.740242 0
M  V30 5586 C 525.953 -1.39334 -1.5295 0
M  V30 5587 C 526.368 0.0135008 -1.88795 0
M  V30 5588 O 525.725 0.983524 -1.5373 0
M  V30 5589 C 525.776 -2.2614 -2.82034 0
M  V30 5590 O 525.497 -3.61345 -2.47712 0
M  V30 5591 C 526.998 -2.34666 -3.76094 0
M  V30 5592 H 524.218 -0.476103 -0.472828 0
M  V30 5593 H 526.762 -1.82883 -0.9151 0
M  V30 5594 H 524.917 -1.86018 -3.39818 0
M  V30 5595 H 525.331 -4.07194 -3.30595 0
M  V30 5596 H 526.805 -2.99663 -4.63579 0
M  V30 5597 H 527.282 -1.36426 -4.17474 0
M  V30 5598 H 527.888 -2.75236 -3.2423 0
M  V30 5599 N 526.204 0.969867 -1.24223 0
M  V30 5600 C 527.429 1.75289 -1.10853 0
M  V30 5601 C 527.854 1.85091 0.335079 0
M  V30 5602 O 527.212 1.32024 1.24255 0
M  V30 5603 C 527.26 3.15255 -1.75062 0
M  V30 5604 O 526.364 3.99589 -1.01992 0
M  V30 5605 H 525.705 0.538904 -0.387915 0
M  V30 5606 H 528.235 1.21675 -1.64488 0
M  V30 5607 H 528.245 3.65787 -1.80731 0
M  V30 5608 H 526.92 3.07436 -2.801 0
M  V30 5609 H 525.497 3.58077 -1.04094 0
M  V30 5610 N 527.682 1.05563 1.17022 0
M  V30 5611 C 528.63 0.653887 2.2322 0
M  V30 5612 C 529.624 -0.326642 1.66221 0
M  V30 5613 O 530.83 -0.192301 1.7897 0
M  V30 5614 H 527.205 0.193297 0.726733 0
M  V30 5615 H 529.176 1.5596 2.54399 0
M  V30 5616 C 527.925 0.0485434 3.47666 0
M  V30 5617 H 527.248 0.79413 3.91834 0
M  V30 5618 H 528.688 -0.195133 4.23551 0
M  V30 5619 C 527.147 -1.20583 3.14581 0
M  V30 5620 O 527.677 -2.29475 3.29703 0
M  V30 5621 N 525.883 -1.10493 2.68774 0
M  V30 5622 H 525.43 -0.218795 2.56669 0
M  V30 5623 H 525.388 -1.94507 2.47011 0
M  V30 5624 N 529.16 -1.33526 0.837174 0
M  V30 5625 C 530.108 -2.31168 0.257698 0
M  V30 5626 C 531.102 -1.5806 -0.609388 0
M  V30 5627 O 532.308 -1.72941 -0.499139 0
M  V30 5628 H 528.683 -0.74922 0.0646058 0
M  V30 5629 H 530.654 -2.77552 1.09578 0
M  V30 5630 C 529.403 -3.4326 -0.553887 0
M  V30 5631 H 528.726 -3.99665 0.104008 0
M  V30 5632 H 530.166 -4.13782 -0.925219 0
M  V30 5633 C 528.625 -2.88965 -1.73207 0
M  V30 5634 O 529.155 -2.85013 -2.83073 0
M  V30 5635 N 527.361 -2.45596 -1.55342 0
M  V30 5636 H 526.908 -2.49009 -0.659705 0
M  V30 5637 H 526.866 -2.0962 -2.34322 0
M  V30 5638 N 530.638 -0.59345 -1.46 0
M  V30 5639 C 532.054 -0.255965 -1.57534 0
M  V30 5640 C 532.254 1.24167 -1.58697 0
M  V30 5641 O 531.31 2.02398 -1.50968 0
M  V30 5642 C 532.623 -0.91466 -2.86451 0
M  V30 5643 C 534.171 -0.889253 -3.00102 0
M  V30 5644 C 534.646 -1.52769 -4.3177 0
M  V30 5645 N 536.137 -1.49253 -4.38495 0
M  V30 5646 C 536.872 -1.9558 -5.39014 0
M  V30 5647 N 536.368 -2.49929 -6.46148 0
M  V30 5648 N 538.161 -1.86432 -5.30282 0
M  V30 5649 H 530.312 -1.56604 -1.43489 0
M  V30 5650 H 532.575 -0.655207 -0.685133 0
M  V30 5651 H 532.281 -1.96861 -2.91442 0
M  V30 5652 H 532.155 -0.429356 -3.74748 0
M  V30 5653 H 534.542 0.156111 -2.94687 0
M  V30 5654 H 534.623 -1.41268 -2.13253 0
M  V30 5655 H 534.267 -2.57231 -4.37944 0
M  V30 5656 H 534.197 -0.979398 -5.17412 0
M  V30 5657 H 536.688 -1.09536 -3.61677 0
M  V30 5658 H 537.001 -2.83109 -7.19075 0
M  V30 5659 H 535.346 -2.53961 -6.46938 0
M  V30 5660 H 538.537 -1.43722 -4.4549 0
M  V30 5661 H 538.71 -2.22852 -6.08474 0
M  V30 5662 N 532.116 1.54067 -0.331816 0
M  V30 5663 C 533.046 2.27569 0.522932 0
M  V30 5664 C 534.027 1.28679 1.11247 0
M  V30 5665 O 535.212 1.57504 1.13605 0
M  V30 5666 C 532.342 3.0397 1.67987 0
M  V30 5667 C 531.296 4.10267 1.21924 0
M  V30 5668 C 530.622 4.74555 2.46377 0
M  V30 5669 C 531.922 5.21268 0.32815 0
M  V30 5670 H 533.616 2.99264 -0.0901977 0
M  V30 5671 H 531.162 1.4393 -0.044821 0
M  V30 5672 H 533.115 3.54123 2.28418 0
M  V30 5673 H 531.839 2.29906 2.31971 0
M  V30 5674 H 530.498 3.61009 0.637809 0
M  V30 5675 H 530.146 3.97098 3.08743 0
M  V30 5676 H 529.846 5.46363 2.16243 0
M  V30 5677 H 531.37 5.27487 3.07555 0
M  V30 5678 H 532.784 5.67128 0.838978 0
M  V30 5679 H 531.181 5.99982 0.119228 0
M  V30 5680 H 532.251 4.80673 -0.638839 0
M  V30 5681 N 533.594 0.0601682 1.57485 0
M  V30 5682 C 534.524 -0.90889 2.15085 0
M  V30 5683 C 535.505 -1.31838 1.07484 0
M  V30 5684 O 536.69 -1.3915 1.35466 0
M  V30 5685 C 533.82 -2.18059 2.7031 0
M  V30 5686 C 532.774 -1.91088 3.82974 0
M  V30 5687 C 532.1 -3.24789 4.24754 0
M  V30 5688 C 533.4 -1.22535 5.07723 0
M  V30 5689 H 535.094 -0.429093 2.96309 0
M  V30 5690 H 532.64 -0.204952 1.42534 0
M  V30 5691 H 534.593 -2.86258 3.09248 0
M  V30 5692 H 533.317 -2.6826 1.8629 0
M  V30 5693 H 531.976 -1.25297 3.44523 0
M  V30 5694 H 531.624 -3.72809 3.37672 0
M  V30 5695 H 531.324 -3.07538 5.00694 0
M  V30 5696 H 532.848 -3.94205 4.66299 0
M  V30 5697 H 534.262 -1.80783 5.4405 0
M  V30 5698 H 532.659 -1.1558 5.88864 0
M  V30 5699 H 533.729 -0.202692 4.84476 0
M  V30 5700 N 535.072 -1.5615 -0.213296 0
M  V30 5701 C 536.02 -1.93953 -1.28394 0
M  V30 5702 C 537.014 -0.822592 -1.48087 0
M  V30 5703 O 538.22 -1.00748 -1.49164 0
M  V30 5704 H 534.595 -0.61648 -0.430646 0
M  V30 5705 H 536.566 -2.83275 -0.937977 0
M  V30 5706 C 535.315 -2.27969 -2.62537 0
M  V30 5707 H 534.638 -3.13432 -2.48194 0
M  V30 5708 H 536.078 -2.58297 -3.36242 0
M  V30 5709 C 534.537 -1.10775 -3.18167 0
M  V30 5710 O 535.067 -0.373201 -3.99963 0
M  V30 5711 N 533.273 -0.889377 -2.76656 0
M  V30 5712 H 532.82 -1.48843 -2.10246 0
M  V30 5713 H 532.778 -0.107 -3.14218 0
M  V30 5714 N 536.55 0.480323 -1.50102 0
M  V30 5715 C 537.497 1.57946 -1.6829 0
M  V30 5716 C 538.467 1.57611 -0.524223 0
M  V30 5717 O 539.652 1.75282 -0.753709 0
M  V30 5718 C 536.792 2.95978 -1.77457 0
M  V30 5719 C 535.905 3.06173 -3.04766 0
M  V30 5720 C 535.04 4.35063 -3.04784 0
M  V30 5721 C 534.079 4.38966 -4.26586 0
M  V30 5722 N 533.216 5.59314 -4.24396 0
M  V30 5723 H 538.056 1.41743 -2.62131 0
M  V30 5724 H 535.593 0.689304 -1.2995 0
M  V30 5725 H 537.551 3.76011 -1.80752 0
M  V30 5726 H 536.181 3.10837 -0.870637 0
M  V30 5727 H 535.233 2.19071 -3.10986 0
M  V30 5728 H 536.545 3.04916 -3.9475 0
M  V30 5729 H 535.699 5.23436 -3.06757 0
M  V30 5730 H 534.438 4.38915 -2.12614 0
M  V30 5731 H 533.443 3.48992 -4.24835 0
M  V30 5732 H 534.668 4.36813 -5.19972 0
M  V30 5733 H 532.614 5.63969 -3.35074 0
M  V30 5734 H 532.531 5.5976 -5.08138 0
M  V30 5735 H 533.799 6.49837 -4.30502 0
M  V30 5736 N 538.028 1.39524 0.732853 0
M  V30 5737 C 539.444 1.21176 1.03868 0
M  V30 5738 C 539.644 0.0748448 2.01361 0
M  V30 5739 O 538.7 -0.57281 2.45917 0
M  V30 5740 C 540.013 2.54667 1.59892 0
M  V30 5741 C 541.561 2.6153 1.71962 0
M  V30 5742 C 542.036 3.95248 2.31394 0
M  V30 5743 N 543.527 3.96899 2.38801 0
M  V30 5744 C 544.262 4.97138 2.85729 0
M  V30 5745 N 543.758 6.07775 3.32537 0
M  V30 5746 N 545.551 4.84516 2.84957 0
M  V30 5747 H 537.702 2.12225 0.086304 0
M  V30 5748 H 539.965 0.942614 0.100907 0
M  V30 5749 H 539.671 3.38423 0.95721 0
M  V30 5750 H 539.545 2.74538 2.58668 0
M  V30 5751 H 541.932 1.78156 2.35254 0
M  V30 5752 H 542.013 2.45507 0.718327 0
M  V30 5753 H 541.657 4.79054 1.68729 0
M  V30 5754 H 541.587 4.08593 3.32204 0
M  V30 5755 H 544.078 3.16998 2.05719 0
M  V30 5756 H 544.391 6.8017 3.66862 0
M  V30 5757 H 542.736 6.11366 3.30541 0
M  V30 5758 H 545.927 3.97185 2.47713 0
M  V30 5759 H 546.1 5.62783 3.21215 0
M  V30 5760 N 539.506 -0.963266 1.24736 0
M  V30 5761 C 540.922 -1.23273 1.01371 0
M  V30 5762 C 541.122 -1.99618 -0.274776 0
M  V30 5763 O 540.178 -2.32293 -0.989769 0
M  V30 5764 C 541.491 -2.01554 2.23152 0
M  V30 5765 C 543.039 -2.14629 2.27823 0
M  V30 5766 C 543.514 -2.96307 3.49237 0
M  V30 5767 N 545.005 -3.03887 3.49581 0
M  V30 5768 C 545.74 -3.67456 4.40186 0
M  V30 5769 N 545.236 -4.32706 5.41052 0
M  V30 5770 N 547.029 -3.64511 4.27888 0
M  V30 5771 H 539.18 -0.452294 2.07528 0
M  V30 5772 H 541.443 -0.262521 0.910926 0
M  V30 5773 H 541.149 -1.52847 3.1675 0
M  V30 5774 H 541.023 -3.02278 2.25628 0
M  V30 5775 H 543.41 -2.62537 1.34753 0
M  V30 5776 H 543.491 -1.13238 2.2937 0
M  V30 5777 H 543.135 -2.49091 4.42624 0
M  V30 5778 H 543.065 -3.97905 3.44933 0
M  V30 5779 H 545.556 -2.57477 2.76611 0
M  V30 5780 H 545.869 -4.79042 6.06415 0
M  V30 5781 H 544.214 -4.31361 5.44934 0
M  V30 5782 H 547.405 -3.12715 3.4832 0
M  V30 5783 H 547.578 -4.13768 4.98698 0
M  V30 5784 N 540.985 -1.06182 -1.16461 0
M  V30 5785 C 541.932 -0.671613 -2.20812 0
M  V30 5786 C 542.902 0.331186 -1.62765 0
M  V30 5787 O 544.087 0.22033 -1.89524 0
M  V30 5788 C 541.227 -0.063029 -3.45042 0
M  V30 5789 C 540.34 -1.11587 -4.1734 0
M  V30 5790 C 539.475 -0.473546 -5.29085 0
M  V30 5791 C 538.514 -1.51 -5.93182 0
M  V30 5792 N 537.651 -0.891118 -6.96422 0
M  V30 5793 H 542.491 -1.56589 -2.53542 0
M  V30 5794 H 540.028 -0.782951 -1.24532 0
M  V30 5795 H 541.986 0.307344 -4.16066 0
M  V30 5796 H 540.616 0.794663 -3.12866 0
M  V30 5797 H 539.668 -1.60396 -3.44931 0
M  V30 5798 H 540.98 -1.90221 -4.61104 0
M  V30 5799 H 540.134 -0.0501432 -6.06679 0
M  V30 5800 H 538.873 0.344687 -4.8648 0
M  V30 5801 H 537.878 -1.94331 -5.14311 0
M  V30 5802 H 539.103 -2.33031 -6.37866 0
M  V30 5803 H 537.049 -0.0935753 -6.55933 0
M  V30 5804 H 536.966 -1.61486 -7.38551 0
M  V30 5805 H 538.234 -0.492822 -7.77941 0
M  V30 5806 N 542.463 1.3308 -0.844243 0
M  V30 5807 C 543.41 2.29104 -0.279323 0
M  V30 5808 C 544.38 1.54577 0.607882 0
M  V30 5809 O 545.565 1.8285 0.545009 0
M  V30 5810 C 542.705 3.40927 0.53508 0
M  V30 5811 C 541.818 4.30354 -0.376749 0
M  V30 5812 C 540.953 5.29297 0.449276 0
M  V30 5813 C 539.992 6.10365 -0.460606 0
M  V30 5814 N 539.129 7.01335 0.327612 0
M  V30 5815 H 543.969 2.76817 -1.10346 0
M  V30 5816 H 541.506 1.36203 -0.555611 0
M  V30 5817 H 543.464 4.04469 1.02278 0
M  V30 5818 H 542.094 2.94391 1.32414 0
M  V30 5819 H 541.146 3.67485 -0.982791 0
M  V30 5820 H 542.458 4.87067 -1.07549 0
M  V30 5821 H 541.612 5.98392 1.00058 0
M  V30 5822 H 540.351 4.73174 1.18143 0
M  V30 5823 H 539.356 5.40182 -1.02388 0
M  V30 5824 H 540.581 6.68571 -1.1912 0
M  V30 5825 H 538.527 6.47655 1.04305 0
M  V30 5826 H 538.444 7.55355 -0.3123 0
M  V30 5827 H 539.712 7.74731 0.86098 0
M  V30 5828 N 543.941 0.601185 1.45683 0
M  V30 5829 C 544.873 -0.159446 2.28645 0
M  V30 5830 C 545.886 -0.837882 1.39583 0
M  V30 5831 O 547.075 -0.704344 1.64016 0
M  V30 5832 C 544.175 -1.24641 3.15147 0
M  V30 5833 C 543.348 -0.656334 4.32448 0
M  V30 5834 C 542.407 -1.63337 5.00208 0
M  V30 5835 O 541.433 -1.16217 5.57209 0
M  V30 5836 N 542.635 -2.96773 4.98905 0
M  V30 5837 H 545.4 0.5524 2.94565 0
M  V30 5838 H 542.961 0.440223 1.558 0
M  V30 5839 H 544.953 -1.8997 3.57342 0
M  V30 5840 H 543.523 -1.86087 2.51178 0
M  V30 5841 H 542.743 0.174879 3.93812 0
M  V30 5842 H 544.031 -0.242211 5.08223 0
M  V30 5843 H 543.429 -3.37662 4.53873 0
M  V30 5844 H 541.986 -3.57541 5.44984 0
M  V30 5845 N 545.419 -1.53889 0.339982 0
M  V30 5846 C 546.382 -2.23547 -0.50592 0
M  V30 5847 C 547.382 -1.23445 -1.03044 0
M  V30 5848 O 548.572 -1.47909 -0.920253 0
M  V30 5849 C 545.704 -2.95234 -1.7044 0
M  V30 5850 H 546.897 -2.99722 0.103247 0
M  V30 5851 H 544.45 -1.56033 0.0912804 0
M  V30 5852 H 545.185 -2.23236 -2.35236 0
M  V30 5853 H 544.97 -3.68654 -1.33553 0
M  V30 5854 H 546.46 -3.48258 -2.30447 0
M  V30 5855 N 546.897 -0.0685191 -1.57451 0
M  V30 5856 C 548.145 0.60016 -1.92983 0
M  V30 5857 C 548.466 1.70348 -0.949028 0
M  V30 5858 O 547.736 1.959 0.00335647 0
M  V30 5859 H 546.316 0.224682 -0.712409 0
M  V30 5860 H 548.978 -0.125605 -1.94495 0
M  V30 5861 H 548.074 1.02759 -2.94698 0
M  V30 5862 N 548.375 1.56261 0.205012 0
M  V30 5863 C 549.6 1.84491 0.947512 0
M  V30 5864 C 550.025 0.650894 1.76479 0
M  V30 5865 O 549.383 -0.40035 1.76824 0
M  V30 5866 C 549.431 3.10863 1.82747 0
M  V30 5867 O 548.535 2.90719 2.925 0
M  V30 5868 H 547.876 0.607783 0.267386 0
M  V30 5869 H 550.406 2.03485 0.213323 0
M  V30 5870 H 550.416 3.41399 2.23407 0
M  V30 5871 H 549.091 3.97392 1.2269 0
M  V30 5872 H 547.668 2.71457 2.55667 0
M  V30 5873 N 549.853 -0.472356 1.50355 0
M  V30 5874 C 551.078 -1.25251 1.65309 0
M  V30 5875 C 551.503 -1.85081 0.335643 0
M  V30 5876 O 550.861 -1.67227 -0.700335 0
M  V30 5877 C 550.909 -2.3379 2.74544 0
M  V30 5878 O 550.013 -3.38401 2.35709 0
M  V30 5879 H 549.354 -0.368539 0.552336 0
M  V30 5880 H 551.884 -0.562271 1.96722 0
M  V30 5881 H 551.894 -2.79121 2.97583 0
M  V30 5882 H 550.569 -1.89614 3.70161 0
M  V30 5883 H 549.146 -2.9879 2.23112 0
M  V30 5884 N 551.331 -1.39911 -0.725443 0
M  V30 5885 C 552.556 -1.41137 -1.5197 0
M  V30 5886 C 552.981 -0.010262 -1.88097 0
M  V30 5887 O 552.339 0.979184 -1.52583 0
M  V30 5888 C 552.387 -2.2994 -2.77777 0
M  V30 5889 O 551.491 -1.73586 -3.74088 0
M  V30 5890 H 550.832 -0.480219 -0.458569 0
M  V30 5891 H 553.362 -1.84023 -0.894249 0
M  V30 5892 H 553.372 -2.44785 -3.26411 0
M  V30 5893 H 552.047 -3.31759 -2.50816 0
M  V30 5894 H 550.624 -1.68035 -3.32894 0
M  V30 5895 N 552.809 0.956637 -1.25245 0
M  V30 5896 C 553.772 2.03457 -1.05537 0
M  V30 5897 C 554.772 1.60798 -0.00886317 0
M  V30 5898 O 555.962 1.72384 -0.250865 0
M  V30 5899 C 553.094 3.35543 -0.601965 0
M  V30 5900 H 554.287 2.22372 -2.01223 0
M  V30 5901 H 551.84 1.13344 -1.07623 0
M  V30 5902 H 552.575 3.22323 0.357584 0
M  V30 5903 H 552.36 3.67854 -1.35743 0
M  V30 5904 H 553.85 4.14769 -0.485454 0
M  V30 5905 N 554.287 1.06798 1.15896 0
M  V30 5906 C 555.512 0.808739 1.90982 0
M  V30 5907 C 555.937 -0.6316 1.77179 0
M  V30 5908 O 555.295 -1.4407 1.10061 0
M  V30 5909 C 555.343 1.21468 3.39526 0
M  V30 5910 O 554.447 0.356562 4.10856 0
M  V30 5911 H 553.788 0.29512 0.594811 0
M  V30 5912 H 556.318 1.42513 1.46804 0
M  V30 5913 H 556.328 1.18844 3.90308 0
M  V30 5914 H 555.003 2.26379 3.48891 0
M  V30 5915 H 553.58 0.444808 3.70238 0
M  V30 5916 N 555.766 -1.3263 0.851289 0
M  V30 5917 C 556.698 -2.27824 0.250757 0
M  V30 5918 C 557.711 -1.52285 -0.575598 0
M  V30 5919 O 558.9 -1.73946 -0.400638 0
M  V30 5920 C 556 -3.3232 -0.664571 0
M  V30 5921 C 555.173 -4.37221 0.125187 0
M  V30 5922 C 554.232 -5.21314 -0.715385 0
M  V30 5923 O 553.258 -5.69002 -0.150111 0
M  V30 5924 N 554.46 -5.43823 -2.03069 0
M  V30 5925 H 557.225 -2.79997 1.06873 0
M  V30 5926 H 554.786 -1.45455 0.710943 0
M  V30 5927 H 556.778 -3.85486 -1.23216 0
M  V30 5928 H 555.348 -2.80331 -1.38323 0
M  V30 5929 H 554.568 -3.84384 0.874199 0
M  V30 5930 H 555.856 -5.04399 0.667774 0
M  V30 5931 H 555.254 -5.06803 -2.51332 0
M  V30 5932 H 553.811 -5.99998 -2.54648 0
M  V30 5933 N 557.244 -0.608902 -1.45362 0
M  V30 5934 C 558.492 -0.104401 -2.0183 0
M  V30 5935 C 558.813 1.27007 -1.47967 0
M  V30 5936 O 558.083 1.83924 -0.674455 0
M  V30 5937 H 556.663 -0.0356042 -0.746151 0
M  V30 5938 H 559.325 -0.790596 -1.78145 0
M  V30 5939 H 558.421 -0.0551793 -3.12051 0
M  V30 5940 N 558.722 1.53707 -0.348139 0
M  V30 5941 C 559.962 2.02899 0.247254 0
M  V30 5942 C 560.326 1.23033 1.47401 0
M  V30 5943 O 561.527 1.62146 2.14388 0
M  V30 5944 C 559.798 3.53156 0.549151 0
M  V30 5945 S 561.357 4.24247 1.1207 0
M  V30 5946 H 558.175 0.707213 0.0732894 0
M  V30 5947 H 560.777 1.89338 -0.486965 0
M  V30 5948 H 559.481 4.08893 -0.351435 0
M  V30 5949 H 559.012 3.70845 1.31291 0
M  V30 5950 H 561.027 4.33958 2.40613 0
M  V30 5951 N 560.2 0.0768682 1.57412 0
M  V30 5952 C 561.148 -0.906229 2.1422 0
M  V30 5953 C 562.142 -1.30477 1.08037 0
M  V30 5954 O 563.348 -1.28143 1.2641 0
M  V30 5955 H 559.723 -0.310207 0.685037 0
M  V30 5956 H 561.694 -0.402228 2.95677 0
M  V30 5957 C 560.443 -2.16245 2.72274 0
M  V30 5958 H 559.766 -1.86463 3.53655 0
M  V30 5959 H 561.206 -2.83134 3.15613 0
M  V30 5960 C 559.665 -2.92437 1.67279 0
M  V30 5961 O 560.195 -3.86322 1.10081 0
M  V30 5962 N 558.401 -2.55637 1.38195 0
M  V30 5963 H 557.948 -1.79363 1.84897 0
M  V30 5964 H 557.906 -3.06919 0.681787 0
M  V30 5965 N 561.678 -1.56367 -0.196722 0
M  V30 5966 C 562.626 -1.95304 -1.2633 0
M  V30 5967 C 563.62 -0.838252 -1.47206 0
M  V30 5968 O 564.826 -1.02325 -1.48087 0
M  V30 5969 H 561.201 -0.621013 -0.424083 0
M  V30 5970 H 563.172 -2.84254 -0.907879 0
M  V30 5971 C 561.921 -2.3074 -2.60104 0
M  V30 5972 H 561.244 -3.16047 -2.44856 0
M  V30 5973 H 562.684 -2.61849 -3.33484 0
M  V30 5974 C 561.143 -1.14143 -3.16975 0
M  V30 5975 O 561.673 -0.415602 -3.99544 0
M  V30 5976 N 559.879 -0.91867 -2.75697 0
M  V30 5977 H 559.426 -1.51065 -2.08656 0
M  V30 5978 H 559.384 -0.140321 -3.14087 0
M  V30 5979 N 563.156 0.464375 -1.50603 0
M  V30 5980 C 564.088 1.57916 -1.66118 0
M  V30 5981 C 565.101 1.53497 -0.54246 0
M  V30 5982 O 566.29 1.58763 -0.815877 0
M  V30 5983 C 563.39 2.96809 -1.63577 0
M  V30 5984 C 562.563 3.26026 -2.91592 0
M  V30 5985 C 561.622 4.44506 -2.81604 0
M  V30 5986 O 560.648 4.44484 -3.55559 0
M  V30 5987 N 561.85 5.46549 -1.95614 0
M  V30 5988 H 564.615 1.45022 -2.62276 0
M  V30 5989 H 562.176 0.652903 -1.48151 0
M  V30 5990 H 564.168 3.74048 -1.54499 0
M  V30 5991 H 562.738 3.03438 -0.751262 0
M  V30 5992 H 561.958 2.37337 -3.14746 0
M  V30 5993 H 563.246 3.42361 -3.76386 0
M  V30 5994 H 562.644 5.49391 -1.34854 0
M  V30 5995 H 561.201 6.22746 -1.92435 0
M  V30 5996 O 564.673 1.49538 0.609965 0
M  V30 5997 H 565.364 1.46731 1.26451 0
M  V30 END ATOM
M  V30 BEGIN BOND
M  V30 END BOND
M  V30 END CTAB
M  END
$$$$
