drugbank_target|Q16651 Prostasin (DB06900)
 OpenBabel12092120383D

  0  0  0     0  0            999 V3000
M  V30 BEGIN CTAB
M  V30 COUNTS 5080 5150 0 0 0
M  V30 BEGIN ATOM
M  V30 1 H -0.908 1.98254 -0.117106 0
M  V30 2 N 0 1.576 0 0
M  V30 3 C 0.933 2.03868 1.02534 0
M  V30 4 C 1.911 0.928543 1.3348 0
M  V30 5 O 3.095 1.19667 1.45644 0
M  V30 6 C 0.222 2.43627 2.35294 0
M  V30 7 C -0.732 3.65373 2.2001 0
M  V30 8 S 0.101 5.13292 1.52614 0
M  V30 9 C 1.257 5.56322 2.86805 0
M  V30 10 H 1.49 2.90518 0.631377 0
M  V30 11 H -0.977 1.52953 0.210867 0
M  V30 12 H 0.981 2.67203 3.11629 0
M  V30 13 H -0.358 1.57376 2.7183 0
M  V30 14 H -1.165 3.90944 3.18086 0
M  V30 15 H -1.563 3.418 1.51819 0
M  V30 16 H 0.729 5.58782 3.83104 0
M  V30 17 H 1.672 6.56266 2.65933 0
M  V30 18 H 2.08 4.83886 2.90714 0
M  V30 19 N 1.4781 -0.272755 1.55222 0
M  V30 20 C 2.4411 -1.32041 1.87344 0
M  V30 21 C 3.4411 -1.42342 0.74803 0
M  V30 22 O 4.6311 -1.41488 1.0162 0
M  V30 23 C 1.7631 -2.70173 2.07893 0
M  V30 24 H 2.9561 -1.04789 2.80997 0
M  V30 25 H 0.5091 -0.51083 1.47717 0
M  V30 26 H 1.2441 -3.02605 1.16622 0
M  V30 27 H 1.0291 -2.64082 2.89833 0
M  V30 28 H 2.5191 -3.45869 2.34017 0
M  V30 29 N 2.9562 -1.48159 -0.537278 0
M  V30 30 C 3.8882 -1.58218 -1.65831 0
M  V30 31 C 4.9012 -0.466948 -1.5596 0
M  V30 32 O 6.0902 -0.73747 -1.62553 0
M  V30 33 C 3.1902 -1.48906 -3.04434 0
M  V30 34 C 2.3632 -2.75343 -3.3986 0
M  V30 35 C 1.4222 -2.59588 -4.57712 0
M  V30 36 O 0.4482 -3.33457 -4.61297 0
M  V30 37 N 1.6502 -1.68724 -5.55439 0
M  V30 38 H 4.4152 -2.54891 -1.57641 0
M  V30 39 H 1.9762 -1.4479 -0.724386 0
M  V30 40 H 3.9682 -1.36072 -3.81139 0
M  V30 41 H 2.5382 -0.602368 -3.06741 0
M  V30 42 H 1.7582 -3.02795 -2.52406 0
M  V30 43 H 3.0462 -3.5924 -3.60311 0
M  V30 44 H 2.4442 -1.07898 -5.55315 0
M  V30 45 H 1.0012 -1.61832 -6.3139 0
M  V30 46 N 4.4343 0.785586 -1.36625 0
M  V30 47 C 5.3813 1.89838 -1.31264 0
M  V30 48 C 6.3513 1.65115 -0.180633 0
M  V30 49 O 7.5363 1.87222 -0.36777 0
M  V30 50 C 4.6763 3.26706 -1.11163 0
M  V30 51 C 3.7893 3.63476 -2.33472 0
M  V30 52 C 2.9243 4.89481 -2.06353 0
M  V30 53 C 1.9633 5.18941 -3.24602 0
M  V30 54 N 1.1003 6.36131 -2.97123 0
M  V30 55 H 5.9403 1.93756 -2.26413 0
M  V30 56 H 3.4773 0.947454 -1.12524 0
M  V30 57 H 5.4353 4.05639 -0.975337 0
M  V30 58 H 4.0653 3.222 -0.196674 0
M  V30 59 H 3.1173 2.79636 -2.57891 0
M  V30 60 H 4.4293 3.81193 -3.21704 0
M  V30 61 H 3.5833 5.76288 -1.89675 0
M  V30 62 H 2.3223 4.73841 -1.15437 0
M  V30 63 H 1.3273 4.30615 -3.41834 0
M  V30 64 H 2.5523 5.36498 -4.16349 0
M  V30 65 H 0.4983 6.21875 -2.08823 0
M  V30 66 H 0.4153 6.54198 -3.78894 0
M  V30 67 H 1.6833 7.2591 -2.84033 0
M  V30 68 N 5.9124 1.20967 1.01018 0
M  V30 69 C 7.1604 1.02172 1.74371 0
M  V30 70 C 7.4814 -0.446414 1.89821 0
M  V30 71 O 6.7514 -1.32234 1.44537 0
M  V30 72 H 5.3314 0.375066 0.646014 0
M  V30 73 H 7.9934 1.52187 1.21758 0
M  V30 74 H 7.0894 1.48538 2.74487 0
M  V30 75 N 7.3905 -1.2043 1.01659 0
M  V30 76 C 8.6365 -1.90079 0.706963 0
M  V30 77 C 8.9695 -1.78648 -0.761474 0
M  V30 78 O 8.2445 -1.17069 -1.55323 0
M  V30 79 C 8.5275 -3.41469 1.14327 0
M  V30 80 C 8.3805 -3.61833 2.67201 0
M  V30 81 C 9.6995 -4.34261 0.714529 0
M  V30 82 H 6.8185 -0.690254 0.2583 0
M  V30 83 H 9.4605 -1.41826 1.26433 0
M  V30 84 H 7.6105 -3.82696 0.669056 0
M  V30 85 H 9.2825 -3.2986 3.22475 0
M  V30 86 H 7.5255 -3.05304 3.08175 0
M  V30 87 H 8.1965 -4.67955 2.92783 0
M  V30 88 H 10.6725 -4.00682 1.12221 0
M  V30 89 H 9.5485 -5.38806 1.04784 0
M  V30 90 H 9.8095 -4.40431 -0.383799 0
M  V30 91 N 8.8686 -0.792821 -1.36206 0
M  V30 92 C 9.7986 -0.207853 -2.32573 0
M  V30 93 C 10.7796 0.659055 -1.56813 0
M  V30 94 O 11.9646 0.592176 -1.84951 0
M  V30 95 C 9.0946 0.655449 -3.41059 0
M  V30 96 C 8.0486 -0.111842 -4.27854 0
M  V30 97 C 7.3746 0.872274 -5.27537 0
M  V30 98 C 8.6746 -1.30299 -5.05786 0
M  V30 99 H 10.3686 -1.01294 -2.81744 0
M  V30 100 H 7.9146 -0.48854 -1.3546 0
M  V30 101 H 9.8676 1.07464 -4.07467 0
M  V30 102 H 8.5916 1.49328 -2.90463 0
M  V30 103 H 7.2506 -0.512053 -3.63006 0
M  V30 104 H 6.8986 1.70523 -4.73214 0
M  V30 105 H 6.5986 0.363291 -5.86476 0
M  V30 106 H 8.1226 1.28996 -5.96818 0
M  V30 107 H 9.5366 -0.959379 -5.65216 0
M  V30 108 H 7.9336 -1.7455 -5.74154 0
M  V30 109 H 9.0036 -2.09663 -4.37229 0
M  V30 110 N 10.3467 1.47872 -0.545128 0
M  V30 111 C 11.5947 2.02093 -0.016553 0
M  V30 112 C 11.9157 1.42305 1.3332 0
M  V30 113 O 11.1857 0.593853 1.86682 0
M  V30 114 H 9.7657 0.746993 -0.00313038 0
M  V30 115 H 12.4277 1.81414 -0.712397 0
M  V30 116 H 11.5237 3.11996 0.0805422 0
M  V30 117 N 11.8248 0.280983 1.55075 0
M  V30 118 C 13.2358 -0.215629 1.85451 0
M  V30 119 C 13.5868 -1.54991 1.203 0
M  V30 120 O 12.7118 -2.10699 0.493435 0
M  V30 121 C 13.3068 -0.398026 3.36454 0
M  V30 122 C 11.8658 -0.838866 3.66933 0
M  V30 123 C 11.0128 0.064458 2.77225 0
M  V30 124 H 13.9638 0.502601 1.50531 0
M  V30 125 H 13.9848 -1.23569 3.59876 0
M  V30 126 H 13.4968 0.573241 3.83843 0
M  V30 127 H 11.5978 -1.8214 3.25048 0
M  V30 128 H 11.7108 -0.672123 4.74362 0
M  V30 129 H 10.0748 -0.452863 2.50642 0
M  V30 130 H 10.8578 1.03172 3.2743 0
M  V30 131 N 13.3029 -1.57598 0.00835791 0
M  V30 132 C 14.5509 -1.90551 -0.6734 0
M  V30 133 C 14.8719 -0.883301 -1.73847 0
M  V30 134 O 14.1419 0.0781442 -1.95744 0
M  V30 135 H 12.7219 -0.703312 -0.251717 0
M  V30 136 H 15.3839 -1.94833 0.0512592 0
M  V30 137 H 14.4799 -2.9056 -1.13935 0
M  V30 138 N 14.781 0.264519 -1.55364 0
M  V30 139 C 15.713 1.34965 -1.85248 0
M  V30 140 C 16.726 1.45136 -0.737525 0
M  V30 141 O 17.915 1.46801 -1.01547 0
M  V30 142 C 15.015 2.73008 -2.00797 0
M  V30 143 C 14.188 2.85324 -3.31525 0
M  V30 144 C 13.247 4.04097 -3.37034 0
M  V30 145 O 12.273 3.94455 -4.10358 0
M  V30 146 N 13.475 5.16458 -2.65049 0
M  V30 147 H 16.24 1.09672 -2.78913 0
M  V30 148 H 13.801 0.454635 -1.55386 0
M  V30 149 H 15.793 3.50772 -2.01844 0
M  V30 150 H 14.363 2.91087 -1.1396 0
M  V30 151 H 13.583 1.94377 -3.42945 0
M  V30 152 H 14.871 2.9049 -4.17724 0
M  V30 153 H 14.269 5.27181 -2.05175 0
M  V30 154 H 12.826 5.92422 -2.71809 0
M  V30 155 N 16.2591 1.48442 0.529413 0
M  V30 156 C 17.1891 1.65902 1.64313 0
M  V30 157 C 18.1701 0.507897 1.6234 0
M  V30 158 O 19.3551 0.740503 1.79528 0
M  V30 159 C 16.4851 1.69911 3.02898 0
M  V30 160 C 15.4391 2.8453 3.19729 0
M  V30 161 C 14.7651 2.73629 4.59381 0
M  V30 162 C 16.0651 4.25821 3.02447 0
M  V30 163 H 17.7591 2.5914 1.49955 0
M  V30 164 H 15.3051 1.24709 0.719982 0
M  V30 165 H 17.2581 1.80715 3.80684 0
M  V30 166 H 15.9821 0.732524 3.18279 0
M  V30 167 H 14.6411 2.73283 2.44361 0
M  V30 168 H 14.2891 1.74938 4.71599 0
M  V30 169 H 13.9891 3.50541 4.71588 0
M  V30 170 H 15.5131 2.86401 5.39265 0
M  V30 171 H 16.9271 4.37898 3.70024 0
M  V30 172 H 15.3241 5.03735 3.26146 0
M  V30 173 H 16.3941 4.42244 1.98867 0
M  V30 174 N 17.7372 -0.778329 1.37039 0
M  V30 175 C 18.9852 -1.53361 1.31623 0
M  V30 176 C 19.3062 -1.94739 -0.100831 0
M  V30 177 O 18.5762 -1.65797 -1.04347 0
M  V30 178 H 17.1562 -0.568794 0.484234 0
M  V30 179 H 19.8182 -0.926742 1.71457 0
M  V30 180 H 18.9142 -2.43606 1.95096 0
M  V30 181 N 19.2153 -1.21501 -1.00376 0
M  V30 182 C 20.1783 -0.976927 -2.07337 0
M  V30 183 C 21.1783 0.0525322 -1.60714 0
M  V30 184 O 22.3683 -0.184869 -1.73216 0
M  V30 185 C 19.5003 -0.473423 -3.37597 0
M  V30 186 H 20.6933 -1.92587 -2.29892 0
M  V30 187 H 18.2463 -1.03217 -1.17371 0
M  V30 188 H 18.9813 0.480379 -3.20722 0
M  V30 189 H 18.7663 -1.216 -3.72768 0
M  V30 190 H 20.2563 -0.32675 -4.1632 0
M  V30 191 N 20.6934 1.19889 -1.02296 0
M  V30 192 C 21.9394 1.89701 -0.717033 0
M  V30 193 C 22.2724 1.7905 0.751989 0
M  V30 194 O 21.5474 1.17891 1.547 0
M  V30 195 C 21.8304 3.40858 -1.16136 0
M  V30 196 C 21.6834 3.60411 -2.69117 0
M  V30 197 C 23.0024 4.33876 -0.737549 0
M  V30 198 H 20.1214 0.688874 -0.261957 0
M  V30 199 H 22.7634 1.41154 -1.27183 0
M  V30 200 H 20.9134 3.82335 -0.689342 0
M  V30 201 H 22.5854 3.28145 -3.2422 0
M  V30 202 H 20.8284 3.03665 -3.0979 0
M  V30 203 H 21.4994 4.66396 -2.95261 0
M  V30 204 H 23.9754 4.00081 -1.14344 0
M  V30 205 H 22.8514 5.38242 -1.0764 0
M  V30 206 H 23.1124 4.40628 0.360436 0
M  V30 207 N 22.1715 0.800033 1.35784 0
M  V30 208 C 23.1345 0.211565 2.28221 0
M  V30 209 C 24.1345 -0.59728 1.49296 0
M  V30 210 O 25.3245 -0.416721 1.69142 0
M  V30 211 C 22.4565 -0.705846 3.33513 0
M  V30 212 H 23.6495 1.02677 2.81776 0
M  V30 213 H 21.2025 0.570211 1.45528 0
M  V30 214 H 21.9375 -1.54498 2.85133 0
M  V30 215 H 21.7225 -0.127655 3.91892 0
M  V30 216 H 23.2125 -1.11211 4.02519 0
M  V30 217 N 23.6496 -1.47581 0.552962 0
M  V30 218 C 24.8986 -2.01684 0.0251995 0
M  V30 219 C 25.2116 -1.43317 -1.33115 0
M  V30 220 O 26.4176 -1.89057 -1.94858 0
M  V30 221 C 24.8736 -3.599 -0.00542052 0
M  V30 222 C 24.4816 -4.27257 1.34742 0
M  V30 223 C 26.2256 -4.21768 -0.4808 0
M  V30 224 C 24.1326 -5.77467 1.27614 0
M  V30 225 H 23.0626 -0.753979 0.00565033 0
M  V30 226 H 25.7136 -1.69616 0.70018 0
M  V30 227 H 24.0956 -3.88911 -0.745961 0
M  V30 228 H 25.2696 -4.09893 2.10534 0
M  V30 229 H 23.5846 -3.77358 1.76039 0
M  V30 230 H 26.1816 -5.31838 -0.55246 0
M  V30 231 H 26.5246 -3.88651 -1.49184 0
M  V30 232 H 27.0576 -3.97273 0.204752 0
M  V30 233 H 23.7966 -6.15196 2.26304 0
M  V30 234 H 23.3166 -5.9718 0.55996 0
M  V30 235 H 24.9956 -6.3959 0.976421 0
M  V30 236 N 25.1277 -0.289203 -1.54924 0
M  V30 237 C 26.0577 0.58549 -2.2604 0
M  V30 238 C 27.0387 1.14753 -1.25562 0
M  V30 239 O 28.2237 1.17906 -1.54311 0
M  V30 240 C 25.3537 1.76305 -2.99222 0
M  V30 241 C 24.3077 1.33191 -4.06748 0
M  V30 242 C 23.6337 2.5937 -4.6758 0
M  V30 243 C 24.9337 0.471775 -5.20165 0
M  V30 244 H 26.6277 -0.00763532 -2.99399 0
M  V30 245 H 24.1737 -0.00511229 -1.43999 0
M  V30 246 H 26.1267 2.38097 -3.47689 0
M  V30 247 H 24.8507 2.38223 -2.23422 0
M  V30 248 H 23.5097 0.737121 -3.59113 0
M  V30 249 H 23.1577 3.19576 -3.88433 0
M  V30 250 H 22.8577 2.31228 -5.40192 0
M  V30 251 H 24.3817 3.21985 -5.18804 0
M  V30 252 H 25.7957 0.995056 -5.64599 0
M  V30 253 H 24.1927 0.284639 -5.99425 0
M  V30 254 H 25.2627 -0.506041 -4.82252 0
M  V30 255 N 26.6058 1.57591 -0.0167156 0
M  V30 256 C 27.5358 2.12496 0.967858 0
M  V30 257 C 28.5168 1.03807 1.34752 0
M  V30 258 O 29.7018 1.31577 1.42833 0
M  V30 259 C 26.8318 2.64194 2.25431 0
M  V30 260 C 25.7858 3.77559 2.01576 0
M  V30 261 C 25.1118 4.15636 3.36379 0
M  V30 262 C 26.4118 5.04151 1.36489 0
M  V30 263 H 28.1058 2.95013 0.510643 0
M  V30 264 H 25.6518 1.41915 0.244181 0
M  V30 265 H 27.6048 3.01236 2.94678 0
M  V30 266 H 26.3288 1.78821 2.73296 0
M  V30 267 H 24.9878 3.40937 1.34751 0
M  V30 268 H 24.6358 3.27263 3.81979 0
M  V30 269 H 24.3358 4.92022 3.21229 0
M  V30 270 H 25.8598 4.5525 4.06915 0
M  V30 271 H 27.2738 5.38857 1.95718 0
M  V30 272 H 25.6708 5.85453 1.31776 0
M  V30 273 H 26.7408 4.83733 0.336219 0
M  V30 274 N 28.0839 -0.256276 1.55502 0
M  V30 275 C 29.3139 -1.00196 1.80677 0
M  V30 276 C 29.7219 -1.79805 0.588797 0
M  V30 277 O 29.0649 -1.78055 -0.451883 0
M  V30 278 C 29.1269 -1.99515 2.99055 0
M  V30 279 C 28.7909 -1.38688 4.35448 0
M  V30 280 C 29.7879 -0.794079 5.138 0
M  V30 281 C 27.4729 -1.40906 4.82132 0
M  V30 282 C 29.4669 -0.231562 6.36979 0
M  V30 283 C 27.1539 -0.842684 6.05262 0
M  V30 284 C 28.1519 -0.254953 6.82524 0
M  V30 285 O 27.8399 0.3027 8.0333 0
M  V30 286 H 27.5719 -0.300919 0.60533 0
M  V30 287 H 30.1259 -0.287307 2.03381 0
M  V30 288 H 28.3559 -2.74785 2.72084 0
M  V30 289 H 30.0449 -2.60349 3.11405 0
M  V30 290 H 30.8109 -0.769519 4.78856 0
M  V30 291 H 26.6899 -1.85591 4.21992 0
M  V30 292 H 30.2339 0.227816 6.97228 0
M  V30 293 H 26.1309 -0.86454 6.39684 0
M  V30 294 H 26.8989 0.193662 8.18271 0
M  V30 295 N 29.562 -1.4872 -0.521534 0
M  V30 296 C 30.492 -1.66771 -1.63431 0
M  V30 297 C 31.473 -0.516499 -1.62069 0
M  V30 298 O 32.658 -0.750013 -1.79132 0
M  V30 299 C 29.788 -1.71515 -3.01993 0
M  V30 300 C 28.742 -2.86222 -3.18216 0
M  V30 301 C 28.068 -2.76061 -4.57924 0
M  V30 302 C 29.368 -4.27419 -3.00184 0
M  V30 303 H 31.062 -2.59932 -1.48579 0
M  V30 304 H 28.608 -1.25089 -0.713358 0
M  V30 305 H 30.561 -1.82731 -3.7972 0
M  V30 306 H 29.285 -0.749393 -3.17886 0
M  V30 307 H 27.944 -2.74575 -2.42908 0
M  V30 308 H 27.592 -1.77437 -4.70665 0
M  V30 309 H 27.292 -3.53037 -4.69722 0
M  V30 310 H 28.816 -2.89256 -5.37739 0
M  V30 311 H 30.23 -4.39855 -3.67697 0
M  V30 312 H 28.627 -5.05458 -3.2347 0
M  V30 313 H 29.697 -4.43293 -1.96518 0
M  V30 314 N 31.0401 0.771051 -1.3745 0
M  V30 315 C 32.2881 1.52661 -1.32435 0
M  V30 316 C 32.6091 1.9479 0.0905024 0
M  V30 317 O 31.8791 1.66348 1.03466 0
M  V30 318 H 30.4591 0.566218 -0.487244 0
M  V30 319 H 33.1211 0.917636 -1.71946 0
M  V30 320 H 32.2171 2.42568 -1.96385 0
M  V30 321 N 32.5182 1.22032 0.997298 0
M  V30 322 C 33.4482 1.01065 2.10495 0
M  V30 323 C 34.4292 -0.0669542 1.69968 0
M  V30 324 O 35.6142 0.0943987 1.9397 0
M  V30 325 C 32.7442 0.582874 3.42374 0
M  V30 326 C 31.6982 1.60592 3.96729 0
M  V30 327 C 31.0242 1.03412 5.24605 0
M  V30 328 C 32.3242 2.99478 4.27914 0
M  V30 329 H 34.0182 1.93708 2.28292 0
M  V30 330 H 31.5642 0.932761 1.09707 0
M  V30 331 H 33.5172 0.423332 4.19268 0
M  V30 332 H 32.2412 -0.379213 3.24391 0
M  V30 333 H 30.9002 1.75316 3.21963 0
M  V30 334 H 30.5482 0.063518 5.0296 0
M  V30 335 H 30.2482 1.71754 5.61938 0
M  V30 336 H 31.7722 0.886066 6.04137 0
M  V30 337 H 33.1862 2.88153 4.95622 0
M  V30 338 H 31.5832 3.64903 4.76409 0
M  V30 339 H 32.6532 3.49742 3.3587 0
M  V30 340 N 33.9963 -1.19345 1.0293 0
M  V30 341 C 34.9263 -2.2481 0.631105 0
M  V30 342 C 35.9073 -1.66245 -0.360104 0
M  V30 343 O 37.0923 -1.92677 -0.242726 0
M  V30 344 C 34.2223 -3.47295 -0.0184607 0
M  V30 345 C 33.1763 -4.18536 0.895073 0
M  V30 346 C 32.5023 -5.34586 0.110592 0
M  V30 347 C 33.8023 -4.73287 2.209 0
M  V30 348 H 35.4963 -2.58372 1.51275 0
M  V30 349 H 33.0423 -1.24194 0.728818 0
M  V30 350 H 34.9953 -4.20268 -0.308675 0
M  V30 351 H 33.7193 -3.12933 -0.934907 0
M  V30 352 H 32.3783 -3.47446 1.16949 0
M  V30 353 H 32.0263 -4.96469 -0.807902 0
M  V30 354 H 31.7263 -5.83183 0.719087 0
M  V30 355 H 33.2503 -6.10355 -0.172871 0
M  V30 356 H 34.6643 -5.38013 1.98028 0
M  V30 357 H 33.0613 -5.32373 2.76946 0
M  V30 358 H 34.1313 -3.91331 2.86336 0
M  V30 359 N 35.4744 -0.807222 -1.35358 0
M  V30 360 C 36.8904 -0.491038 -1.51858 0
M  V30 361 C 37.0904 0.987648 -1.75635 0
M  V30 362 O 36.1464 1.77265 -1.79815 0
M  V30 363 C 37.4594 -1.33695 -2.69344 0
M  V30 364 C 39.0074 -1.33246 -2.83222 0
M  V30 365 C 39.4824 -2.1625 -4.03733 0
M  V30 366 N 40.9734 -2.1379 -4.10911 0
M  V30 367 C 41.7084 -2.74772 -5.03277 0
M  V30 368 N 41.2044 -3.44684 -6.0097 0
M  V30 369 N 42.9974 -2.6441 -4.96028 0
M  V30 370 H 35.1484 -1.76485 -1.18181 0
M  V30 371 H 37.4114 -0.751199 -0.578276 0
M  V30 372 H 37.1174 -2.38634 -2.58354 0
M  V30 373 H 36.9914 -0.990618 -3.6396 0
M  V30 374 H 39.3784 -0.290911 -2.93663 0
M  V30 375 H 39.4594 -1.71866 -1.89461 0
M  V30 376 H 39.1034 -3.20445 -3.94052 0
M  V30 377 H 39.0334 -1.74989 -4.96675 0
M  V30 378 H 41.5244 -1.62923 -3.40976 0
M  V30 379 H 41.8374 -3.88501 -6.68047 0
M  V30 380 H 40.1824 -3.48788 -6.01142 0
M  V30 381 H 43.3734 -2.0938 -4.18662 0
M  V30 382 H 43.5464 -3.12225 -5.6782 0
M  V30 383 N 36.9525 1.47285 -0.560781 0
M  V30 384 C 38.1775 2.07359 -0.0410566 0
M  V30 385 C 38.6025 1.41017 1.24483 0
M  V30 386 O 37.9605 0.486368 1.74654 0
M  V30 387 C 38.0085 3.6035 0.134123 0
M  V30 388 O 37.1125 3.94681 1.19587 0
M  V30 389 H 36.4535 0.661887 -0.0529291 0
M  V30 390 H 38.9835 1.89252 -0.777482 0
M  V30 391 H 38.9935 4.0652 0.347207 0
M  V30 392 H 37.6685 4.08034 -0.805047 0
M  V30 393 H 36.2455 3.60251 0.962987 0
M  V30 394 N 38.4306 0.297415 1.54768 0
M  V30 395 C 39.6786 -0.312295 1.99673 0
M  V30 396 C 39.9996 -1.54686 1.18732 0
M  V30 397 O 39.2696 -1.93854 0.282382 0
M  V30 398 H 37.8496 -0.118381 0.73756 0
M  V30 399 H 40.5116 0.407915 1.90583 0
M  V30 400 H 39.6076 -0.586813 3.06534 0
M  V30 401 N 39.9087 -1.5758 0.0250728 0
M  V30 402 C 41.1367 -1.9593 -0.664747 0
M  V30 403 C 41.5517 -0.901352 -1.65895 0
M  V30 404 O 40.9087 0.117255 -1.82123 0
M  V30 405 C 40.9597 -3.34342 -1.37468 0
M  V30 406 O 40.6807 -4.36079 -0.420324 0
M  V30 407 C 42.1817 -3.873 -2.1567 0
M  V30 408 H 39.4017 -0.645405 -0.183557 0
M  V30 409 H 41.9457 -2.04329 0.0836372 0
M  V30 410 H 40.1007 -3.27175 -2.0745 0
M  V30 411 H 40.5147 -5.16297 -0.923991 0
M  V30 412 H 41.9887 -4.86504 -2.60803 0
M  V30 413 H 42.4657 -3.21331 -2.99405 0
M  V30 414 H 43.0717 -3.97723 -1.50654 0
M  V30 415 N 41.3868 0.248026 -1.55636 0
M  V30 416 C 42.6348 0.974295 -1.77065 0
M  V30 417 C 42.9558 1.85897 -0.588849 0
M  V30 418 O 42.2258 1.91868 0.395407 0
M  V30 419 H 40.8058 0.362733 -0.653019 0
M  V30 420 H 43.4678 0.266244 -1.93073 0
M  V30 421 H 42.5638 1.59667 -2.68166 0
M  V30 422 N 42.8649 1.48995 0.513639 0
M  V30 423 C 43.8279 1.64229 1.59879 0
M  V30 424 C 44.8279 0.514696 1.5234 0
M  V30 425 O 46.0179 0.78087 1.55718 0
M  V30 426 C 43.1499 1.62783 2.99524 0
M  V30 427 H 44.3429 2.61004 1.47705 0
M  V30 428 H 41.8959 1.37837 0.736936 0
M  V30 429 H 42.6309 0.675461 3.17188 0
M  V30 430 H 42.4159 2.4466 3.06404 0
M  V30 431 H 43.9059 1.76669 3.78388 0
M  V30 432 N 44.343 -0.763751 1.37857 0
M  V30 433 C 45.253 -1.90817 1.36478 0
M  V30 434 C 46.269 -1.71997 0.263248 0
M  V30 435 O 47.445 -1.95095 0.499979 0
M  V30 436 C 44.51 -3.2605 1.17864 0
M  V30 437 C 43.571 -3.57467 2.3773 0
M  V30 438 C 42.804 -4.86249 2.19995 0
M  V30 439 O 43.027 -5.57884 1.18836 0
M  V30 440 O 41.961 -5.16911 3.08361 0
M  V30 441 H 45.787 -1.94933 2.32884 0
M  V30 442 H 43.372 -0.907619 1.1867 0
M  V30 443 H 45.254 -4.06924 1.09504 0
M  V30 444 H 43.929 -3.22769 0.245372 0
M  V30 445 H 42.836 -2.76796 2.51664 0
M  V30 446 H 44.169 -3.655 3.29652 0
M  V30 447 N 45.8211 -1.22559 -0.990812 0
M  V30 448 C 47.0691 -1.04933 -1.72724 0
M  V30 449 C 47.3901 0.416158 -1.90508 0
M  V30 450 O 46.6601 1.29918 -1.46622 0
M  V30 451 H 45.2401 -0.385296 -0.639965 0
M  V30 452 H 47.9021 -1.54105 -1.19322 0
M  V30 453 H 46.9981 -1.52886 -2.72089 0
M  V30 454 N 47.2992 1.18797 -1.03562 0
M  V30 455 C 48.2622 2.20464 -0.626769 0
M  V30 456 C 49.2622 1.57721 0.313173 0
M  V30 457 O 50.4522 1.73917 0.0992615 0
M  V30 458 C 47.5842 3.40802 0.0818498 0
M  V30 459 H 48.7772 2.58149 -1.5264 0
M  V30 460 H 46.3302 1.32593 -0.827578 0
M  V30 461 H 47.0652 3.08642 0.995518 0
M  V30 462 H 46.8502 3.8758 -0.593652 0
M  V30 463 H 48.3402 4.16092 0.354584 0
M  V30 464 N 48.7773 0.814389 1.34928 0
M  V30 465 C 49.6873 0.231978 2.3345 0
M  V30 466 C 50.7033 -0.629139 1.62228 0
M  V30 467 O 51.8793 -0.539052 1.94052 0
M  V30 468 C 48.9443 -0.603482 3.41407 0
M  V30 469 C 48.0053 0.279037 4.28392 0
M  V30 470 C 47.2383 -0.516643 5.31193 0
M  V30 471 O 47.4613 -1.75068 5.4287 0
M  V30 472 O 46.3953 0.0965652 6.01823 0
M  V30 473 H 50.2213 1.04721 2.85074 0
M  V30 474 H 47.8063 0.576343 1.37836 0
M  V30 475 H 49.6883 -1.07908 4.0735 0
M  V30 476 H 48.3633 -1.39618 2.92042 0
M  V30 477 H 47.2703 0.801948 3.65403 0
M  V30 478 H 48.6033 1.03588 4.81176 0
M  V30 479 N 50.2554 -1.46986 0.568584 0
M  V30 480 C 51.2184 -2.28624 -0.162366 0
M  V30 481 C 52.2184 -1.37596 -0.832103 0
M  V30 482 O 53.4084 -1.60115 -0.68622 0
M  V30 483 C 50.5404 -3.17596 -1.23878 0
M  V30 484 H 51.7334 -2.94722 0.554899 0
M  V30 485 H 49.2864 -1.52863 0.325976 0
M  V30 486 H 50.0214 -2.56214 -1.98808 0
M  V30 487 H 49.8064 -3.846 -0.763219 0
M  V30 488 H 51.2964 -3.79078 -1.75185 0
M  V30 489 N 51.7335 -0.305618 -1.54608 0
M  V30 490 C 53.1445 0.186098 -1.8577 0
M  V30 491 C 53.4955 1.53058 -1.22751 0
M  V30 492 O 52.6205 2.09888 -0.526893 0
M  V30 493 C 53.2155 0.344449 -3.37044 0
M  V30 494 C 51.7745 0.780384 -3.68221 0
M  V30 495 C 50.9215 -0.108554 -2.77087 0
M  V30 496 H 53.8725 -0.526485 -1.49712 0
M  V30 497 H 53.8935 1.17828 -3.61796 0
M  V30 498 H 53.4055 -0.634235 -3.82883 0
M  V30 499 H 51.5065 1.76945 -3.27904 0
M  V30 500 H 51.6195 0.596572 -4.75371 0
M  V30 501 H 49.9835 0.412931 -2.5133 0
M  V30 502 H 50.7665 -1.08368 -3.25747 0
M  V30 503 N 53.2116 1.57565 -0.0334293 0
M  V30 504 C 54.4516 1.93844 0.648379 0
M  V30 505 C 54.8156 0.910387 1.69044 0
M  V30 506 O 56.0166 1.15952 2.42505 0
M  V30 507 C 54.2876 3.35017 1.24492 0
M  V30 508 S 55.8466 3.93229 1.94721 0
M  V30 509 H 52.6646 0.678231 0.213364 0
M  V30 510 H 55.2666 1.95254 -0.0981253 0
M  V30 511 H 53.9706 4.07652 0.474128 0
M  V30 512 H 53.5016 3.37061 2.02864 0
M  V30 513 H 55.5166 3.77014 3.22606 0
M  V30 514 N 54.6897 -0.239769 1.55765 0
M  V30 515 C 55.9377 -0.964892 1.77579 0
M  V30 516 C 56.2587 -1.85582 0.598699 0
M  V30 517 O 55.5287 -1.92075 -0.385226 0
M  V30 518 H 54.1087 -0.359265 0.654933 0
M  V30 519 H 56.7707 -0.256001 1.93211 0
M  V30 520 H 55.8667 -1.58243 2.69009 0
M  V30 521 N 56.1678 -1.49265 -0.50573 0
M  V30 522 C 57.4138 -1.58748 -1.26202 0
M  V30 523 C 57.7468 -0.271227 -1.92297 0
M  V30 524 O 57.0218 0.724831 -1.80489 0
M  V30 525 C 57.3048 -2.74332 -2.33268 0
M  V30 526 C 57.1578 -4.15737 -1.71705 0
M  V30 527 C 58.4768 -2.85576 -3.34865 0
M  V30 528 H 55.5958 -0.577826 -0.457478 0
M  V30 529 H 58.2378 -1.81532 -0.560897 0
M  V30 530 H 56.3878 -2.55036 -2.93068 0
M  V30 531 H 58.0598 -4.46537 -1.15769 0
M  V30 532 H 56.3028 -4.21605 -1.02135 0
M  V30 533 H 56.9738 -4.92477 -2.49341 0
M  V30 534 H 59.4498 -3.03127 -2.8505 0
M  V30 535 H 58.3258 -3.68135 -4.07146 0
M  V30 536 H 58.5868 -1.94732 -3.96903 0
M  V30 537 N 57.6459 0.756429 -1.3826 0
M  V30 538 C 58.6089 1.85176 -1.35065 0
M  V30 539 C 59.6089 1.58818 -0.251703 0
M  V30 540 O 60.7989 1.66615 -0.508433 0
M  V30 541 C 57.9309 3.22596 -1.10201 0
M  V30 542 H 59.1239 1.89417 -2.3251 0
M  V30 543 H 56.6769 0.95783 -1.23512 0
M  V30 544 H 57.4119 3.24025 -0.133504 0
M  V30 545 H 57.1969 3.43122 -1.89762 0
M  V30 546 H 58.6869 4.02673 -1.10654 0
M  V30 547 N 59.124 1.23083 0.984299 0
M  V30 548 C 60.535 1.05609 1.5396 0
M  V30 549 C 60.886 -0.377793 1.92528 0
M  V30 550 O 60.011 -1.26398 1.75649 0
M  V30 551 C 60.606 1.91087 2.7977 0
M  V30 552 C 59.165 1.77885 3.31713 0
M  V30 553 C 58.312 1.87028 2.04733 0
M  V30 554 H 61.263 1.36802 0.804419 0
M  V30 555 H 61.284 1.43336 3.5247 0
M  V30 556 H 60.796 2.9544 2.51668 0
M  V30 557 H 58.897 0.762995 3.64704 0
M  V30 558 H 59.01 2.61047 4.01735 0
M  V30 559 H 57.374 1.30565 2.18689 0
M  V30 560 H 58.157 2.92929 1.79017 0
M  V30 561 N 60.6021 -1.18246 1.0419 0
M  V30 562 C 61.5341 -2.2142 0.592088 0
M  V30 563 C 62.5471 -1.59233 -0.338909 0
M  V30 564 O 63.7361 -1.78002 -0.133231 0
M  V30 565 C 60.8361 -3.38546 -0.154854 0
M  V30 566 C 60.0091 -4.3031 0.784328 0
M  V30 567 C 59.0681 -5.26138 0.0804583 0
M  V30 568 O 58.0941 -5.64738 0.711292 0
M  V30 569 N 59.2961 -5.68261 -1.18574 0
M  V30 570 H 62.0611 -2.60636 1.47949 0
M  V30 571 H 59.6221 -1.33044 0.922544 0
M  V30 572 H 61.6141 -3.99678 -0.635606 0
M  V30 573 H 60.1841 -2.98012 -0.943811 0
M  V30 574 H 59.4041 -3.66764 1.44491 0
M  V30 575 H 60.6921 -4.8852 1.42218 0
M  V30 576 H 60.0901 -5.38957 -1.71876 0
M  V30 577 H 58.6471 -6.31584 -1.61074 0
M  V30 578 N 62.0802 -0.821533 -1.34494 0
M  V30 579 C 63.0432 -0.247847 -2.27856 0
M  V30 580 C 64.0432 0.573453 -1.50227 0
M  V30 581 O 65.2332 0.389759 -1.69784 0
M  V30 582 C 62.3652 0.652698 -3.34593 0
M  V30 583 H 63.5582 -1.07146 -2.80107 0
M  V30 584 H 61.1112 -0.593291 -1.44602 0
M  V30 585 H 61.8462 1.49943 -2.87555 0
M  V30 586 H 61.6312 0.065292 -3.92046 0
M  V30 587 H 63.1212 1.04793 -4.04238 0
M  V30 588 N 63.5583 1.46682 -0.576371 0
M  V30 589 C 64.9743 1.57822 -0.237562 0
M  V30 590 C 65.1743 1.57237 1.26011 0
M  V30 591 O 64.2303 1.48596 2.04146 0
M  V30 592 C 65.5433 2.87499 -0.881168 0
M  V30 593 C 67.0913 3.01119 -0.85417 0
M  V30 594 C 67.5663 4.33524 -1.4772 0
M  V30 595 N 69.0573 4.40207 -1.44125 0
M  V30 596 C 69.7923 5.4126 -1.89276 0
M  V30 597 N 69.2883 6.49021 -2.42371 0
M  V30 598 N 71.0813 5.32422 -1.80231 0
M  V30 599 H 63.2323 1.45306 -1.54919 0
M  V30 600 H 65.4953 0.692733 -0.647167 0
M  V30 601 H 65.2013 2.9372 -1.93447 0
M  V30 602 H 65.0753 3.75224 -0.385592 0
M  V30 603 H 67.4623 2.94485 0.190491 0
M  V30 604 H 67.5433 2.14887 -1.3877 0
M  V30 605 H 67.1873 4.40916 -2.52103 0
M  V30 606 H 67.1173 5.1852 -0.918947 0
M  V30 607 H 69.6083 3.62931 -1.05307 0
M  V30 608 H 69.9213 7.2233 -2.74698 0
M  V30 609 H 68.2663 6.49858 -2.46393 0
M  V30 610 H 71.4573 4.47137 -1.38514 0
M  V30 611 H 71.6303 6.11034 -2.15735 0
M  V30 612 N 65.0364 0.313813 1.54444 0
M  V30 613 C 66.2854 -0.292519 1.99568 0
M  V30 614 C 66.5984 -1.54011 1.20582 0
M  V30 615 O 67.8044 -2.22183 1.56035 0
M  V30 616 C 66.2604 -0.571752 3.55329 0
M  V30 617 C 65.8684 0.658229 4.43138 0
M  V30 618 C 67.6124 -1.13857 4.08946 0
M  V30 619 C 65.5194 0.351439 5.90355 0
M  V30 620 H 64.4494 -0.113079 0.745472 0
M  V30 621 H 67.1004 0.424518 1.78522 0
M  V30 622 H 65.4824 -1.34872 3.72325 0
M  V30 623 H 66.6564 1.43403 4.37918 0
M  V30 624 H 64.9714 1.14458 4.0036 0
M  V30 625 H 67.5684 -1.38257 5.16516 0
M  V30 626 H 67.9114 -2.08489 3.6033 0
M  V30 627 H 68.4444 -0.423015 3.95544 0
M  V30 628 H 65.1834 1.26667 6.43145 0
M  V30 629 H 64.7034 -0.386842 5.98551 0
M  V30 630 H 66.3824 -0.0423134 6.46986 0
M  V30 631 N 66.5145 -1.57545 0.0417849 0
M  V30 632 C 67.7425 -1.96624 -0.643928 0
M  V30 633 C 68.1575 -0.918897 -1.64929 0
M  V30 634 O 67.5145 0.0979323 -1.82237 0
M  V30 635 C 67.5655 -3.35781 -1.33914 0
M  V30 636 O 67.2865 -4.365 -0.374048 0
M  V30 637 C 68.7875 -3.89566 -2.1155 0
M  V30 638 H 66.0075 -0.647316 -0.176702 0
M  V30 639 H 68.5515 -2.04229 0.105304 0
M  V30 640 H 66.7065 -3.29357 -2.03968 0
M  V30 641 H 67.1205 -5.17248 -0.869179 0
M  V30 642 H 68.5945 -4.89242 -2.55628 0
M  V30 643 H 69.0715 -3.24488 -2.9598 0
M  V30 644 H 69.6775 -3.99298 -1.46427 0
M  V30 645 N 67.9926 0.231505 -1.5589 0
M  V30 646 C 69.2406 0.955461 -1.78088 0
M  V30 647 C 69.5616 1.85262 -0.608533 0
M  V30 648 O 68.8316 1.92277 0.375035 0
M  V30 649 H 67.4116 0.355787 -0.656829 0
M  V30 650 H 70.0736 0.245751 -1.93344 0
M  V30 651 H 69.1696 1.56814 -2.69844 0
M  V30 652 N 69.4707 1.49531 0.497807 0
M  V30 653 C 70.7187 1.58865 1.24926 0
M  V30 654 C 71.0397 0.278721 1.92998 0
M  V30 655 O 70.3097 -0.702144 1.82885 0
M  V30 656 H 68.8897 0.585343 0.464094 0
M  V30 657 H 71.5517 1.86174 0.57666 0
M  V30 658 H 70.6477 2.38633 2.01149 0
M  V30 659 N 70.9488 -0.749086 1.3866 0
M  V30 660 C 72.1738 -1.54344 1.38538 0
M  V30 661 C 72.5988 -1.88088 -0.0216655 0
M  V30 662 O 71.9568 -1.50899 -1.00494 0
M  V30 663 C 72.0048 -2.8164 2.25192 0
M  V30 664 O 71.1088 -3.7698 1.67212 0
M  V30 665 H 70.4498 -0.466654 0.472367 0
M  V30 666 H 72.9798 -0.925355 1.82478 0
M  V30 667 H 72.9898 -3.30519 2.3921 0
M  V30 668 H 71.6648 -2.56411 3.27454 0
M  V30 669 H 70.2418 -3.35699 1.6236 0
M  V30 670 N 72.4269 -1.23603 -0.977757 0
M  V30 671 C 73.6519 -1.09735 -1.75991 0
M  V30 672 C 74.0769 0.346858 -1.84874 0
M  V30 673 O 73.4349 1.25093 -1.3123 0
M  V30 674 C 73.4829 -1.73051 -3.16363 0
M  V30 675 O 72.5869 -0.994452 -4.0023 0
M  V30 676 H 71.9279 -0.384476 -0.541364 0
M  V30 677 H 74.4579 -1.6371 -1.2272 0
M  V30 678 H 74.4679 -1.78398 -3.66931 0
M  V30 679 H 73.1429 -2.78137 -3.09213 0
M  V30 680 H 71.7199 -1.01812 -3.58732 0
M  V30 681 N 73.905 1.17692 -1.04816 0
M  V30 682 C 74.868 2.19787 -0.650117 0
M  V30 683 C 75.868 1.58044 0.296427 0
M  V30 684 O 77.058 1.74012 0.0808097 0
M  V30 685 C 74.19 3.40869 0.0456987 0
M  V30 686 H 75.383 2.56516 -1.5537 0
M  V30 687 H 72.936 1.31708 -0.841594 0
M  V30 688 H 73.671 3.09681 0.962726 0
M  V30 689 H 73.456 3.86928 -0.634727 0
M  V30 690 H 74.946 4.16445 0.310432 0
M  V30 691 N 75.3831 0.828654 1.34056 0
M  V30 692 C 76.6291 0.42008 1.98402 0
M  V30 693 C 76.9621 -1.01564 1.65525 0
M  V30 694 O 76.2371 -1.70834 0.929831 0
M  V30 695 C 76.5201 0.62927 3.54559 0
M  V30 696 C 76.3731 2.11152 3.97159 0
M  V30 697 C 77.6921 0.0688756 4.40046 0
M  V30 698 H 74.8111 0.154104 0.720709 0
M  V30 699 H 77.4531 1.04228 1.5886 0
M  V30 700 H 75.6031 0.0996418 3.88372 0
M  V30 701 H 77.2751 2.70522 3.73651 0
M  V30 702 H 75.5181 2.59985 3.47261 0
M  V30 703 H 76.1891 2.20868 5.05887 0
M  V30 704 H 78.6651 0.521458 4.1282 0
M  V30 705 H 77.5411 0.245006 5.48353 0
M  V30 706 H 77.8021 -1.0266 4.30015 0
M  V30 707 N 76.8612 -1.46375 0.584142 0
M  V30 708 C 77.8242 -2.28784 -0.138108 0
M  V30 709 C 78.8242 -1.38471 -0.817462 0
M  V30 710 O 80.0142 -1.60833 -0.669199 0
M  V30 711 C 77.1462 -3.18892 -1.20503 0
M  V30 712 H 78.3392 -2.94117 0.586127 0
M  V30 713 H 75.8922 -1.52509 0.342171 0
M  V30 714 H 76.6272 -2.58309 -1.96079 0
M  V30 715 H 76.4122 -3.85388 -0.722384 0
M  V30 716 H 77.9022 -3.80914 -1.71155 0
M  V30 717 N 78.3393 -0.321999 -1.54275 0
M  V30 718 C 79.5873 0.280489 -2.00144 0
M  V30 719 C 79.9083 1.52777 -1.21178 0
M  V30 720 O 79.1783 1.9338 -0.313187 0
M  V30 721 H 77.7583 0.106632 -0.73935 0
M  V30 722 H 80.4203 -0.438184 -1.8991 0
M  V30 723 H 79.5163 0.537972 -3.07428 0
M  V30 724 N 79.8174 1.5752 -0.0501392 0
M  V30 725 C 80.7494 2.08413 0.95376 0
M  V30 726 C 81.7624 1.01175 1.27544 0
M  V30 727 O 82.9514 1.28744 1.23641 0
M  V30 728 C 80.0514 2.51138 2.27559 0
M  V30 729 C 79.2244 3.817 2.13598 0
M  V30 730 C 78.2834 4.10749 3.28895 0
M  V30 731 O 77.3094 4.80685 3.04845 0
M  V30 732 N 78.5114 3.62579 4.5334 0
M  V30 733 H 81.2764 2.95165 0.519383 0
M  V30 734 H 78.8374 1.61327 0.136127 0
M  V30 735 H 80.8294 2.67648 3.03557 0
M  V30 736 H 79.3994 1.6964 2.62567 0
M  V30 737 H 78.6194 3.74782 1.22197 0
M  V30 738 H 79.9074 4.67201 2.01496 0
M  V30 739 H 79.3054 3.06039 4.75769 0
M  V30 740 H 77.8624 3.84329 5.26436 0
M  V30 741 N 81.2955 -0.223234 1.56011 0
M  V30 742 C 82.5415 -0.944891 1.8012 0
M  V30 743 C 82.8965 -1.82039 0.622862 0
M  V30 744 O 82.1895 -1.8773 -0.383143 0
M  V30 745 C 82.3835 -1.81948 3.0762 0
M  V30 746 C 82.2125 -1.03014 4.37742 0
M  V30 747 C 80.9825 -0.72574 5.00061 0
M  V30 748 C 83.1805 -0.396256 5.12771 0
M  V30 749 N 81.1625 0.0851816 6.13841 0
M  V30 750 C 82.5335 0.278137 6.19376 0
M  V30 751 C 84.5885 -0.309117 4.9694 0
M  V30 752 C 83.2915 1.03133 7.11868 0
M  V30 753 C 85.3175 0.430607 5.8983 0
M  V30 754 C 84.6795 1.09355 6.9586 0
M  V30 755 H 80.7785 -0.326081 0.710771 0
M  V30 756 H 83.3625 -0.215914 1.93499 0
M  V30 757 H 81.5335 -2.52029 2.95527 0
M  V30 758 H 83.2655 -2.47848 3.19927 0
M  V30 759 H 80.0205 -1.04335 4.61964 0
M  V30 760 H 80.4445 0.479428 6.753 0
M  V30 761 H 85.0865 -0.807313 4.15021 0
M  V30 762 H 82.8045 1.54105 7.9327 0
M  V30 763 H 86.3905 0.499012 5.79656 0
M  V30 764 H 85.2705 1.65679 7.66499 0
M  V30 765 N 82.7736 -1.49793 -0.48987 0
M  V30 766 C 84.1846 -1.52914 -1.07118 0
M  V30 767 C 84.5356 -0.321738 -1.93544 0
M  V30 768 O 83.6606 0.567338 -2.08831 0
M  V30 769 C 84.2556 -2.771 -1.94938 0
M  V30 770 C 82.8146 -2.82963 -2.48212 0
M  V30 771 C 81.9616 -2.46972 -1.26096 0
M  V30 772 H 84.9126 -1.56329 -0.273289 0
M  V30 773 H 84.9336 -2.57892 -2.79771 0
M  V30 774 H 84.4456 -3.64959 -1.32009 0
M  V30 775 H 82.5466 -1.99411 -3.14748 0
M  V30 776 H 82.6596 -3.85406 -2.84603 0
M  V30 777 H 81.0236 -1.98994 -1.58976 0
M  V30 778 H 81.8066 -3.37118 -0.648581 0
M  V30 779 N 84.2517 0.741722 -1.39055 0
M  V30 780 C 85.4977 1.50234 -1.37118 0
M  V30 781 C 85.8527 1.92368 0.0350439 0
M  V30 782 O 85.1457 1.63422 1.00019 0
M  V30 783 C 85.3397 2.7592 -2.27163 0
M  V30 784 C 85.1687 2.46074 -3.76401 0
M  V30 785 C 83.9387 2.38704 -4.45364 0
M  V30 786 C 86.1367 2.12062 -4.68545 0
M  V30 787 N 84.1187 2.01258 -5.79973 0
M  V30 788 C 85.4897 1.85005 -5.91754 0
M  V30 789 C 87.5447 1.98473 -4.56632 0
M  V30 790 C 86.2477 1.4573 -7.04383 0
M  V30 791 C 88.2737 1.60599 -5.69176 0
M  V30 792 C 87.6357 1.34423 -6.91455 0
M  V30 793 H 83.7347 0.548858 -0.557027 0
M  V30 794 H 86.3187 0.862642 -1.74547 0
M  V30 795 H 84.4897 3.3768 -1.91904 0
M  V30 796 H 86.2217 3.42068 -2.16267 0
M  V30 797 H 82.9767 2.55574 -3.98721 0
M  V30 798 H 83.4007 1.85147 -6.51191 0
M  V30 799 H 88.0427 2.17381 -3.62637 0
M  V30 800 H 85.7607 1.25562 -7.98286 0
M  V30 801 H 89.3467 1.507 -5.61944 0
M  V30 802 H 88.2267 1.05555 -7.77064 0
M  V30 803 N 85.7298 1.2412 0.971189 0
M  V30 804 C 86.6618 0.988349 2.06795 0
M  V30 805 C 87.6748 -0.0409541 1.62748 0
M  V30 806 O 88.8638 0.195673 1.77424 0
M  V30 807 C 85.9638 0.469023 3.35639 0
M  V30 808 C 85.1368 1.56065 4.08611 0
M  V30 809 C 84.1958 1.04458 5.15728 0
M  V30 810 O 83.2218 1.73553 5.42096 0
M  V30 811 N 84.4238 -0.122817 5.8037 0
M  V30 812 H 87.1888 1.93265 2.29061 0
M  V30 813 H 84.7498 1.15102 1.13856 0
M  V30 814 H 86.7418 0.108613 4.04554 0
M  V30 815 H 85.3118 -0.380919 3.1027 0
M  V30 816 H 84.5318 2.09341 3.34021 0
M  V30 817 H 85.8198 2.29449 4.54126 0
M  V30 818 H 85.2178 -0.700563 5.61345 0
M  V30 819 H 83.7748 -0.424404 6.50417 0
M  V30 820 N 87.2079 -1.17134 1.05439 0
M  V30 821 C 88.4539 -1.87733 0.767077 0
M  V30 822 C 88.7869 -1.8098 -0.704253 0
M  V30 823 O 88.0619 -1.21951 -1.5152 0
M  V30 824 C 88.3449 -3.37659 1.25133 0
M  V30 825 C 88.1979 -3.53149 2.78578 0
M  V30 826 C 89.5169 -4.31768 0.852324 0
M  V30 827 H 86.6359 -0.681687 0.280129 0
M  V30 828 H 89.2779 -1.37732 1.30881 0
M  V30 829 H 87.4279 -3.80373 0.790469 0
M  V30 830 H 89.0999 -3.19434 3.32806 0
M  V30 831 H 87.3429 -2.95345 3.17732 0
M  V30 832 H 88.0139 -4.58403 3.07523 0
M  V30 833 H 90.4899 -3.96909 1.24911 0
M  V30 834 H 89.3659 -5.35199 1.21873 0
M  V30 835 H 89.6269 -4.41429 -0.243485 0
M  V30 836 N 88.686 -0.835752 -1.33615 0
M  V30 837 C 89.911 -0.442389 -2.02627 0
M  V30 838 C 90.336 0.947735 -1.62479 0
M  V30 839 O 89.694 1.61907 -0.815826 0
M  V30 840 C 89.742 -0.567216 -3.56111 0
M  V30 841 O 88.846 0.407799 -4.10379 0
M  V30 842 H 88.187 -0.180278 -0.639059 0
M  V30 843 H 90.717 -1.12972 -1.70583 0
M  V30 844 H 90.727 -0.447708 -4.05536 0
M  V30 845 H 89.402 -1.58103 -3.84677 0
M  V30 846 H 87.979 0.246107 -3.72087 0
M  V30 847 N 90.1641 1.46063 -0.591896 0
M  V30 848 C 91.4131 2.01547 -0.0786637 0
M  V30 849 C 91.7261 1.46796 1.29268 0
M  V30 850 O 92.9321 1.94157 1.89777 0
M  V30 851 C 91.3881 3.59787 -0.0900024 0
M  V30 852 C 90.9961 4.23534 -1.46023 0
M  V30 853 C 92.7401 4.22895 0.368806 0
M  V30 854 C 90.6471 5.73881 -1.4288 0
M  V30 855 H 89.5771 0.753564 -0.0256388 0
M  V30 856 H 92.2281 1.677 -0.744905 0
M  V30 857 H 90.6101 3.90752 0.642586 0
M  V30 858 H 91.7841 4.04167 -2.21328 0
M  V30 859 H 90.0991 3.72558 -1.85982 0
M  V30 860 H 92.6961 5.33116 0.411258 0
M  V30 861 H 93.0391 3.9247 1.38827 0
M  V30 862 H 93.5721 3.9659 -0.31001 0
M  V30 863 H 90.3111 6.0898 -2.42536 0
M  V30 864 H 89.8311 5.95486 -0.718095 0
M  V30 865 H 91.5101 6.36776 -1.14565 0
M  V30 866 N 91.6422 0.330177 1.54103 0
M  V30 867 C 92.8702 -0.272179 2.05102 0
M  V30 868 C 93.2852 -1.45267 1.20595 0
M  V30 869 O 92.6422 -1.8094 0.238144 0
M  V30 870 C 92.6932 -0.70023 3.54653 0
M  V30 871 O 92.4142 0.433301 4.35952 0
M  V30 872 C 93.9152 -1.3647 4.21771 0
M  V30 873 H 91.1352 -0.0549159 0.668749 0
M  V30 874 H 93.6792 0.478285 1.98828 0
M  V30 875 H 91.8342 -1.40066 3.61193 0
M  V30 876 H 92.2482 0.0947539 5.24414 0
M  V30 877 H 93.7222 -1.61509 5.27843 0
M  V30 878 H 94.1992 -2.31409 3.73292 0
M  V30 879 H 94.8052 -0.706675 4.19388 0
M  V30 880 N 93.1203 -1.57491 0.0584922 0
M  V30 881 C 94.3503 -1.9701 -0.622134 0
M  V30 882 C 94.7583 -0.935034 -1.6448 0
M  V30 883 O 94.1013 0.0882904 -1.83488 0
M  V30 884 C 94.1633 -3.32794 -1.35972 0
M  V30 885 C 93.8273 -4.54343 -0.492043 0
M  V30 886 C 94.8243 -5.19323 0.244901 0
M  V30 887 C 92.5093 -5.00534 -0.420821 0
M  V30 888 C 94.5033 -6.28835 1.04143 0
M  V30 889 C 92.1903 -6.09921 0.379389 0
M  V30 890 C 93.1883 -6.73933 1.10919 0
M  V30 891 O 92.8763 -7.81216 1.89623 0
M  V30 892 H 92.6083 -0.653127 -0.174359 0
M  V30 893 H 95.1623 -2.05029 0.123418 0
M  V30 894 H 93.3923 -3.21351 -2.15105 0
M  V30 895 H 95.0813 -3.5701 -1.93129 0
M  V30 896 H 95.8473 -4.8459 0.19939 0
M  V30 897 H 91.7263 -4.50496 -0.978474 0
M  V30 898 H 95.2703 -6.7873 1.61157 0
M  V30 899 H 91.1673 -6.44089 0.426512 0
M  V30 900 H 91.9353 -7.98029 1.81913 0
M  V30 901 N 94.5984 0.214957 -1.56127 0
M  V30 902 C 95.5084 1.28727 -1.96129 0
M  V30 903 C 96.5244 1.50916 -0.866044 0
M  V30 904 O 97.7004 1.63918 -1.17016 0
M  V30 905 C 94.7654 2.61569 -2.27558 0
M  V30 906 C 93.8264 2.47625 -3.50685 0
M  V30 907 C 93.0594 3.74132 -3.80606 0
M  V30 908 O 93.2824 4.77438 -3.12104 0
M  V30 909 O 92.2164 3.70849 -4.74083 0
M  V30 910 H 96.0424 0.977855 -2.87527 0
M  V30 911 H 93.6274 0.418358 -1.43423 0
M  V30 912 H 95.5094 3.40012 -2.48938 0
M  V30 913 H 94.1844 2.92178 -1.39332 0
M  V30 914 H 93.0914 1.67361 -3.34576 0
M  V30 915 H 94.4244 2.21954 -4.39315 0
M  V30 916 N 96.0765 1.50051 0.48192 0
M  V30 917 C 97.3245 1.60181 1.23234 0
M  V30 918 C 97.6455 0.299176 1.92691 0
M  V30 919 O 96.9155 -0.682708 1.83619 0
M  V30 920 H 95.4955 0.590232 0.457859 0
M  V30 921 H 98.1575 1.86775 0.556881 0
M  V30 922 H 97.2535 2.40753 1.98607 0
M  V30 923 N 97.5546 -0.734337 1.39446 0
M  V30 924 C 98.8006 -1.49613 1.36908 0
M  V30 925 C 99.1336 -1.94169 -0.0347829 0
M  V30 926 O 98.4086 -1.66833 -0.999847 0
M  V30 927 C 98.6916 -2.73534 2.34203 0
M  V30 928 C 98.5446 -2.34993 3.83534 0
M  V30 929 C 99.8636 -3.75635 2.29317 0
M  V30 930 H 96.9826 -0.542714 0.498629 0
M  V30 931 H 99.6246 -0.839597 1.70443 0
M  V30 932 H 97.7746 -3.29553 2.05736 0
M  V30 933 H 99.4466 -1.84601 4.22753 0
M  V30 934 H 97.6896 -1.67213 4.00278 0
M  V30 935 H 98.3606 -3.23738 4.47099 0
M  V30 936 H 100.837 -3.29203 2.54489 0
M  V30 937 H 99.7126 -4.60008 2.99472 0
M  V30 938 H 99.9736 -4.22603 1.29842 0
M  V30 939 N 99.0327 -1.24633 -0.964593 0
M  V30 940 C 99.9827 -1.00841 -2.04487 0
M  V30 941 C 100.967 0.0512468 -1.60818 0
M  V30 942 O 102.159 -0.162865 -1.76249 0
M  V30 943 C 99.2877 -0.618474 -3.37683 0
M  V30 944 C 98.3737 -1.71437 -3.87905 0
M  V30 945 N 98.7647 -2.9477 -4.11029 0
M  V30 946 C 97.0627 -1.5926 -4.16596 0
M  V30 947 C 97.7637 -3.65834 -4.52261 0
M  V30 948 N 96.7397 -2.9341 -4.57615 0
M  V30 949 H 100.542 -1.94487 -2.20345 0
M  V30 950 H 98.0557 -1.14805 -1.14863 0
M  V30 951 H 100.053 -0.429247 -4.14684 0
M  V30 952 H 98.7127 0.310766 -3.23209 0
M  V30 953 H 99.7237 -3.30917 -3.9839 0
M  V30 954 H 96.4007 -0.731606 -4.1104 0
M  V30 955 H 97.7907 -4.71646 -4.78539 0
M  V30 956 N 100.511 1.16574 -1.06058 0
M  V30 957 C 101.757 1.87324 -0.777022 0
M  V30 958 C 102.09 1.81351 0.694645 0
M  V30 959 O 101.365 1.22753 1.50871 0
M  V30 960 C 101.648 3.36991 -1.26922 0
M  V30 961 C 101.501 3.51667 -2.80447 0
M  V30 962 C 102.82 4.3131 -0.87521 0
M  V30 963 H 99.9388 0.680191 -0.28374 0
M  V30 964 H 102.581 1.37036 -1.3161 0
M  V30 965 H 100.731 3.79949 -0.81063 0
M  V30 966 H 102.403 3.17664 -3.34495 0
M  V30 967 H 100.646 2.93656 -3.19294 0
M  V30 968 H 101.317 4.56766 -3.0995 0
M  V30 969 H 103.793 3.9624 -1.27014 0
M  V30 970 H 102.669 5.34545 -1.2471 0
M  V30 971 H 102.93 4.41552 0.220071 0
M  V30 972 N 101.989 0.842826 1.3317 0
M  V30 973 C 103.229 0.446574 1.99462 0
M  V30 974 C 103.593 -0.976818 1.65295 0
M  V30 975 O 104.794 -1.477 2.24584 0
M  V30 976 C 103.065 0.665353 3.51152 0
M  V30 977 S 104.624 0.364911 4.3728 0
M  V30 978 H 101.442 0.167803 0.690915 0
M  V30 979 H 104.044 1.09297 1.62094 0
M  V30 980 H 102.748 1.7006 3.73507 0
M  V30 981 H 102.279 0.00494568 3.934 0
M  V30 982 H 104.294 -0.813761 4.89482 0
M  V30 983 N 103.467 -1.45747 0.599634 0
M  V30 984 C 104.715 -2.01893 0.0915472 0
M  V30 985 C 105.036 -1.47155 -1.27946 0
M  V30 986 O 104.306 -0.66273 -1.84349 0
M  V30 987 H 102.886 -0.746363 0.0308524 0
M  V30 988 H 105.548 -1.78645 0.779237 0
M  V30 989 H 104.644 -3.1208 0.0353086 0
M  V30 990 N 104.945 -0.338344 -1.53925 0
M  V30 991 C 106.193 0.259245 -2.0043 0
M  V30 992 C 106.514 1.51484 -1.22791 0
M  V30 993 O 105.784 1.93037 -0.33368 0
M  V30 994 H 104.364 0.0987845 -0.740439 0
M  V30 995 H 107.026 -0.458302 -1.89435 0
M  V30 996 H 106.122 0.505334 -3.07982 0
M  V30 997 N 106.423 1.57458 -0.0668435 0
M  V30 998 C 107.648 1.9804 0.616027 0
M  V30 999 C 108.073 0.944771 1.62652 0
M  V30 1000 O 107.431 -0.0902094 1.81075 0
M  V30 1001 C 107.479 3.37665 1.26549 0
M  V30 1002 O 106.583 3.36701 2.38131 0
M  V30 1003 H 105.924 0.644719 0.158849 0
M  V30 1004 H 108.454 2.04121 -0.139891 0
M  V30 1005 H 108.464 3.7474 1.6135 0
M  V30 1006 H 107.139 4.12573 0.525016 0
M  V30 1007 H 105.716 3.1139 2.0516 0
M  V30 1008 N 107.901 -0.206675 1.56239 0
M  V30 1009 C 108.831 -1.25909 1.96645 0
M  V30 1010 C 109.812 -1.48097 0.836734 0
M  V30 1011 O 110.997 -1.6003 1.10019 0
M  V30 1012 C 108.127 -2.6058 2.29599 0
M  V30 1013 C 107.081 -2.53024 3.452 0
M  V30 1014 C 106.407 -3.91861 3.63798 0
M  V30 1015 C 107.707 -2.06524 4.79734 0
M  V30 1016 H 109.401 -0.923369 2.84806 0
M  V30 1017 H 106.947 -0.442735 1.37025 0
M  V30 1018 H 108.9 -3.34375 2.56459 0
M  V30 1019 H 107.624 -2.95869 1.38307 0
M  V30 1020 H 106.283 -1.81684 3.18412 0
M  V30 1021 H 105.931 -4.24483 2.69857 0
M  V30 1022 H 105.631 -3.87683 4.4156 0
M  V30 1023 H 107.155 -4.67296 3.93022 0
M  V30 1024 H 108.569 -2.70072 5.05702 0
M  V30 1025 H 106.966 -2.13374 5.60885 0
M  V30 1026 H 108.036 -1.01802 4.74093 0
M  V30 1027 N 109.379 -1.50304 -0.473955 0
M  V30 1028 C 110.625 -1.61389 -1.22806 0
M  V30 1029 C 110.958 -0.311955 -1.91678 0
M  V30 1030 O 110.233 0.686384 -1.81986 0
M  V30 1031 C 110.516 -2.79219 -2.27396 0
M  V30 1032 C 110.369 -4.19286 -1.62848 0
M  V30 1033 C 111.688 -2.92614 -3.28732 0
M  V30 1034 H 108.807 -0.587399 -0.445119 0
M  V30 1035 H 111.449 -1.82681 -0.522265 0
M  V30 1036 H 109.599 -2.61195 -2.87592 0
M  V30 1037 H 111.271 -4.48892 -1.06271 0
M  V30 1038 H 109.514 -4.23677 -0.931693 0
M  V30 1039 H 110.185 -4.97655 -2.38838 0
M  V30 1040 H 112.661 -3.09105 -2.78556 0
M  V30 1041 H 111.537 -3.76688 -3.99246 0
M  V30 1042 H 111.798 -2.03107 -3.92683 0
M  V30 1043 N 110.857 0.726932 -1.39834 0
M  V30 1044 C 112.082 1.52121 -1.40976 0
M  V30 1045 C 112.507 1.88098 -0.00826029 0
M  V30 1046 O 111.865 1.52479 0.980807 0
M  V30 1047 C 111.913 2.78021 -2.29644 0
M  V30 1048 O 111.017 3.74272 -1.73188 0
M  V30 1049 H 110.358 0.45908 -0.479731 0
M  V30 1050 H 112.888 0.896207 -1.83927 0
M  V30 1051 H 112.898 3.26671 -2.44438 0
M  V30 1052 H 111.573 2.51169 -3.31492 0
M  V30 1053 H 110.15 3.33073 -1.6768 0
M  V30 1054 N 112.336 1.25143 0.95797 0
M  V30 1055 C 113.246 1.06968 2.08794 0
M  V30 1056 C 114.262 0.00773911 1.73998 0
M  V30 1057 O 115.438 0.207972 2.00323 0
M  V30 1058 C 112.503 0.68691 3.39827 0
M  V30 1059 C 111.564 1.82641 3.88511 0
M  V30 1060 C 110.797 1.46181 5.1329 0
M  V30 1061 O 111.02 0.355971 5.69288 0
M  V30 1062 O 109.954 2.29085 5.566 0
M  V30 1063 H 113.78 2.01723 2.27027 0
M  V30 1064 H 111.365 1.04051 1.07209 0
M  V30 1065 H 113.247 0.485417 4.18595 0
M  V30 1066 H 111.922 -0.231417 3.22872 0
M  V30 1067 H 110.829 2.08274 3.10762 0
M  V30 1068 H 112.162 2.72386 4.09959 0
M  V30 1069 N 113.814 -1.1601 1.06675 0
M  V30 1070 C 114.746 -2.20115 0.638921 0
M  V30 1071 C 115.759 -1.59916 -0.305057 0
M  V30 1072 O 116.948 -1.78245 -0.0954446 0
M  V30 1073 C 114.048 -3.38798 -0.0830083 0
M  V30 1074 C 113.221 -4.2855 0.875426 0
M  V30 1075 C 112.28 -5.25849 0.192042 0
M  V30 1076 O 111.306 -5.63102 0.830921 0
M  V30 1077 N 112.508 -5.70648 -1.06493 0
M  V30 1078 H 115.273 -2.57439 1.53444 0
M  V30 1079 H 112.834 -1.31057 0.950557 0
M  V30 1080 H 114.826 -4.00936 -0.550685 0
M  V30 1081 H 113.396 -2.99947 -0.880386 0
M  V30 1082 H 112.616 -3.63617 1.52238 0
M  V30 1083 H 113.904 -4.85393 1.52548 0
M  V30 1084 H 113.302 -5.42482 -1.60405 0
M  V30 1085 H 111.859 -6.34859 -1.47641 0
M  V30 1086 N 115.292 -0.849877 -1.32721 0
M  V30 1087 C 116.538 -0.460855 -1.9811 0
M  V30 1088 C 116.893 0.971716 -1.66059 0
M  V30 1089 O 116.186 1.67184 -0.935944 0
M  V30 1090 C 116.38 -0.631272 -3.51781 0
M  V30 1091 C 116.209 -2.07886 -3.98765 0
M  V30 1092 C 114.979 -2.71637 -4.26077 0
M  V30 1093 C 117.177 -3.04889 -4.14182 0
M  V30 1094 N 115.159 -4.07356 -4.59276 0
M  V30 1095 C 116.53 -4.25583 -4.50865 0
M  V30 1096 C 118.585 -3.01148 -3.96503 0
M  V30 1097 C 117.288 -5.43027 -4.71714 0
M  V30 1098 C 119.314 -4.17832 -4.18533 0
M  V30 1099 C 118.676 -5.37284 -4.55528 0
M  V30 1100 H 114.775 -0.217283 -0.751207 0
M  V30 1101 H 117.359 -1.10026 -1.60631 0
M  V30 1102 H 115.53 -0.0215966 -3.88394 0
M  V30 1103 H 117.262 -0.212614 -4.04141 0
M  V30 1104 H 114.017 -2.22705 -4.17971 0
M  V30 1105 H 114.441 -4.77351 -4.80068 0
M  V30 1106 H 119.083 -2.0992 -3.67006 0
M  V30 1107 H 116.801 -6.34791 -5.00066 0
M  V30 1108 H 120.387 -4.16368 -4.06361 0
M  V30 1109 H 119.267 -6.26071 -4.72234 0
M  V30 1110 N 116.77 1.45427 -0.607355 0
M  V30 1111 C 118.016 2.0254 -0.102607 0
M  V30 1112 C 118.349 1.47478 1.26348 0
M  V30 1113 O 117.624 0.64939 1.83339 0
M  V30 1114 C 117.907 3.60044 -0.0634347 0
M  V30 1115 C 117.76 4.2544 -1.46017 0
M  V30 1116 C 119.079 4.35646 0.624514 0
M  V30 1117 H 116.198 0.73598 -0.0387607 0
M  V30 1118 H 118.84 1.73284 -0.779282 0
M  V30 1119 H 116.99 3.85101 0.512808 0
M  V30 1120 H 118.662 4.11569 -2.08347 0
M  V30 1121 H 116.905 3.83849 -2.02094 0
M  V30 1122 H 117.576 5.34342 -1.385 0
M  V30 1123 H 120.052 4.15882 0.134723 0
M  V30 1124 H 118.928 5.45376 0.621028 0
M  V30 1125 H 119.189 4.08501 1.69055 0
M  V30 1126 N 118.248 0.346503 1.53744 0
M  V30 1127 C 119.178 -0.501193 2.28058 0
M  V30 1128 C 120.159 -1.10014 1.29734 0
M  V30 1129 O 121.344 -1.12097 1.58581 0
M  V30 1130 C 118.474 -1.65078 3.05559 0
M  V30 1131 C 117.428 -1.18003 4.11411 0
M  V30 1132 C 116.754 -2.41837 4.76884 0
M  V30 1133 C 118.054 -0.278394 5.21558 0
M  V30 1134 H 119.748 0.11875 2.99164 0
M  V30 1135 H 117.294 0.0585531 1.43881 0
M  V30 1136 H 119.247 -2.25028 3.56287 0
M  V30 1137 H 117.971 -2.29767 2.32109 0
M  V30 1138 H 116.63 -0.603331 3.61601 0
M  V30 1139 H 116.278 -3.0494 4.00026 0
M  V30 1140 H 115.978 -2.1102 5.48402 0
M  V30 1141 H 117.502 -3.02508 5.30397 0
M  V30 1142 H 118.916 -0.784823 5.67903 0
M  V30 1143 H 117.313 -0.0619707 6.00068 0
M  V30 1144 H 118.383 0.684677 4.80042 0
M  V30 1145 N 119.726 -1.57421 0.075193 0
M  V30 1146 C 120.951 -1.98364 -0.605515 0
M  V30 1147 C 121.376 -0.953383 -1.62149 0
M  V30 1148 O 120.734 0.0806053 -1.81121 0
M  V30 1149 C 120.782 -3.38332 -1.24756 0
M  V30 1150 O 119.886 -3.37959 -2.36342 0
M  V30 1151 H 119.227 -0.645553 -0.155428 0
M  V30 1152 H 121.757 -2.04044 0.150714 0
M  V30 1153 H 121.767 -3.75591 -1.5936 0
M  V30 1154 H 120.442 -4.12846 -0.503129 0
M  V30 1155 H 119.019 -3.12474 -2.03506 0
M  V30 1156 N 121.204 0.198386 -1.56346 0
M  V30 1157 C 122.167 1.22952 -1.93431 0
M  V30 1158 C 123.167 1.38611 -0.815092 0
M  V30 1159 O 124.357 1.36479 -1.08255 0
M  V30 1160 C 121.489 2.59946 -2.20546 0
M  V30 1161 H 122.682 0.912626 -2.85677 0
M  V30 1162 H 120.235 0.43977 -1.49986 0
M  V30 1163 H 120.97 2.96696 -1.30927 0
M  V30 1164 H 120.755 2.49953 -3.02102 0
M  V30 1165 H 122.245 3.3431 -2.50253 0
M  V30 1166 N 122.682 1.50554 0.465978 0
M  V30 1167 C 123.645 1.69233 1.54574 0
M  V30 1168 C 124.645 0.562901 1.50626 0
M  V30 1169 O 125.835 0.830016 1.53155 0
M  V30 1170 C 122.967 1.7223 2.94193 0
M  V30 1171 H 124.16 2.65571 1.39327 0
M  V30 1172 H 121.713 1.40111 0.692711 0
M  V30 1173 H 122.448 0.77603 3.14878 0
M  V30 1174 H 122.233 2.54285 2.98466 0
M  V30 1175 H 123.723 1.88618 3.72576 0
M  V30 1176 N 124.16 -0.719506 1.40217 0
M  V30 1177 C 125.11 -1.8251 1.36653 0
M  V30 1178 C 126.094 -1.59028 0.244732 0
M  V30 1179 O 127.286 -1.70268 0.483524 0
M  V30 1180 C 124.415 -3.20599 1.22763 0
M  V30 1181 C 123.501 -3.49858 2.39708 0
M  V30 1182 N 123.892 -3.49957 3.6519 0
M  V30 1183 C 122.19 -3.80297 2.33002 0
M  V30 1184 C 122.891 -3.77449 4.42614 0
M  V30 1185 N 121.867 -3.96002 3.72402 0
M  V30 1186 H 125.669 -1.80914 2.31619 0
M  V30 1187 H 123.183 -0.918455 1.33933 0
M  V30 1188 H 125.18 -3.99766 1.18292 0
M  V30 1189 H 123.84 -3.23424 0.287614 0
M  V30 1190 H 124.851 -3.309 3.98404 0
M  V30 1191 H 121.528 -3.90635 1.47346 0
M  V30 1192 H 122.918 -3.83863 5.51451 0
M  V30 1193 N 125.638 -1.25649 -0.95132 0
M  V30 1194 C 126.878 -1.11802 -1.71113 0
M  V30 1195 C 127.242 0.334758 -1.89059 0
M  V30 1196 O 128.443 0.595121 -2.62129 0
M  V30 1197 C 126.714 -1.85512 -3.05483 0
M  V30 1198 S 128.273 -1.87597 -3.96677 0
M  V30 1199 H 125.091 -0.399552 -0.588115 0
M  V30 1200 H 127.693 -1.59222 -1.1344 0
M  V30 1201 H 126.397 -2.90299 -2.90094 0
M  V30 1202 H 125.928 -1.38493 -3.68216 0
M  V30 1203 H 127.943 -0.955389 -4.86916 0
M  V30 1204 N 127.117 1.15442 -1.07289 0
M  V30 1205 C 128.364 1.86213 -0.795668 0
M  V30 1206 C 128.692 1.82291 0.678238 0
M  V30 1207 O 127.947 1.24057 1.51355 0
M  V30 1208 C 128.246 3.3489 -1.24834 0
M  V30 1209 C 127.912 3.59007 -2.72809 0
M  V30 1210 C 126.574 3.65298 -3.13227 0
M  V30 1211 C 128.926 3.68762 -3.68326 0
M  V30 1212 C 126.254 3.78854 -4.4798 0
M  V30 1213 C 128.606 3.83842 -5.0284 0
M  V30 1214 C 127.27 3.88378 -5.4288 0
M  V30 1215 H 126.54 0.681403 -0.291155 0
M  V30 1216 H 129.187 1.36435 -1.34379 0
M  V30 1217 H 127.492 3.8687 -0.619595 0
M  V30 1218 H 129.189 3.88052 -1.01076 0
M  V30 1219 H 125.779 3.5475 -2.40521 0
M  V30 1220 H 129.963 3.63202 -3.38227 0
M  V30 1221 H 125.219 3.80623 -4.78472 0
M  V30 1222 H 129.393 3.90332 -5.76727 0
M  V30 1223 H 127.02 3.98635 -6.47298 0
M  V30 1224 N 128.595 0.856903 1.32268 0
M  V30 1225 C 130.006 0.515711 1.79436 0
M  V30 1226 C 130.357 -0.966586 1.70738 0
M  V30 1227 O 129.482 -1.75409 1.26731 0
M  V30 1228 C 130.077 0.929335 3.25805 0
M  V30 1229 C 128.636 0.640006 3.70919 0
M  V30 1230 C 127.783 1.12784 2.53328 0
M  V30 1231 H 130.734 1.04389 1.19535 0
M  V30 1232 H 130.755 0.246633 3.797 0
M  V30 1233 H 130.267 2.00821 3.32103 0
M  V30 1234 H 128.368 -0.428051 3.70133 0
M  V30 1235 H 128.481 1.20788 4.63624 0
M  V30 1236 H 126.845 0.548033 2.48734 0
M  V30 1237 H 127.628 2.21387 2.62379 0
M  V30 1238 N 130.073 -1.45103 0.615059 0
M  V30 1239 C 131.298 -2.07064 0.117988 0
M  V30 1240 C 131.723 -1.4554 -1.19163 0
M  V30 1241 O 131.081 -0.550855 -1.72729 0
M  V30 1242 C 131.129 -3.606 -0.000288387 0
M  V30 1243 O 130.233 -3.98847 -1.04856 0
M  V30 1244 H 129.574 -0.659467 0.0774581 0
M  V30 1245 H 132.104 -1.86236 0.847186 0
M  V30 1246 H 132.114 -4.07529 -0.196091 0
M  V30 1247 H 130.789 -4.04765 0.955932 0
M  V30 1248 H 129.366 -3.63577 -0.828619 0
M  V30 1249 N 131.551 -0.354651 -1.53558 0
M  V30 1250 C 132.461 0.50515 -2.29097 0
M  V30 1251 C 133.477 1.10223 -1.34636 0
M  V30 1252 O 134.653 1.11553 -1.67684 0
M  V30 1253 C 131.718 1.63479 -3.05738 0
M  V30 1254 C 130.779 1.06636 -4.15845 0
M  V30 1255 C 130.012 2.14217 -4.88822 0
M  V30 1256 O 130.235 3.35137 -4.61562 0
M  V30 1257 O 129.169 1.77887 -5.75013 0
M  V30 1258 H 132.995 -0.109237 -3.03503 0
M  V30 1259 H 130.58 -0.119357 -1.48922 0
M  V30 1260 H 132.462 2.2918 -3.5363 0
M  V30 1261 H 131.137 2.23478 -2.34178 0
M  V30 1262 H 130.044 0.373565 -3.7223 0
M  V30 1263 H 131.377 0.511081 -4.89539 0
M  V30 1264 N 133.029 1.57378 -0.0835403 0
M  V30 1265 C 133.979 2.09916 0.889905 0
M  V30 1266 C 134.963 1.01151 1.25129 0
M  V30 1267 O 136.155 1.27443 1.2283 0
M  V30 1268 C 133.284 2.67379 2.15322 0
M  V30 1269 C 132.37 3.83167 1.81779 0
M  V30 1270 N 132.761 4.91665 1.18739 0
M  V30 1271 C 131.059 3.92685 2.11459 0
M  V30 1272 C 131.76 5.72409 1.0355 0
M  V30 1273 N 130.736 5.21062 1.54906 0
M  V30 1274 H 134.538 2.91188 0.398378 0
M  V30 1275 H 132.052 1.61956 0.120013 0
M  V30 1276 H 134.049 3.0334 2.8599 0
M  V30 1277 H 132.709 1.87558 2.65051 0
M  V30 1278 H 133.72 5.10784 0.855604 0
M  V30 1279 H 130.397 3.23856 2.63483 0
M  V30 1280 H 131.787 6.69699 0.543425 0
M  V30 1281 N 134.507 -0.190092 1.56449 0
M  V30 1282 C 135.457 -1.23977 1.91347 0
M  V30 1283 C 136.441 -1.40747 0.779693 0
M  V30 1284 O 137.633 -1.43033 1.04262 0
M  V30 1285 C 134.762 -2.58347 2.26079 0
M  V30 1286 C 133.848 -2.4535 3.45925 0
M  V30 1287 N 134.239 -2.02039 4.63696 0
M  V30 1288 C 132.537 -2.76229 3.50162 0
M  V30 1289 C 133.238 -2.01053 5.4585 0
M  V30 1290 N 132.214 -2.42747 4.8639 0
M  V30 1291 H 136.016 -0.896318 2.79899 0
M  V30 1292 H 133.53 -0.398496 1.57435 0
M  V30 1293 H 135.527 -3.34173 2.49267 0
M  V30 1294 H 134.187 -2.93512 1.38856 0
M  V30 1295 H 135.198 -1.7267 4.88268 0
M  V30 1296 H 131.875 -3.15556 2.73369 0
M  V30 1297 H 133.265 -1.69426 6.50188 0
M  V30 1298 N 135.985 -1.50799 -0.457987 0
M  V30 1299 C 136.932 -1.70617 -1.5543 0
M  V30 1300 C 137.902 -0.547562 -1.56815 0
M  V30 1301 O 139.087 -0.779647 -1.74144 0
M  V30 1302 C 136.227 -1.81831 -2.93311 0
M  V30 1303 C 135.34 -3.09278 -3.01615 0
M  V30 1304 C 134.475 -3.11209 -4.30491 0
M  V30 1305 C 133.514 -4.33055 -4.32585 0
M  V30 1306 N 132.651 -4.32652 -5.52952 0
M  V30 1307 H 137.491 -2.64207 -1.37836 0
M  V30 1308 H 135.028 -1.30959 -0.669937 0
M  V30 1309 H 136.986 -1.86314 -3.73287 0
M  V30 1310 H 135.616 -0.916685 -3.0951 0
M  V30 1311 H 134.668 -3.14203 -2.1443 0
M  V30 1312 H 135.98 -3.99233 -2.99022 0
M  V30 1313 H 135.134 -3.14494 -5.18824 0
M  V30 1314 H 133.873 -2.19106 -4.35711 0
M  V30 1315 H 132.878 -4.29969 -3.42647 0
M  V30 1316 H 134.103 -5.264 -4.29046 0
M  V30 1317 H 132.049 -3.43409 -5.58933 0
M  V30 1318 H 131.966 -5.16392 -5.52155 0
M  V30 1319 H 133.234 -4.40101 -6.43375 0
M  V30 1320 N 137.463 0.71206 -1.40597 0
M  V30 1321 C 138.373 1.8562 -1.43466 0
M  V30 1322 C 139.389 1.70902 -0.326902 0
M  V30 1323 O 140.565 1.93105 -0.572043 0
M  V30 1324 C 137.63 3.21451 -1.29884 0
M  V30 1325 C 136.691 3.48398 -2.50833 0
M  V30 1326 C 135.924 4.77749 -2.3789 0
M  V30 1327 O 136.147 5.53089 -1.39459 0
M  V30 1328 O 135.081 5.05111 -3.27333 0
M  V30 1329 H 138.907 1.86155 -2.39958 0
M  V30 1330 H 136.492 0.86295 -1.21957 0
M  V30 1331 H 138.374 4.02579 -1.24531 0
M  V30 1332 H 137.049 3.21636 -0.364997 0
M  V30 1333 H 135.956 2.67265 -2.61763 0
M  V30 1334 H 137.289 3.53014 -3.4299 0
M  V30 1335 N 138.941 1.26152 0.944643 0
M  V30 1336 C 139.904 1.07474 2.0244 0
M  V30 1337 C 140.904 0.0242064 1.60782 0
M  V30 1338 O 142.094 0.267302 1.72137 0
M  V30 1339 C 139.226 0.633956 3.34953 0
M  V30 1340 H 140.419 2.03336 2.20442 0
M  V30 1341 H 137.972 1.087 1.12312 0
M  V30 1342 H 138.707 -0.326811 3.22649 0
M  V30 1343 H 138.492 1.39247 3.66542 0
M  V30 1344 H 139.982 0.52501 4.14287 0
M  V30 1345 N 140.419 -1.14872 1.07899 0
M  V30 1346 C 141.649 -1.89386 0.825631 0
M  V30 1347 C 142.057 -1.78565 -0.625406 0
M  V30 1348 O 141.4 -1.13918 -1.44113 0
M  V30 1349 C 141.462 -3.40206 1.16191 0
M  V30 1350 C 141.126 -3.74812 2.61467 0
M  V30 1351 C 142.123 -3.75367 3.59716 0
M  V30 1352 C 139.808 -4.0495 2.97189 0
M  V30 1353 C 141.802 -4.05574 4.9172 0
M  V30 1354 C 139.489 -4.34821 4.29388 0
M  V30 1355 C 140.487 -4.35116 5.26463 0
M  V30 1356 O 140.175 -4.64267 6.56286 0
M  V30 1357 H 139.907 -0.606894 0.297751 0
M  V30 1358 H 142.461 -1.46438 1.44031 0
M  V30 1359 H 140.691 -3.8358 0.490214 0
M  V30 1360 H 142.38 -3.96018 0.890193 0
M  V30 1361 H 143.146 -3.52176 3.33462 0
M  V30 1362 H 139.025 -4.03876 2.22273 0
M  V30 1363 H 142.569 -4.05719 5.67484 0
M  V30 1364 H 138.466 -4.5748 4.55392 0
M  V30 1365 H 139.234 -4.82007 6.61522 0
M  V30 1366 N 141.898 -0.863906 -1.31812 0
M  V30 1367 C 142.808 -0.318461 -2.32428 0
M  V30 1368 C 143.824 0.568496 -1.64451 0
M  V30 1369 O 145 0.46666 -1.95919 0
M  V30 1370 C 142.065 0.476355 -3.43412 0
M  V30 1371 C 141.126 -0.43784 -4.27061 0
M  V30 1372 C 140.359 0.319138 -5.32745 0
M  V30 1373 O 140.582 1.54799 -5.48993 0
M  V30 1374 O 139.516 -0.319861 -6.01049 0
M  V30 1375 H 143.342 -1.15229 -2.80991 0
M  V30 1376 H 140.927 -0.627103 -1.35602 0
M  V30 1377 H 142.809 0.927156 -4.11074 0
M  V30 1378 H 141.484 1.28683 -2.97022 0
M  V30 1379 H 140.391 -0.937013 -3.62175 0
M  V30 1380 H 141.724 -1.21375 -4.77 0
M  V30 1381 N 143.376 1.44774 -0.622745 0
M  V30 1382 C 144.622 2.0242 -0.124083 0
M  V30 1383 C 144.955 1.4881 1.24777 0
M  V30 1384 O 144.23 0.668799 1.8264 0
M  V30 1385 C 144.513 3.59957 -0.101619 0
M  V30 1386 C 144.366 4.23867 -1.50521 0
M  V30 1387 C 145.685 4.36284 0.578272 0
M  V30 1388 H 142.804 0.735528 -0.0465645 0
M  V30 1389 H 145.446 1.72447 -0.797617 0
M  V30 1390 H 143.596 3.85623 0.471934 0
M  V30 1391 H 145.268 4.09336 -2.12701 0
M  V30 1392 H 143.511 3.81684 -2.06154 0
M  V30 1393 H 144.182 5.32843 -1.4416 0
M  V30 1394 H 146.658 4.16001 0.0906057 0
M  V30 1395 H 145.534 5.46004 0.563149 0
M  V30 1396 H 145.795 4.10271 1.64713 0
M  V30 1397 N 144.854 0.36279 1.53368 0
M  V30 1398 C 145.801 -0.485008 2.25646 0
M  V30 1399 C 146.771 -1.07982 1.2621 0
M  V30 1400 O 147.956 -1.11284 1.54986 0
M  V30 1401 C 145.096 -1.62023 3.04701 0
M  V30 1402 C 144.209 -1.05086 4.19024 0
M  V30 1403 C 143.344 -2.15496 4.85525 0
M  V30 1404 C 142.383 -1.5601 5.91884 0
M  V30 1405 N 141.52 -2.60241 6.52088 0
M  V30 1406 H 146.36 0.137864 2.97681 0
M  V30 1407 H 143.897 0.0798061 1.46883 0
M  V30 1408 H 145.855 -2.28887 3.48807 0
M  V30 1409 H 144.485 -2.2138 2.34927 0
M  V30 1410 H 143.537 -0.27259 3.79422 0
M  V30 1411 H 144.849 -0.575926 4.95464 0
M  V30 1412 H 144.003 -2.90186 5.32801 0
M  V30 1413 H 142.742 -2.66341 4.08551 0
M  V30 1414 H 141.747 -0.798338 5.43973 0
M  V30 1415 H 142.972 -1.05994 6.70777 0
M  V30 1416 H 140.918 -3.10304 5.77968 0
M  V30 1417 H 140.835 -2.17426 7.24059 0
M  V30 1418 H 142.103 -3.34641 7.04014 0
M  V30 1419 N 146.332 -1.57332 0.0918853 0
M  V30 1420 C 147.262 -2.16872 -0.865371 0
M  V30 1421 C 148.243 -1.10118 -1.29646 0
M  V30 1422 O 149.428 -1.38242 -1.36392 0
M  V30 1423 C 146.558 -2.74649 -2.12569 0
M  V30 1424 C 145.512 -3.86747 -1.83333 0
M  V30 1425 C 144.838 -4.31212 -3.16166 0
M  V30 1426 C 146.138 -5.10089 -1.1228 0
M  V30 1427 H 147.832 -2.97114 -0.369307 0
M  V30 1428 H 145.378 -1.42918 -0.176194 0
M  V30 1429 H 147.331 -3.14952 -2.7997 0
M  V30 1430 H 146.055 -1.91657 -2.64452 0
M  V30 1431 H 144.714 -3.46978 -1.18331 0
M  V30 1432 H 144.362 -3.45115 -3.6593 0
M  V30 1433 H 144.062 -5.06788 -2.97388 0
M  V30 1434 H 145.586 -4.74146 -3.84731 0
M  V30 1435 H 147 -5.47582 -1.69785 0
M  V30 1436 H 145.397 -5.91073 -1.03693 0
M  V30 1437 H 146.467 -4.84786 -0.105041 0
M  V30 1438 N 147.81 0.181792 -1.56548 0
M  V30 1439 C 149.058 0.89832 -1.81038 0
M  V30 1440 C 149.379 1.83232 -0.667164 0
M  V30 1441 O 148.649 1.93372 0.313673 0
M  V30 1442 H 147.229 0.33471 -0.667816 0
M  V30 1443 H 149.891 0.184116 -1.94028 0
M  V30 1444 H 148.987 1.4815 -2.74696 0
M  V30 1445 N 149.288 1.51039 0.449983 0
M  V30 1446 C 150.251 1.70863 1.5277 0
M  V30 1447 C 151.251 0.578846 1.5002 0
M  V30 1448 O 152.441 0.846213 1.52266 0
M  V30 1449 C 149.573 1.75341 2.9235 0
M  V30 1450 H 150.766 2.67034 1.36502 0
M  V30 1451 H 148.319 1.40838 0.677812 0
M  V30 1452 H 149.054 0.809383 3.14037 0
M  V30 1453 H 148.839 2.57436 2.95752 0
M  V30 1454 H 150.329 1.92559 3.70555 0
M  V30 1455 N 150.766 -0.704594 1.40972 0
M  V30 1456 C 151.716 -1.81051 1.38581 0
M  V30 1457 C 152.7 -1.58759 0.261585 0
M  V30 1458 O 153.892 -1.69745 0.501556 0
M  V30 1459 C 151.021 -3.19279 1.26157 0
M  V30 1460 C 150.107 -3.47296 2.43405 0
M  V30 1461 N 150.498 -3.46064 3.68881 0
M  V30 1462 C 148.796 -3.77804 2.37023 0
M  V30 1463 C 149.497 -3.72733 4.46592 0
M  V30 1464 N 148.473 -3.9203 3.76581 0
M  V30 1465 H 152.275 -1.78448 2.33525 0
M  V30 1466 H 149.789 -0.904198 1.349 0
M  V30 1467 H 151.786 -3.98488 1.22526 0
M  V30 1468 H 150.446 -3.231 0.321902 0
M  V30 1469 H 151.457 -3.26656 4.01891 0
M  V30 1470 H 148.134 -3.8905 1.51481 0
M  V30 1471 H 149.524 -3.77993 5.55492 0
M  V30 1472 N 152.244 -1.26651 -0.937939 0
M  V30 1473 C 153.176 -1.04283 -2.04102 0
M  V30 1474 C 154.189 -0.00221014 -1.628 0
M  V30 1475 O 155.378 -0.242645 -1.76843 0
M  V30 1476 C 152.478 -0.557846 -3.34277 0
M  V30 1477 C 151.651 -1.66843 -4.04329 0
M  V30 1478 C 150.71 -1.18095 -5.12777 0
M  V30 1479 O 149.736 -1.87865 -5.37304 0
M  V30 1480 N 150.938 -0.0311006 -5.80492 0
M  V30 1481 H 153.703 -1.9927 -2.23856 0
M  V30 1482 H 151.264 -1.1808 -1.10764 0
M  V30 1483 H 153.256 -0.215836 -4.04124 0
M  V30 1484 H 151.826 0.298523 -3.11171 0
M  V30 1485 H 151.046 -2.18123 -3.28353 0
M  V30 1486 H 152.334 -2.41408 -4.47883 0
M  V30 1487 H 151.732 0.551486 -5.63005 0
M  V30 1488 H 150.289 0.251809 -6.51313 0
M  V30 1489 N 153.722 1.14298 -1.08507 0
M  V30 1490 C 154.652 2.21542 -0.737646 0
M  V30 1491 C 155.633 1.67773 0.280377 0
M  V30 1492 O 156.818 1.93616 0.150521 0
M  V30 1493 C 153.948 3.46988 -0.147259 0
M  V30 1494 C 152.902 4.13789 -1.09374 0
M  V30 1495 C 152.228 5.33449 -0.365524 0
M  V30 1496 C 153.528 4.62208 -2.4323 0
M  V30 1497 H 155.222 2.5086 -1.6343 0
M  V30 1498 H 152.768 1.20576 -0.787243 0
M  V30 1499 H 154.721 4.21262 0.107808 0
M  V30 1500 H 153.445 3.17037 0.784538 0
M  V30 1501 H 152.104 3.4147 -1.33393 0
M  V30 1502 H 151.752 4.99759 0.57011 0
M  V30 1503 H 151.452 5.79088 -0.996512 0
M  V30 1504 H 152.976 6.10485 -0.118534 0
M  V30 1505 H 154.39 5.27952 -2.23472 0
M  V30 1506 H 152.787 5.18553 -3.02031 0
M  V30 1507 H 153.857 3.77224 -3.04681 0
M  V30 1508 N 155.201 0.870884 1.31352 0
M  V30 1509 C 156.478 0.402907 1.91405 0
M  V30 1510 C 156.858 -1.11512 1.79244 0
M  V30 1511 O 156.206 -1.94411 1.2007 0
M  V30 1512 C 156.416 0.885301 3.37585 0
M  V30 1513 C 157.764 0.911971 4.14691 0
M  V30 1514 O 158.788 0.831016 3.46371 0
M  V30 1515 O 157.647 1.02927 5.3672 0
M  V30 1516 H 154.741 0.120698 0.818145 0
M  V30 1517 H 157.287 0.958857 1.40014 0
M  V30 1518 H 156.059 1.92889 3.40455 0
M  V30 1519 H 155.682 0.307714 3.96407 0
M  V30 1520 N 156.679 -1.44442 0.630414 0
M  V30 1521 C 157.904 -2.06927 0.139944 0
M  V30 1522 C 158.329 -1.46795 -1.17613 0
M  V30 1523 O 157.687 -0.569144 -1.72135 0
M  V30 1524 C 157.735 -3.6058 0.0379581 0
M  V30 1525 O 156.839 -3.99937 -1.0062 0
M  V30 1526 H 156.18 -0.658608 0.0844483 0
M  V30 1527 H 158.71 -1.85327 0.866891 0
M  V30 1528 H 158.72 -4.07714 -0.152856 0
M  V30 1529 H 157.395 -4.03728 0.998809 0
M  V30 1530 H 155.972 -3.64436 -0.79001 0
M  V30 1531 N 158.157 -0.370918 -1.53173 0
M  V30 1532 C 159.387 0.217389 -2.05453 0
M  V30 1533 C 159.795 1.42568 -1.24382 0
M  V30 1534 O 159.138 1.81571 -0.278839 0
M  V30 1535 C 159.2 0.669827 -3.53205 0
M  V30 1536 C 158.864 -0.4225 -4.55043 0
M  V30 1537 C 159.861 -1.27407 -5.04047 0
M  V30 1538 C 157.546 -0.58427 -4.9889 0
M  V30 1539 C 159.54 -2.27271 -5.95505 0
M  V30 1540 C 157.227 -1.58627 -5.90153 0
M  V30 1541 C 158.225 -2.42892 -6.38351 0
M  V30 1542 O 157.913 -3.41382 -7.27814 0
M  V30 1543 H 157.645 0.0408171 -0.674767 0
M  V30 1544 H 160.199 -0.5292 -1.98466 0
M  V30 1545 H 158.429 1.4681 -3.57748 0
M  V30 1546 H 160.118 1.18173 -3.88317 0
M  V30 1547 H 160.884 -1.16031 -4.70916 0
M  V30 1548 H 156.763 0.061851 -4.60959 0
M  V30 1549 H 160.307 -2.93079 -6.33049 0
M  V30 1550 H 156.204 -1.70048 -6.22699 0
M  V30 1551 H 156.972 -3.37173 -7.45826 0
M  V30 1552 N 159.635 1.57281 -0.100228 0
M  V30 1553 C 160.86 1.99302 0.573881 0
M  V30 1554 C 161.285 0.979059 1.60611 0
M  V30 1555 O 160.643 -0.0517803 1.81226 0
M  V30 1556 C 160.691 3.40274 1.19358 0
M  V30 1557 O 159.795 3.41676 2.30935 0
M  V30 1558 H 159.136 0.647944 0.145138 0
M  V30 1559 H 161.666 2.03779 -0.183156 0
M  V30 1560 H 161.676 3.78078 1.53365 0
M  V30 1561 H 160.351 4.13594 0.437385 0
M  V30 1562 H 158.928 3.15672 1.98509 0
M  V30 1563 N 161.113 -0.173488 1.56642 0
M  V30 1564 C 162.023 -1.23482 1.99473 0
M  V30 1565 C 163.039 -1.48567 0.905752 0
M  V30 1566 O 164.215 -1.60758 1.21321 0
M  V30 1567 C 161.28 -2.55444 2.34413 0
M  V30 1568 C 160.341 -2.38241 3.57127 0
M  V30 1569 C 159.574 -3.63909 3.90392 0
M  V30 1570 O 159.797 -4.68996 3.24653 0
M  V30 1571 O 158.731 -3.58149 4.83749 0
M  V30 1572 H 162.557 -0.901279 2.90018 0
M  V30 1573 H 160.142 -0.380185 1.44482 0
M  V30 1574 H 162.024 -3.33292 2.57865 0
M  V30 1575 H 160.699 -2.88382 1.4703 0
M  V30 1576 H 159.606 -1.58431 3.38896 0
M  V30 1577 H 160.939 -2.10228 4.45045 0
M  V30 1578 N 162.591 -1.51276 -0.441967 0
M  V30 1579 C 163.868 -1.54252 -1.20273 0
M  V30 1580 C 164.248 -0.30408 -2.08898 0
M  V30 1581 O 163.596 0.711084 -2.17154 0
M  V30 1582 C 163.806 -2.85406 -2.00859 0
M  V30 1583 C 165.154 -3.37181 -2.58059 0
M  V30 1584 O 166.178 -2.86925 -2.11074 0
M  V30 1585 O 165.037 -4.24858 -3.43741 0
M  V30 1586 H 162.131 -0.619969 -0.547328 0
M  V30 1587 H 164.677 -1.63586 -0.451413 0
M  V30 1588 H 163.449 -3.67003 -1.35736 0
M  V30 1589 H 163.072 -2.79213 -2.83065 0
M  V30 1590 N 164.069 0.697108 -1.41344 0
M  V30 1591 C 165.032 1.79281 -1.42797 0
M  V30 1592 C 166.032 1.57607 -0.318837 0
M  V30 1593 O 167.222 1.64309 -0.578642 0
M  V30 1594 C 164.354 3.17632 -1.23785 0
M  V30 1595 H 165.547 1.79385 -2.40335 0
M  V30 1596 H 163.1 0.904582 -1.27464 0
M  V30 1597 H 163.835 3.23167 -0.270814 0
M  V30 1598 H 163.62 3.34765 -2.04144 0
M  V30 1599 H 165.11 3.97617 -1.27633 0
M  V30 1600 N 165.547 1.27147 0.931209 0
M  V30 1601 C 166.494 1.09568 2.03134 0
M  V30 1602 C 167.464 -0.00222433 1.661 0
M  V30 1603 O 168.649 0.159439 1.90133 0
M  V30 1604 C 165.789 0.745231 3.36957 0
M  V30 1605 C 164.902 1.92041 3.86968 0
M  V30 1606 C 164.037 1.51216 5.09222 0
M  V30 1607 C 163.076 2.65504 5.5152 0
M  V30 1608 N 162.213 2.25291 6.64972 0
M  V30 1609 H 167.053 2.03708 2.17502 0
M  V30 1610 H 164.59 1.01411 1.06556 0
M  V30 1611 H 166.548 0.522878 4.1391 0
M  V30 1612 H 165.178 -0.159202 3.22407 0
M  V30 1613 H 164.23 2.25541 3.06326 0
M  V30 1614 H 165.542 2.77787 4.1429 0
M  V30 1615 H 164.696 1.25084 5.93666 0
M  V30 1616 H 163.435 0.625749 4.83669 0
M  V30 1617 H 162.44 2.92354 4.65628 0
M  V30 1618 H 163.665 3.54761 5.7907 0
M  V30 1619 H 161.611 1.39098 6.41083 0
M  V30 1620 H 161.528 3.04577 6.91931 0
M  V30 1621 H 162.796 2.02398 7.52765 0
M  V30 1622 N 167.025 -1.13721 1.09112 0
M  V30 1623 C 168.271 -1.85198 0.826414 0
M  V30 1624 C 168.604 -1.83129 -0.646319 0
M  V30 1625 O 167.879 -1.2671 -1.47563 0
M  V30 1626 C 168.162 -3.33507 1.35812 0
M  V30 1627 C 168.015 -3.44108 2.89672 0
M  V30 1628 C 169.334 -4.28838 0.989256 0
M  V30 1629 H 166.453 -0.67243 0.301675 0
M  V30 1630 H 169.095 -1.33499 1.35197 0
M  V30 1631 H 167.245 -3.77666 0.911082 0
M  V30 1632 H 168.917 -3.08684 3.428 0
M  V30 1633 H 167.16 -2.85087 3.26967 0
M  V30 1634 H 167.831 -4.48388 3.21951 0
M  V30 1635 H 170.307 -3.92734 1.37475 0
M  V30 1636 H 169.183 -5.31051 1.38838 0
M  V30 1637 H 169.444 -4.4198 -0.102924 0
M  V30 1638 N 168.503 -0.877838 -1.30888 0
M  V30 1639 C 169.728 -0.506629 -2.01117 0
M  V30 1640 C 170.153 0.895564 -1.65412 0
M  V30 1641 O 169.511 1.5923 -0.866922 0
M  V30 1642 C 169.559 -0.680223 -3.54126 0
M  V30 1643 O 168.663 0.277033 -4.11468 0
M  V30 1644 H 168.004 -0.200518 -0.633 0
M  V30 1645 H 170.534 -1.18342 -1.66902 0
M  V30 1646 H 170.544 -0.5765 -4.03907 0
M  V30 1647 H 169.219 -1.70261 -3.79452 0
M  V30 1648 H 167.796 0.127606 -3.72682 0
M  V30 1649 N 169.982 1.44106 -0.638065 0
M  V30 1650 C 171.21 2.06336 -0.152615 0
M  V30 1651 C 171.625 1.47731 1.17563 0
M  V30 1652 O 170.982 0.602806 1.72257 0
M  V30 1653 C 171.033 3.61479 -0.0391491 0
M  V30 1654 O 170.754 4.17903 -1.31487 0
M  V30 1655 C 172.255 4.40757 0.474176 0
M  V30 1656 H 169.475 0.665862 -0.0828776 0
M  V30 1657 H 172.019 1.84862 -0.87443 0
M  V30 1658 H 170.174 3.82191 0.633142 0
M  V30 1659 H 170.588 5.11416 -1.16421 0
M  V30 1660 H 172.062 5.49707 0.502562 0
M  V30 1661 H 172.539 4.12697 1.50258 0
M  V30 1662 H 173.145 4.24979 -0.165102 0
M  V30 1663 N 171.46 0.379036 1.52974 0
M  V30 1664 C 172.39 -0.452706 2.29069 0
M  V30 1665 C 173.371 -1.07237 1.32039 0
M  V30 1666 O 174.556 -1.08708 1.60923 0
M  V30 1667 C 171.686 -1.5856 3.08992 0
M  V30 1668 C 170.64 -1.0925 4.13822 0
M  V30 1669 C 169.966 -2.31668 4.81907 0
M  V30 1670 C 171.266 -0.167702 5.22031 0
M  V30 1671 H 172.96 0.182181 2.98845 0
M  V30 1672 H 170.506 0.0890592 1.43724 0
M  V30 1673 H 172.459 -2.1742 3.6098 0
M  V30 1674 H 171.183 -2.24792 2.36931 0
M  V30 1675 H 169.842 -0.526494 3.628 0
M  V30 1676 H 169.49 -2.96386 4.06404 0
M  V30 1677 H 169.19 -1.9934 5.52754 0
M  V30 1678 H 170.714 -2.91189 5.36695 0
M  V30 1679 H 172.128 -0.664186 5.6944 0
M  V30 1680 H 170.525 0.0653265 6.00064 0
M  V30 1681 H 171.595 0.786347 4.78482 0
M  V30 1682 N 172.938 -1.57226 0.108567 0
M  V30 1683 C 173.885 -2.14756 -0.845481 0
M  V30 1684 C 174.855 -1.06971 -1.27068 0
M  V30 1685 O 176.04 -1.34827 -1.35005 0
M  V30 1686 C 173.18 -2.74298 -2.09415 0
M  V30 1687 C 172.293 -3.96358 -1.71826 0
M  V30 1688 C 171.428 -4.44021 -2.9158 0
M  V30 1689 C 170.467 -5.58637 -2.50181 0
M  V30 1690 N 169.604 -6.01091 -3.62814 0
M  V30 1691 H 174.444 -2.95961 -0.348035 0
M  V30 1692 H 171.981 -1.46226 -0.160106 0
M  V30 1693 H 173.939 -3.06945 -2.82561 0
M  V30 1694 H 172.569 -1.95801 -2.56636 0
M  V30 1695 H 171.621 -3.69939 -0.885947 0
M  V30 1696 H 172.933 -4.79504 -1.37394 0
M  V30 1697 H 172.087 -4.78522 -3.72963 0
M  V30 1698 H 170.826 -3.59803 -3.29231 0
M  V30 1699 H 169.831 -5.23751 -1.67228 0
M  V30 1700 H 171.056 -6.44613 -2.13659 0
M  V30 1701 H 169.002 -5.19817 -4.00158 0
M  V30 1702 H 168.919 -6.79066 -3.32273 0
M  V30 1703 H 170.187 -6.40227 -4.44668 0
M  V30 1704 N 174.416 0.165178 -1.56732 0
M  V30 1705 C 175.693 0.908443 -1.73224 0
M  V30 1706 C 176.073 2.0013 -0.67165 0
M  V30 1707 O 175.421 2.26353 0.31253 0
M  V30 1708 C 175.631 1.46756 -3.16644 0
M  V30 1709 C 176.979 1.93809 -3.77787 0
M  V30 1710 O 178.003 1.56537 -3.1996 0
M  V30 1711 O 176.862 2.62486 -4.79336 0
M  V30 1712 H 173.956 0.428025 -0.707618 0
M  V30 1713 H 176.502 0.152526 -1.69013 0
M  V30 1714 H 175.274 0.68129 -3.85323 0
M  V30 1715 H 174.897 2.28749 -3.25207 0
M  V30 1716 N 175.894 1.51508 0.433938 0
M  V30 1717 C 177.143 1.63578 1.18005 0
M  V30 1718 C 177.456 0.359514 1.92268 0
M  V30 1719 O 178.662 0.359632 2.69108 0
M  V30 1720 C 177.118 2.88901 2.14626 0
M  V30 1721 C 176.726 4.23544 1.45995 0
M  V30 1722 C 178.47 3.10328 2.89649 0
M  V30 1723 C 176.377 5.40014 2.4112 0
M  V30 1724 H 175.307 0.609277 0.444182 0
M  V30 1725 H 177.958 1.77978 0.446773 0
M  V30 1726 H 176.34 2.68142 2.91403 0
M  V30 1727 H 177.514 4.54696 0.747532 0
M  V30 1728 H 175.829 4.08021 0.831115 0
M  V30 1729 H 178.426 3.94518 3.60915 0
M  V30 1730 H 178.769 2.23544 3.51189 0
M  V30 1731 H 179.302 3.31443 2.19978 0
M  V30 1732 H 176.041 6.29068 1.84264 0
M  V30 1733 H 175.561 5.13233 3.10406 0
M  V30 1734 H 177.24 5.72099 3.02177 0
M  V30 1735 N 177.372 -0.689602 1.41712 0
M  V30 1736 C 178.621 -1.44534 1.40686 0
M  V30 1737 C 178.934 -1.95588 0.0213352 0
M  V30 1738 O 180.14 -2.71271 -0.111534 0
M  V30 1739 C 178.596 -2.61387 2.47396 0
M  V30 1740 C 178.204 -2.17094 3.91885 0
M  V30 1741 C 179.948 -3.38986 2.55517 0
M  V30 1742 C 177.855 -3.3094 4.90135 0
M  V30 1743 H 176.785 -0.542925 0.52321 0
M  V30 1744 H 179.436 -0.748054 1.6756 0
M  V30 1745 H 177.818 -3.33412 2.13664 0
M  V30 1746 H 178.992 -1.52318 4.34897 0
M  V30 1747 H 177.307 -1.52473 3.8748 0
M  V30 1748 H 179.904 -4.23747 3.26102 0
M  V30 1749 H 180.247 -3.84578 1.59391 0
M  V30 1750 H 180.78 -2.74021 2.8837 0
M  V30 1751 H 177.519 -2.90355 5.87685 0
M  V30 1752 H 177.039 -3.94546 4.51767 0
M  V30 1753 H 178.718 -3.9663 5.11169 0
M  V30 1754 N 178.85 -1.27639 -0.924453 0
M  V30 1755 C 180.261 -1.12834 -1.48746 0
M  V30 1756 C 180.612 0.285505 -1.94112 0
M  V30 1757 O 179.737 1.17874 -1.81479 0
M  V30 1758 C 180.332 -2.04217 -2.70334 0
M  V30 1759 C 178.891 -1.93509 -3.22848 0
M  V30 1760 C 178.038 -1.96583 -1.95577 0
M  V30 1761 H 180.989 -1.40484 -0.738233 0
M  V30 1762 H 181.01 -1.59989 -3.4523 0
M  V30 1763 H 180.522 -3.07111 -2.37285 0
M  V30 1764 H 178.623 -0.936131 -3.60649 0
M  V30 1765 H 178.736 -2.79917 -3.88823 0
M  V30 1766 H 177.1 -1.4085 -2.12211 0
M  V30 1767 H 177.883 -3.01137 -1.64837 0
M  V30 1768 N 180.328 1.1314 -1.09713 0
M  V30 1769 C 181.278 2.16709 -0.708593 0
M  V30 1770 C 182.262 1.58471 0.278523 0
M  V30 1771 O 183.454 1.76779 0.088427 0
M  V30 1772 C 180.583 3.43039 -0.133923 0
M  V30 1773 C 179.669 4.08277 -1.14763 0
M  V30 1774 N 180.06 4.48637 -2.33577 0
M  V30 1775 C 178.358 4.34954 -0.986446 0
M  V30 1776 C 179.059 4.9952 -2.98085 0
M  V30 1777 N 178.035 4.94561 -2.25632 0
M  V30 1778 H 181.837 2.45672 -1.61315 0
M  V30 1779 H 179.351 1.29967 -0.973775 0
M  V30 1780 H 181.348 4.16583 0.162465 0
M  V30 1781 H 180.008 3.15549 0.765447 0
M  V30 1782 H 181.019 4.41246 -2.7115 0
M  V30 1783 H 177.696 4.17258 -0.142008 0
M  V30 1784 H 179.086 5.40521 -3.99108 0
M  V30 1785 N 181.806 0.884767 1.30421 0
M  V30 1786 C 183.217 0.553656 1.78302 0
M  V30 1787 C 183.568 -0.930153 1.7275 0
M  V30 1788 O 182.693 -1.72681 1.30423 0
M  V30 1789 C 183.288 0.998234 3.2376 0
M  V30 1790 C 181.847 0.71854 3.69478 0
M  V30 1791 C 180.994 1.18132 2.50879 0
M  V30 1792 H 183.945 1.06901 1.17294 0
M  V30 1793 H 183.966 0.327118 3.79091 0
M  V30 1794 H 183.478 2.0782 3.27769 0
M  V30 1795 H 181.579 -0.349444 3.70958 0
M  V30 1796 H 181.692 1.30595 4.60958 0
M  V30 1797 H 180.056 0.600669 2.47516 0
M  V30 1798 H 180.839 2.26902 2.57624 0
M  V30 1799 N 183.284 -1.43765 0.645699 0
M  V30 1800 C 184.509 -2.06767 0.161883 0
M  V30 1801 C 184.934 -1.48034 -1.16049 0
M  V30 1802 O 184.292 -0.587369 -1.71522 0
M  V30 1803 C 184.34 -3.60519 0.0762003 0
M  V30 1804 O 183.444 -4.00982 -0.963721 0
M  V30 1805 H 182.785 -0.657675 0.091429 0
M  V30 1806 H 185.315 -1.84397 0.886499 0
M  V30 1807 H 185.325 -4.07853 -0.109604 0
M  V30 1808 H 184 -4.02646 1.04157 0
M  V30 1809 H 182.577 -3.65253 -0.751312 0
M  V30 1810 N 184.763 -0.387143 -1.52771 0
M  V30 1811 C 185.993 0.195585 -2.05672 0
M  V30 1812 C 186.401 1.41241 -1.25887 0
M  V30 1813 O 185.744 1.81265 -0.298081 0
M  V30 1814 C 185.806 0.632327 -3.53895 0
M  V30 1815 C 185.47 -0.470739 -4.54569 0
M  V30 1816 C 186.467 -1.32746 -5.02667 0
M  V30 1817 C 184.152 -0.637151 -4.98243 0
M  V30 1818 C 186.146 -2.33574 -5.93061 0
M  V30 1819 C 183.833 -1.64877 -5.88438 0
M  V30 1820 C 184.831 -2.49649 -6.35739 0
M  V30 1821 O 184.519 -3.49082 -7.24153 0
M  V30 1822 H 184.251 0.033658 -0.675162 0
M  V30 1823 H 186.805 -0.550221 -1.97893 0
M  V30 1824 H 185.035 1.43008 -3.59285 0
M  V30 1825 H 186.724 1.14048 -3.89548 0
M  V30 1826 H 187.49 -1.21019 -4.69659 0
M  V30 1827 H 183.369 0.0129567 -4.60998 0
M  V30 1828 H 186.913 -2.99777 -6.29904 0
M  V30 1829 H 182.81 -1.76643 -6.2086 0
M  V30 1830 H 183.578 -3.45065 -7.42208 0
M  V30 1831 N 186.241 1.57166 -0.116904 0
M  V30 1832 C 187.171 2.18222 0.830759 0
M  V30 1833 C 188.152 1.12167 1.27877 0
M  V30 1834 O 189.337 1.40394 1.34176 0
M  V30 1835 C 186.467 2.77996 2.08172 0
M  V30 1836 C 185.421 3.89614 1.77157 0
M  V30 1837 C 184.747 4.36187 3.09265 0
M  V30 1838 C 186.047 5.1181 1.04151 0
M  V30 1839 H 187.741 2.97664 0.321992 0
M  V30 1840 H 185.287 1.4318 0.153434 0
M  V30 1841 H 187.24 3.19366 2.74924 0
M  V30 1842 H 185.964 1.9584 2.6137 0
M  V30 1843 H 184.623 3.48816 1.12796 0
M  V30 1844 H 184.271 3.50893 3.60393 0
M  V30 1845 H 183.971 5.11455 2.89288 0
M  V30 1846 H 185.495 4.80207 3.77139 0
M  V30 1847 H 186.909 5.50214 1.61052 0
M  V30 1848 H 185.306 5.92648 0.942762 0
M  V30 1849 H 186.376 4.84892 0.0279022 0
M  V30 1850 N 187.719 -0.156864 1.56817 0
M  V30 1851 C 188.651 -1.21883 1.94106 0
M  V30 1852 C 189.664 -1.3971 0.835754 0
M  V30 1853 O 190.853 -1.39457 1.11418 0
M  V30 1854 C 187.953 -2.58527 2.19127 0
M  V30 1855 C 187.126 -2.61809 3.50393 0
M  V30 1856 C 186.185 -3.7992 3.64071 0
M  V30 1857 O 185.211 -3.65249 4.36557 0
M  V30 1858 N 186.413 -4.96973 2.99997 0
M  V30 1859 H 189.178 -0.901974 2.85805 0
M  V30 1860 H 186.739 -0.346513 1.58148 0
M  V30 1861 H 188.731 -3.36034 2.25529 0
M  V30 1862 H 187.301 -2.82545 1.33742 0
M  V30 1863 H 186.521 -1.7029 3.5552 0
M  V30 1864 H 187.809 -2.61024 4.36742 0
M  V30 1865 H 187.207 -5.11794 2.41004 0
M  V30 1866 H 185.764 -5.7229 3.11974 0
M  V30 1867 N 189.197 -1.51736 -0.425897 0
M  V30 1868 C 190.107 -1.76738 -1.54275 0
M  V30 1869 C 191.123 -0.65211 -1.61318 0
M  V30 1870 O 192.299 -0.935654 -1.78346 0
M  V30 1871 C 189.364 -1.89755 -2.90162 0
M  V30 1872 C 188.425 -3.13633 -2.93143 0
M  V30 1873 C 187.658 -3.2602 -4.22548 0
M  V30 1874 O 187.881 -2.44067 -5.15546 0
M  V30 1875 O 186.815 -4.19071 -4.32046 0
M  V30 1876 H 190.641 -2.71502 -1.36089 0
M  V30 1877 H 188.226 -1.36376 -0.610069 0
M  V30 1878 H 190.108 -2.00236 -3.70788 0
M  V30 1879 H 188.783 -0.981785 -3.08452 0
M  V30 1880 H 187.69 -3.08622 -2.11431 0
M  V30 1881 H 189.023 -4.04936 -2.798 0
M  V30 1882 N 190.675 0.682077 -1.42076 0
M  V30 1883 C 191.923 1.4393 -1.41876 0
M  V30 1884 C 192.244 1.94971 -0.0335599 0
M  V30 1885 O 191.514 1.72591 0.926773 0
M  V30 1886 H 190.094 0.534085 -0.522267 0
M  V30 1887 H 192.756 0.806427 -1.77434 0
M  V30 1888 H 191.852 2.29588 -2.11414 0
M  V30 1889 N 192.153 1.28127 0.917671 0
M  V30 1890 C 193.378 1.18007 1.70555 0
M  V30 1891 C 193.803 -0.258257 1.86319 0
M  V30 1892 O 193.161 -1.1869 1.37049 0
M  V30 1893 C 193.209 1.87948 3.07746 0
M  V30 1894 O 192.313 1.18427 3.9503 0
M  V30 1895 H 191.654 0.409867 0.522403 0
M  V30 1896 H 194.184 1.69379 1.1477 0
M  V30 1897 H 194.194 1.95701 3.58001 0
M  V30 1898 H 192.869 2.92573 2.95591 0
M  V30 1899 H 191.446 1.18811 3.53466 0
M  V30 1900 N 193.631 -1.12557 1.10312 0
M  V30 1901 C 194.563 -2.17971 0.708625 0
M  V30 1902 C 195.576 -1.60806 -0.254027 0
M  V30 1903 O 196.765 -1.78458 -0.0386891 0
M  V30 1904 C 193.865 -3.38891 0.0248198 0
M  V30 1905 C 193.038 -4.25548 1.01132 0
M  V30 1906 C 192.097 -5.24972 0.35924 0
M  V30 1907 O 191.123 -5.60174 1.00965 0
M  V30 1908 N 192.325 -5.73747 -0.882847 0
M  V30 1909 H 195.09 -2.52427 1.61557 0
M  V30 1910 H 192.651 -1.27967 0.991771 0
M  V30 1911 H 194.643 -4.02485 -0.422852 0
M  V30 1912 H 193.213 -3.02596 -0.784514 0
M  V30 1913 H 192.433 -3.58589 1.6373 0
M  V30 1914 H 193.721 -4.80294 1.67914 0
M  V30 1915 H 193.119 -5.4731 -1.43065 0
M  V30 1916 H 191.676 -6.39234 -1.27369 0
M  V30 1917 N 195.109 -0.891671 -1.2995 0
M  V30 1918 C 196.357 -0.512486 -1.95494 0
M  V30 1919 C 196.678 0.942776 -1.70695 0
M  V30 1920 O 195.948 1.66374 -1.03424 0
M  V30 1921 H 194.528 -0.186533 -0.723336 0
M  V30 1922 H 197.19 -1.13621 -1.58355 0
M  V30 1923 H 196.286 -0.688342 -3.04415 0
M  V30 1924 N 196.587 1.43421 -0.653314 0
M  V30 1925 C 197.864 1.95361 -0.0966581 0
M  V30 1926 C 198.244 1.59461 1.38331 0
M  V30 1927 O 197.592 0.879777 2.10884 0
M  V30 1928 C 197.802 3.47311 -0.342988 0
M  V30 1929 C 199.15 4.23875 -0.24798 0
M  V30 1930 O 200.174 3.55133 -0.275553 0
M  V30 1931 O 199.033 5.4623 -0.171771 0
M  V30 1932 H 196.127 0.826945 0.00956291 0
M  V30 1933 H 198.673 1.5336 -0.726558 0
M  V30 1934 H 197.445 3.66569 -1.36906 0
M  V30 1935 H 197.068 3.9631 0.319975 0
M  V30 1936 N 198.065 0.39524 1.52563 0
M  V30 1937 C 199.314 -0.186321 2.00838 0
M  V30 1938 C 199.627 -1.47402 1.28577 0
M  V30 1939 O 200.833 -2.13599 1.67593 0
M  V30 1940 C 199.289 -0.382595 3.57861 0
M  V30 1941 C 198.897 0.892202 4.39026 0
M  V30 1942 C 200.641 -0.9202 4.14406 0
M  V30 1943 C 198.548 0.66388 5.87662 0
M  V30 1944 H 197.478 -0.0734041 0.750418 0
M  V30 1945 H 200.129 0.518552 1.76021 0
M  V30 1946 H 198.511 -1.14946 3.7895 0
M  V30 1947 H 199.685 1.66414 4.29701 0
M  V30 1948 H 198 1.35519 3.9373 0
M  V30 1949 H 200.597 -1.10683 5.23119 0
M  V30 1950 H 200.94 -1.89096 3.70875 0
M  V30 1951 H 201.473 -0.212751 3.97231 0
M  V30 1952 H 198.212 1.6058 6.35527 0
M  V30 1953 H 197.732 -0.0690193 5.9976 0
M  V30 1954 H 199.411 0.300699 6.46301 0
M  V30 1955 N 199.544 -1.57102 0.125237 0
M  V30 1956 C 200.507 -2.14471 -0.80838 0
M  V30 1957 C 201.507 -1.0811 -1.19033 0
M  V30 1958 O 202.697 -1.33856 -1.11482 0
M  V30 1959 C 199.829 -2.69005 -2.09402 0
M  V30 1960 H 201.022 -2.98297 -0.309696 0
M  V30 1961 H 198.575 -1.55807 -0.124051 0
M  V30 1962 H 199.31 -1.88785 -2.63687 0
M  V30 1963 H 199.095 -3.46799 -1.82957 0
M  V30 1964 H 200.585 -3.13278 -2.76128 0
M  V30 1965 N 201.022 0.148545 -1.56898 0
M  V30 1966 C 201.952 1.18524 -2.01182 0
M  V30 1967 C 202.933 1.4489 -0.891123 0
M  V30 1968 O 204.118 1.55836 -1.15882 0
M  V30 1969 C 201.248 2.51879 -2.39112 0
M  V30 1970 C 200.202 2.40038 -3.54353 0
M  V30 1971 C 199.528 3.78089 -3.78091 0
M  V30 1972 C 200.828 1.88577 -4.87069 0
M  V30 1973 H 202.522 0.817029 -2.88036 0
M  V30 1974 H 200.068 0.391575 -1.38574 0
M  V30 1975 H 202.021 3.24627 -2.68692 0
M  V30 1976 H 200.745 2.90532 -1.49193 0
M  V30 1977 H 199.404 1.69742 -3.24936 0
M  V30 1978 H 199.052 4.14175 -2.85426 0
M  V30 1979 H 198.752 3.71028 -4.55645 0
M  V30 1980 H 200.276 4.52387 -4.10095 0
M  V30 1981 H 201.69 2.51117 -5.15377 0
M  V30 1982 H 200.087 1.9241 -5.68417 0
M  V30 1983 H 201.157 0.84136 -4.77545 0
M  V30 1984 N 202.5 1.5196 0.417844 0
M  V30 1985 C 203.43 1.77634 1.51554 0
M  V30 1986 C 204.411 0.626918 1.58126 0
M  V30 1987 O 205.596 0.871632 1.7354 0
M  V30 1988 C 202.726 1.91911 2.8946 0
M  V30 1989 C 201.68 3.07463 2.97743 0
M  V30 1990 C 201.006 3.06951 4.37819 0
M  V30 1991 C 202.306 4.47082 2.70027 0
M  V30 1992 H 204 2.6955 1.3032 0
M  V30 1993 H 201.546 1.29706 0.625492 0
M  V30 1994 H 203.499 2.08455 3.6623 0
M  V30 1995 H 202.223 0.966598 3.11969 0
M  V30 1996 H 200.882 2.90656 2.23416 0
M  V30 1997 H 200.53 2.09438 4.57323 0
M  V30 1998 H 200.23 3.84556 4.44286 0
M  V30 1999 H 201.754 3.25613 5.16535 0
M  V30 2000 H 203.168 4.6414 3.36522 0
M  V30 2001 H 201.565 5.2654 2.87881 0
M  V30 2002 H 202.635 4.55777 1.65514 0
M  V30 2003 N 203.978 -0.674533 1.42435 0
M  V30 2004 C 204.91 -1.80005 1.41883 0
M  V30 2005 C 205.923 -1.59667 0.31787 0
M  V30 2006 O 207.112 -1.68781 0.580973 0
M  V30 2007 C 204.212 -3.17114 1.19549 0
M  V30 2008 C 203.385 -3.64299 2.42084 0
M  V30 2009 C 202.444 -4.80142 2.15291 0
M  V30 2010 O 201.47 -4.90673 2.88493 0
M  V30 2011 N 202.672 -5.68869 1.1562 0
M  V30 2012 H 205.437 -1.80964 2.38898 0
M  V30 2013 H 202.998 -0.857633 1.37318 0
M  V30 2014 H 204.99 -3.92267 0.995417 0
M  V30 2015 H 203.56 -3.11053 0.310569 0
M  V30 2016 H 202.78 -2.79822 2.77657 0
M  V30 2017 H 204.068 -3.92567 3.23679 0
M  V30 2018 H 203.466 -5.63012 0.550765 0
M  V30 2019 H 202.023 -6.43833 1.016 0
M  V30 2020 N 205.456 -1.28612 -0.910864 0
M  V30 2021 C 206.386 -1.15326 -2.03032 0
M  V30 2022 C 207.367 -0.0502924 -1.70026 0
M  V30 2023 O 208.552 -0.227797 -1.92859 0
M  V30 2024 C 205.682 -0.817343 -3.37545 0
M  V30 2025 C 204.636 -1.8754 -3.84724 0
M  V30 2026 C 203.962 -1.39305 -5.16235 0
M  V30 2027 C 205.262 -3.28244 -4.06267 0
M  V30 2028 H 206.956 -2.08975 -2.14406 0
M  V30 2029 H 204.502 -1.00612 -1.03021 0
M  V30 2030 H 206.455 -0.711151 -4.15356 0
M  V30 2031 H 205.179 0.154846 -3.26233 0
M  V30 2032 H 203.838 -1.97079 -3.09121 0
M  V30 2033 H 203.486 -0.409846 -5.01328 0
M  V30 2034 H 203.186 -2.10057 -5.48771 0
M  V30 2035 H 204.71 -1.30014 -5.96598 0
M  V30 2036 H 206.124 -3.21611 -4.74594 0
M  V30 2037 H 204.521 -3.96855 -4.5014 0
M  V30 2038 H 205.591 -3.72048 -3.10979 0
M  V30 2039 N 206.934 1.1197 -1.10907 0
M  V30 2040 C 208.159 1.87942 -0.877064 0
M  V30 2041 C 208.584 1.79341 0.567314 0
M  V30 2042 O 207.942 1.15184 1.40009 0
M  V30 2043 C 207.99 3.34926 -1.33629 0
M  V30 2044 O 207.094 4.09303 -0.504447 0
M  V30 2045 H 206.435 0.583785 -0.316371 0
M  V30 2046 H 208.965 1.4157 -1.47712 0
M  V30 2047 H 208.975 3.8577 -1.32837 0
M  V30 2048 H 207.65 3.40504 -2.3881 0
M  V30 2049 H 206.227 3.68393 -0.577993 0
M  V30 2050 N 208.412 0.89855 1.29475 0
M  V30 2051 C 209.828 0.594483 1.48115 0
M  V30 2052 C 210.028 -0.86431 1.82022 0
M  V30 2053 O 209.084 -1.64457 1.91599 0
M  V30 2054 C 210.397 1.51932 2.59494 0
M  V30 2055 C 211.945 1.5244 2.7337 0
M  V30 2056 C 212.42 2.43548 3.87877 0
M  V30 2057 N 213.911 2.41589 3.95208 0
M  V30 2058 C 214.646 3.08789 4.83153 0
M  V30 2059 N 214.142 3.85265 5.75798 0
M  V30 2060 N 215.935 2.97952 4.76635 0
M  V30 2061 H 208.086 1.84207 1.05742 0
M  V30 2062 H 210.349 0.789251 0.525154 0
M  V30 2063 H 210.055 2.55865 2.41301 0
M  V30 2064 H 209.929 1.23899 3.56271 0
M  V30 2065 H 212.316 0.492518 2.90961 0
M  V30 2066 H 212.397 1.8451 1.77172 0
M  V30 2067 H 212.041 3.46829 3.71041 0
M  V30 2068 H 211.971 2.08788 4.83441 0
M  V30 2069 H 214.462 1.86025 3.28943 0
M  V30 2070 H 214.775 4.33598 6.39697 0
M  V30 2071 H 213.12 3.89371 5.75687 0
M  V30 2072 H 216.311 2.37723 4.03244 0
M  V30 2073 H 216.484 3.50599 5.44962 0
M  V30 2074 N 209.89 -1.43072 0.660911 0
M  V30 2075 C 211.301 -1.84932 0.256348 0
M  V30 2076 C 211.652 -1.55325 -1.19868 0
M  V30 2077 O 210.777 -1.00607 -1.91591 0
M  V30 2078 C 211.372 -3.35684 0.458475 0
M  V30 2079 C 209.931 -3.76245 0.108161 0
M  V30 2080 C 209.078 -2.66749 0.757641 0
M  V30 2081 H 212.029 -1.33116 0.864051 0
M  V30 2082 H 212.05 -3.79365 -0.293683 0
M  V30 2083 H 211.562 -3.572 1.51755 0
M  V30 2084 H 209.663 -3.60338 -0.948014 0
M  V30 2085 H 209.776 -4.76058 0.538992 0
M  V30 2086 H 208.14 -2.53989 0.190185 0
M  V30 2087 H 208.923 -2.91092 1.81989 0
M  V30 2088 N 211.368 -0.403325 -1.52352 0
M  V30 2089 C 212.617 0.175668 -2.00934 0
M  V30 2090 C 212.93 1.46718 -1.29356 0
M  V30 2091 O 214.136 2.12708 -1.68724 0
M  V30 2092 C 212.592 0.363612 -3.58058 0
M  V30 2093 C 212.2 -0.915472 -4.38547 0
M  V30 2094 C 213.944 0.89821 -4.14888 0
M  V30 2095 C 211.851 -0.695035 -5.87302 0
M  V30 2096 H 210.781 0.0694234 -0.750797 0
M  V30 2097 H 213.432 -0.527879 -1.75743 0
M  V30 2098 H 211.814 1.12935 -3.79555 0
M  V30 2099 H 212.988 -1.68691 -4.28812 0
M  V30 2100 H 211.303 -1.37606 -3.93006 0
M  V30 2101 H 213.9 1.07907 -5.23699 0
M  V30 2102 H 214.243 1.87126 -3.71873 0
M  V30 2103 H 214.776 0.191681 -3.97338 0
M  V30 2104 H 211.515 -1.63948 -6.34666 0
M  V30 2105 H 211.035 0.0372116 -5.99788 0
M  V30 2106 H 212.714 -0.33497 -6.46132 0
M  V30 2107 N 212.846 1.57033 -0.133567 0
M  V30 2108 C 214.074 2.00044 0.528195 0
M  V30 2109 C 214.489 1.01349 1.59291 0
M  V30 2110 O 213.846 0.00848369 1.82498 0
M  V30 2111 C 213.897 3.43018 1.1411 0
M  V30 2112 O 213.618 4.37939 0.11892 0
M  V30 2113 C 215.119 4.01237 1.88477 0
M  V30 2114 H 212.339 0.656517 0.138661 0
M  V30 2115 H 214.883 2.03267 -0.224196 0
M  V30 2116 H 213.038 3.40688 1.84418 0
M  V30 2117 H 213.452 5.21436 0.56613 0
M  V30 2118 H 214.926 5.03314 2.26669 0
M  V30 2119 H 215.403 3.41193 2.76558 0
M  V30 2120 H 216.009 4.07156 1.22898 0
M  V30 2121 N 214.325 -0.140222 1.56975 0
M  V30 2122 C 215.572 -0.851687 1.83719 0
M  V30 2123 C 215.9 -1.80862 0.715485 0
M  V30 2124 O 215.155 -1.93464 -0.294956 0
M  V30 2125 C 215.454 -1.65386 3.16832 0
M  V30 2126 C 215.12 -0.843112 4.42947 0
M  V30 2127 C 213.782 -0.619464 4.77196 0
M  V30 2128 C 216.134 -0.276582 5.20466 0
M  V30 2129 C 213.462 0.181312 5.8642 0
M  V30 2130 C 215.814 0.51127 6.30531 0
M  V30 2131 C 214.478 0.745432 6.63325 0
M  V30 2132 H 213.748 -0.311654 0.672274 0
M  V30 2133 H 216.395 -0.115006 1.91154 0
M  V30 2134 H 214.7 -2.46084 3.04877 0
M  V30 2135 H 216.397 -2.20793 3.34741 0
M  V30 2136 H 212.987 -1.0275 4.16101 0
M  V30 2137 H 217.171 -0.436632 4.94376 0
M  V30 2138 H 212.427 0.372165 6.10266 0
M  V30 2139 H 216.601 0.957354 6.89788 0
M  V30 2140 H 214.228 1.36778 7.47794 0
M  V30 2141 N 215.803 -1.52179 -0.40978 0
M  V30 2142 C 217.028 -1.70347 -1.18308 0
M  V30 2143 C 217.453 -0.411887 -1.83535 0
M  V30 2144 O 216.811 0.630587 -1.6998 0
M  V30 2145 C 216.859 -2.83977 -2.22238 0
M  V30 2146 O 215.963 -2.495 -3.28365 0
M  V30 2147 H 215.304 -0.567103 -0.345384 0
M  V30 2148 H 217.834 -1.98879 -0.480445 0
M  V30 2149 H 217.844 -3.0887 -2.66577 0
M  V30 2150 H 216.519 -3.77685 -1.74146 0
M  V30 2151 H 215.096 -2.35277 -2.89308 0
M  V30 2152 N 217.281 0.66697 -1.42791 0
M  V30 2153 C 218.697 0.981027 -1.25889 0
M  V30 2154 C 218.897 2.00793 -0.168695 0
M  V30 2155 O 217.953 2.48321 0.45747 0
M  V30 2156 C 219.266 1.47838 -2.61848 0
M  V30 2157 C 220.814 1.59575 -2.69267 0
M  V30 2158 C 221.289 2.12704 -4.05612 0
M  V30 2159 N 222.78 2.20026 -4.07606 0
M  V30 2160 C 223.515 2.62227 -5.09926 0
M  V30 2161 N 223.011 3.03824 -6.22626 0
M  V30 2162 N 224.804 2.62045 -4.97281 0
M  V30 2163 H 216.955 -0.0127891 -2.12396 0
M  V30 2164 H 219.218 0.0568258 -0.946295 0
M  V30 2165 H 218.924 0.798299 -3.4252 0
M  V30 2166 H 218.798 2.45579 -2.86305 0
M  V30 2167 H 221.185 2.26687 -1.88936 0
M  V30 2168 H 221.266 0.60302 -2.48591 0
M  V30 2169 H 220.91 1.46198 -4.86404 0
M  V30 2170 H 220.84 3.12782 -4.23645 0
M  V30 2171 H 223.331 1.90708 -3.2625 0
M  V30 2172 H 223.644 3.34734 -6.96544 0
M  V30 2173 H 221.989 3.01662 -6.26119 0
M  V30 2174 H 225.18 2.28916 -4.08308 0
M  V30 2175 H 225.353 2.94613 -5.77154 0
M  V30 2176 N 218.759 1.29093 0.90403 0
M  V30 2177 C 219.989 1.19516 1.68522 0
M  V30 2178 C 220.397 -0.24738 1.87576 0
M  V30 2179 O 219.74 -1.17798 1.40959 0
M  V30 2180 C 219.802 1.83249 3.0929 0
M  V30 2181 C 219.466 3.32531 3.13484 0
M  V30 2182 C 220.463 4.28821 2.93953 0
M  V30 2183 C 218.148 3.73656 3.35688 0
M  V30 2184 C 220.142 5.64212 2.96553 0
M  V30 2185 C 217.829 5.0917 3.37919 0
M  V30 2186 C 218.827 6.04258 3.18373 0
M  V30 2187 O 218.515 7.37298 3.20385 0
M  V30 2188 H 218.247 0.415467 0.533257 0
M  V30 2189 H 220.801 1.70912 1.13922 0
M  V30 2190 H 219.031 1.26358 3.65473 0
M  V30 2191 H 220.72 1.68054 3.69476 0
M  V30 2192 H 221.486 3.98382 2.76616 0
M  V30 2193 H 217.365 3.00101 3.49943 0
M  V30 2194 H 220.909 6.38407 2.81216 0
M  V30 2195 H 216.806 5.39256 3.54787 0
M  V30 2196 H 217.574 7.46048 3.36681 0
M  V30 2197 N 220.237 -1.11381 1.11499 0
M  V30 2198 C 221.486 -1.82494 0.858993 0
M  V30 2199 C 221.799 -1.85605 -0.617278 0
M  V30 2200 O 223.005 -2.52824 -0.989552 0
M  V30 2201 C 221.461 -3.27745 1.48699 0
M  V30 2202 C 221.069 -3.32961 2.99735 0
M  V30 2203 C 222.813 -4.03754 1.31085 0
M  V30 2204 C 220.72 -4.72612 3.55516 0
M  V30 2205 H 219.65 -0.683802 0.317696 0
M  V30 2206 H 222.301 -1.25331 1.34031 0
M  V30 2207 H 220.683 -3.84844 0.933339 0
M  V30 2208 H 221.857 -2.85741 3.61509 0
M  V30 2209 H 220.172 -2.70433 3.16631 0
M  V30 2210 H 222.769 -5.06891 1.70192 0
M  V30 2211 H 223.112 -4.15527 0.253496 0
M  V30 2212 H 223.645 -3.53043 1.83318 0
M  V30 2213 H 220.384 -4.66036 4.60967 0
M  V30 2214 H 219.904 -5.2024 2.98513 0
M  V30 2215 H 221.583 -5.4157 3.53992 0
M  V30 2216 N 221.715 -0.905404 -1.28997 0
M  V30 2217 C 223.131 -0.60233 -1.47798 0
M  V30 2218 C 223.331 0.854645 -1.82478 0
M  V30 2219 O 222.387 1.63439 -1.92468 0
M  V30 2220 C 223.7 -1.53306 -2.58685 0
M  V30 2221 C 225.248 -1.53887 -2.72558 0
M  V30 2222 C 225.723 -2.45602 -3.86579 0
M  V30 2223 N 227.214 -2.43681 -3.93921 0
M  V30 2224 C 227.949 -3.11347 -4.81509 0
M  V30 2225 N 227.445 -3.88313 -5.73746 0
M  V30 2226 N 229.238 -3.00476 -4.75048 0
M  V30 2227 H 221.389 -1.84765 -1.04764 0
M  V30 2228 H 223.652 -0.792025 -0.520961 0
M  V30 2229 H 223.358 -2.57141 -2.39941 0
M  V30 2230 H 223.232 -1.25787 -3.55609 0
M  V30 2231 H 225.619 -0.507941 -2.90696 0
M  V30 2232 H 225.7 -1.85447 -1.76191 0
M  V30 2233 H 225.344 -3.48792 -3.69197 0
M  V30 2234 H 225.274 -2.11349 -4.82327 0
M  V30 2235 H 227.765 -1.87767 -3.27951 0
M  V30 2236 H 228.078 -4.36985 -6.37389 0
M  V30 2237 H 226.423 -3.92419 -5.73614 0
M  V30 2238 H 229.614 -2.39858 -4.01977 0
M  V30 2239 H 229.787 -3.53485 -5.43095 0
M  V30 2240 N 223.193 1.4272 -0.668489 0
M  V30 2241 C 224.604 1.84793 -0.266151 0
M  V30 2242 C 224.955 1.55959 1.19043 0
M  V30 2243 O 224.08 1.01622 1.91055 0
M  V30 2244 C 224.675 3.35436 -0.476271 0
M  V30 2245 C 223.234 3.76182 -0.128113 0
M  V30 2246 C 222.381 2.66344 -0.771777 0
M  V30 2247 H 225.332 1.32656 -0.871098 0
M  V30 2248 H 225.353 3.79515 0.273561 0
M  V30 2249 H 224.865 3.5639 -1.53647 0
M  V30 2250 H 222.966 3.60836 0.928891 0
M  V30 2251 H 223.079 4.75766 -0.564231 0
M  V30 2252 H 221.443 2.53885 -0.203652 0
M  V30 2253 H 222.226 2.90123 -1.83531 0
M  V30 2254 N 224.671 0.411399 1.52136 0
M  V30 2255 C 225.92 -0.165009 2.01024 0
M  V30 2256 C 226.233 -1.4603 1.30133 0
M  V30 2257 O 227.439 -2.1181 1.69849 0
M  V30 2258 C 225.895 -0.344618 3.58246 0
M  V30 2259 C 225.503 0.938716 4.38055 0
M  V30 2260 C 227.247 -0.876195 4.15359 0
M  V30 2261 C 225.154 0.726172 5.86925 0
M  V30 2262 H 224.084 -0.0654407 0.751155 0
M  V30 2263 H 226.735 0.537192 1.75461 0
M  V30 2264 H 225.117 -1.10921 3.80148 0
M  V30 2265 H 226.291 1.70963 4.27912 0
M  V30 2266 H 224.606 1.39688 3.92271 0
M  V30 2267 H 227.203 -1.05128 5.24263 0
M  V30 2268 H 227.546 -1.85152 3.7286 0
M  V30 2269 H 228.079 -0.170607 3.97434 0
M  V30 2270 H 224.818 1.67312 6.33788 0
M  V30 2271 H 224.338 -0.00540283 5.998 0
M  V30 2272 H 226.017 0.369231 6.45946 0
M  V30 2273 N 226.149 -1.5696 0.141893 0
M  V30 2274 C 227.389 -1.9785 -0.513304 0
M  V30 2275 C 227.753 -1.02467 -1.62371 0
M  V30 2276 O 228.954 -1.32382 -2.33941 0
M  V30 2277 C 227.225 -3.42797 -1.01118 0
M  V30 2278 S 228.784 -4.05709 -1.67169 0
M  V30 2279 H 225.602 -0.691318 -0.166135 0
M  V30 2280 H 228.204 -1.94114 0.232398 0
M  V30 2281 H 226.908 -4.0995 -0.192179 0
M  V30 2282 H 226.439 -3.50235 -1.79162 0
M  V30 2283 H 228.454 -3.98342 -2.95868 0
M  V30 2284 N 227.627 0.131896 -1.57047 0
M  V30 2285 C 228.557 1.16384 -2.02428 0
M  V30 2286 C 229.538 1.43936 -0.90644 0
M  V30 2287 O 230.723 1.54599 -1.17528 0
M  V30 2288 C 227.853 2.49328 -2.4177 0
M  V30 2289 C 226.807 2.36266 -3.56879 0
M  V30 2290 C 226.133 3.74057 -3.8208 0
M  V30 2291 C 227.433 1.834 -4.89042 0
M  V30 2292 H 229.127 0.786433 -2.88887 0
M  V30 2293 H 226.673 0.376855 -1.38981 0
M  V30 2294 H 228.626 3.21759 -2.7212 0
M  V30 2295 H 227.35 2.88934 -1.52266 0
M  V30 2296 H 226.009 1.66286 -3.26718 0
M  V30 2297 H 225.657 4.11125 -2.89803 0
M  V30 2298 H 225.357 3.66174 -4.59554 0
M  V30 2299 H 226.881 4.48012 -4.1487 0
M  V30 2300 H 228.295 2.45636 -5.18011 0
M  V30 2301 H 226.692 1.8637 -5.70426 0
M  V30 2302 H 227.762 0.790662 -4.7841 0
M  V30 2303 N 229.106 1.52395 0.401703 0
M  V30 2304 C 230.517 1.58899 0.980202 0
M  V30 2305 C 230.868 0.434032 1.91339 0
M  V30 2306 O 229.993 -0.444619 2.11783 0
M  V30 2307 C 230.588 2.87994 1.78451 0
M  V30 2308 C 229.147 2.96953 2.31292 0
M  V30 2309 C 228.294 2.53903 1.11483 0
M  V30 2310 H 231.245 1.57657 0.18168 0
M  V30 2311 H 231.266 2.73765 2.64259 0
M  V30 2312 H 230.778 3.72035 1.10506 0
M  V30 2313 H 228.879 2.17422 3.02586 0
M  V30 2314 H 228.992 4.01344 2.61649 0
M  V30 2315 H 227.356 2.07925 1.47104 0
M  V30 2316 H 228.139 3.40326 0.450928 0
M  V30 2317 N 230.584 -0.659388 1.43143 0
M  V30 2318 C 231.547 -1.75432 1.47501 0
M  V30 2319 C 232.547 -1.56707 0.360512 0
M  V30 2320 O 233.737 -1.62717 0.622002 0
M  V30 2321 C 230.869 -3.14239 1.32162 0
M  V30 2322 H 232.062 -1.7295 2.45006 0
M  V30 2323 H 229.615 -0.870469 1.29817 0
M  V30 2324 H 230.35 -3.22336 0.356401 0
M  V30 2325 H 230.135 -3.29235 2.12948 0
M  V30 2326 H 231.625 -3.94094 1.3813 0
M  V30 2327 N 232.062 -1.29571 -0.897171 0
M  V30 2328 C 233.025 -1.14913 -1.98312 0
M  V30 2329 C 234.025 -0.0838629 -1.60581 0
M  V30 2330 O 235.215 -0.331006 -1.71026 0
M  V30 2331 C 232.347 -0.757835 -3.3237 0
M  V30 2332 H 233.54 -2.11377 -2.12743 0
M  V30 2333 H 231.093 -1.12793 -1.08201 0
M  V30 2334 H 231.828 0.206837 -3.2364 0
M  V30 2335 H 231.613 -1.52755 -3.61121 0
M  V30 2336 H 233.103 -0.678408 -4.12053 0
M  V30 2337 N 233.54 1.10788 -1.12088 0
M  V30 2338 C 234.488 2.19111 -0.780587 0
M  V30 2339 C 235.482 1.67818 0.230961 0
M  V30 2340 O 236.688 1.79777 0.0895427 0
M  V30 2341 H 233.063 0.714477 -0.234578 0
M  V30 2342 H 235.034 2.45055 -1.70266 0
M  V30 2343 C 233.783 3.46818 -0.24747 0
M  V30 2344 H 233.106 3.86646 -1.01712 0
M  V30 2345 H 234.546 4.23973 -0.0476291 0
M  V30 2346 C 233.005 3.20968 1.02378 0
M  V30 2347 O 233.535 3.42298 2.10226 0
M  V30 2348 N 231.741 2.74658 0.949271 0
M  V30 2349 H 231.288 2.57501 0.0715173 0
M  V30 2350 H 231.246 2.57739 1.80049 0
M  V30 2351 N 235.018 0.912232 1.28515 0
M  V30 2352 C 235.981 0.404223 2.25607 0
M  V30 2353 C 236.981 -0.468602 1.53821 0
M  V30 2354 O 238.171 -0.271873 1.72065 0
M  V30 2355 C 235.303 -0.420653 3.38295 0
M  V30 2356 H 236.496 1.26188 2.7206 0
M  V30 2357 H 234.049 0.691495 1.40171 0
M  V30 2358 H 234.784 -1.29777 2.97201 0
M  V30 2359 H 234.569 0.204935 3.91564 0
M  V30 2360 H 236.059 -0.766971 4.10496 0
M  V30 2361 N 236.496 -1.42363 0.676048 0
M  V30 2362 C 237.721 -2.06377 0.205705 0
M  V30 2363 C 238.146 -1.50463 -1.12883 0
M  V30 2364 O 237.504 -0.623619 -1.70237 0
M  V30 2365 C 237.552 -3.60277 0.152655 0
M  V30 2366 O 236.656 -4.02935 -0.87845 0
M  V30 2367 H 235.997 -0.655588 0.105359 0
M  V30 2368 H 238.527 -1.82475 0.925412 0
M  V30 2369 H 238.537 -4.07993 -0.0230675 0
M  V30 2370 H 237.212 -4.00346 1.12675 0
M  V30 2371 H 235.789 -3.66764 -0.673668 0
M  V30 2372 N 237.974 -0.419461 -1.51915 0
M  V30 2373 C 239.221 0.152939 -2.01922 0
M  V30 2374 C 239.549 1.4426 -1.30458 0
M  V30 2375 O 238.804 1.91514 -0.402593 0
M  V30 2376 C 239.103 0.437067 -3.54717 0
M  V30 2377 C 238.769 -0.764632 -4.44369 0
M  V30 2378 C 237.431 -1.09423 -4.68594 0
M  V30 2379 C 239.783 -1.56713 -4.97082 0
M  V30 2380 C 237.111 -2.22732 -5.42777 0
M  V30 2381 C 239.463 -2.69107 -5.72507 0
M  V30 2382 C 238.127 -3.02541 -5.95 0
M  V30 2383 H 237.397 0.0559644 -0.738884 0
M  V30 2384 H 240.044 -0.562998 -1.83037 0
M  V30 2385 H 238.349 1.23469 -3.71837 0
M  V30 2386 H 240.046 0.893083 -3.90928 0
M  V30 2387 H 236.636 -0.497775 -4.257 0
M  V30 2388 H 240.82 -1.32571 -4.78266 0
M  V30 2389 H 236.076 -2.48971 -5.58411 0
M  V30 2390 H 240.25 -3.31671 -6.12346 0
M  V30 2391 H 237.877 -3.90457 -6.52264 0
M  V30 2392 N 239.452 1.56882 -0.150215 0
M  V30 2393 C 240.863 1.82995 0.370076 0
M  V30 2394 C 241.214 1.06907 1.64515 0
M  V30 2395 O 240.339 0.315369 2.1409 0
M  V30 2396 C 240.934 3.31942 0.678208 0
M  V30 2397 C 239.493 3.58625 1.14301 0
M  V30 2398 C 238.64 2.76792 0.167778 0
M  V30 2399 H 241.591 1.54209 -0.374858 0
M  V30 2400 H 241.612 3.48272 1.53254 0
M  V30 2401 H 241.124 3.87294 -0.249991 0
M  V30 2402 H 239.225 3.08664 2.08704 0
M  V30 2403 H 239.338 4.67073 1.06676 0
M  V30 2404 H 237.702 2.45972 0.661037 0
M  V30 2405 H 238.485 3.34916 -0.754069 0
M  V30 2406 N 240.93 -0.123565 1.57115 0
M  V30 2407 C 241.878 -1.17082 2.00984 0
M  V30 2408 C 242.872 -1.43136 0.906009 0
M  V30 2409 O 244.078 -1.43152 1.09121 0
M  V30 2410 H 240.453 -0.394653 0.64012 0
M  V30 2411 H 242.424 -0.774292 2.88179 0
M  V30 2412 C 241.173 -2.49057 2.42623 0
M  V30 2413 H 240.496 -2.29846 3.27125 0
M  V30 2414 H 241.936 -3.20906 2.7712 0
M  V30 2415 C 240.395 -3.11305 1.28805 0
M  V30 2416 O 240.925 -3.97171 0.60153 0
M  V30 2417 N 239.131 -2.71111 1.04628 0
M  V30 2418 H 238.678 -2.01382 1.60634 0
M  V30 2419 H 238.636 -3.1309 0.286685 0
M  V30 2420 N 242.408 -1.52605 -0.393616 0
M  V30 2421 C 243.656 -1.67093 -1.13685 0
M  V30 2422 C 243.977 -0.411011 -1.90619 0
M  V30 2423 O 243.247 0.574491 -1.87287 0
M  V30 2424 H 241.827 -0.615923 -0.422668 0
M  V30 2425 H 244.489 -1.89704 -0.447039 0
M  V30 2426 H 243.585 -2.51922 -1.84232 0
M  V30 2427 N 243.887 0.651787 -1.4349 0
M  V30 2428 C 244.817 1.77621 -1.51569 0
M  V30 2429 C 245.798 1.66022 -0.370253 0
M  V30 2430 O 246.983 1.85095 -0.587658 0
M  V30 2431 C 244.113 3.16056 -1.43966 0
M  V30 2432 C 243.067 3.4242 -2.56774 0
M  V30 2433 C 242.393 4.8067 -2.34223 0
M  V30 2434 C 243.693 3.37023 -3.99015 0
M  V30 2435 H 245.387 1.71117 -2.45681 0
M  V30 2436 H 242.933 0.821825 -1.18246 0
M  V30 2437 H 244.886 3.94472 -1.48221 0
M  V30 2438 H 243.61 3.23293 -0.463586 0
M  V30 2439 H 242.269 2.66375 -2.51873 0
M  V30 2440 H 241.917 4.84585 -1.34856 0
M  V30 2441 H 241.617 4.9927 -3.09844 0
M  V30 2442 H 243.141 5.61342 -2.40265 0
M  V30 2443 H 244.555 4.05374 -4.05395 0
M  V30 2444 H 242.952 3.67159 -4.74673 0
M  V30 2445 H 244.022 2.3518 -4.2405 0
M  V30 2446 N 245.365 1.30045 0.890287 0
M  V30 2447 C 246.315 1.12592 1.9826 0
M  V30 2448 C 247.299 0.0426021 1.60844 0
M  V30 2449 O 248.491 0.265346 1.75 0
M  V30 2450 C 245.62 0.814301 3.33503 0
M  V30 2451 C 244.706 1.93761 3.7725 0
M  V30 2452 N 245.097 3.18232 3.93143 0
M  V30 2453 C 243.395 1.83277 4.06602 0
M  V30 2454 C 244.096 3.9158 4.30163 0
M  V30 2455 N 243.072 3.19591 4.3973 0
M  V30 2456 H 246.874 2.07003 2.08631 0
M  V30 2457 H 244.388 1.21307 1.07974 0
M  V30 2458 H 246.385 0.67029 4.11476 0
M  V30 2459 H 245.045 -0.121797 3.24471 0
M  V30 2460 H 246.056 3.53581 3.78419 0
M  V30 2461 H 242.733 0.97001 4.06075 0
M  V30 2462 H 244.123 4.98744 4.50226 0
M  V30 2463 N 246.843 -1.10192 1.12674 0
M  V30 2464 C 248.083 -1.83825 0.893736 0
M  V30 2465 C 248.447 -1.83341 -0.570082 0
M  V30 2466 O 249.648 -2.52553 -0.920354 0
M  V30 2467 C 247.919 -3.26405 1.45582 0
M  V30 2468 S 249.478 -4.17136 1.36171 0
M  V30 2469 H 246.296 -0.633732 0.322342 0
M  V30 2470 H 248.898 -1.32581 1.43675 0
M  V30 2471 H 247.602 -3.24329 2.51473 0
M  V30 2472 H 247.133 -3.82721 0.910405 0
M  V30 2473 H 249.148 -4.95069 0.334863 0
M  V30 2474 N 248.321 -0.919034 -1.28029 0
M  V30 2475 C 249.549 -0.570971 -1.98866 0
M  V30 2476 C 249.964 0.848996 -1.68634 0
M  V30 2477 O 249.321 1.56307 -0.942036 0
M  V30 2478 C 249.372 -0.776876 -3.53054 0
M  V30 2479 O 249.093 -2.14097 -3.82222 0
M  V30 2480 C 250.594 -0.436356 -4.41147 0
M  V30 2481 H 247.814 -0.217175 -0.634883 0
M  V30 2482 H 250.358 -1.23368 -1.63097 0
M  V30 2483 H 248.513 -0.161085 -3.87065 0
M  V30 2484 H 248.927 -2.18455 -4.76841 0
M  V30 2485 H 250.401 -0.63117 -5.4838 0
M  V30 2486 H 250.878 0.627686 -4.34692 0
M  V30 2487 H 251.484 -1.02991 -4.12641 0
M  V30 2488 N 249.799 1.42003 -0.683588 0
M  V30 2489 C 251.045 2.01712 -0.209825 0
M  V30 2490 C 251.378 1.53968 1.18353 0
M  V30 2491 O 250.653 0.745661 1.79639 0
M  V30 2492 C 250.936 3.59202 -0.254197 0
M  V30 2493 C 250.789 4.17102 -1.68363 0
M  V30 2494 C 252.108 4.38344 0.392709 0
M  V30 2495 H 249.227 0.732891 -0.0777189 0
M  V30 2496 H 251.869 1.68909 -0.87004 0
M  V30 2497 H 250.019 3.87278 0.307954 0
M  V30 2498 H 251.691 3.99946 -2.29871 0
M  V30 2499 H 249.934 3.72597 -2.22157 0
M  V30 2500 H 250.605 5.26249 -1.6663 0
M  V30 2501 H 253.081 4.16011 -0.0859162 0
M  V30 2502 H 251.957 5.47901 0.331063 0
M  V30 2503 H 252.218 4.16887 1.47164 0
M  V30 2504 N 251.277 0.427512 1.51691 0
M  V30 2505 C 252.505 -0.141191 2.06418 0
M  V30 2506 C 252.92 -1.37303 1.29589 0
M  V30 2507 O 252.277 -1.79059 0.352732 0
M  V30 2508 C 252.328 -0.473266 3.58389 0
M  V30 2509 O 252.049 0.709673 4.32314 0
M  V30 2510 C 253.55 -1.09371 4.29596 0
M  V30 2511 H 250.77 -0.0122747 0.670888 0
M  V30 2512 H 253.314 0.603764 1.95384 0
M  V30 2513 H 251.469 -1.16812 3.69369 0
M  V30 2514 H 251.883 0.42807 5.2275 0
M  V30 2515 H 253.357 -1.27613 5.37046 0
M  V30 2516 H 253.834 -2.072 3.87253 0
M  V30 2517 H 254.44 -0.43853 4.23033 0
M  V30 2518 N 252.755 -1.56801 0.158532 0
M  V30 2519 C 254.003 -1.96102 -0.488712 0
M  V30 2520 C 254.324 -1.04498 -1.64636 0
M  V30 2521 O 253.594 -0.108783 -1.95598 0
M  V30 2522 H 252.174 -0.724102 -0.183535 0
M  V30 2523 H 254.836 -1.93457 0.236728 0
M  V30 2524 H 253.932 -3.00097 -0.857219 0
M  V30 2525 N 254.233 0.115231 -1.57178 0
M  V30 2526 C 255.479 0.818565 -1.86202 0
M  V30 2527 C 255.834 1.77316 -0.746785 0
M  V30 2528 O 255.127 1.89923 0.25291 0
M  V30 2529 C 255.321 1.60324 -3.19423 0
M  V30 2530 C 255.15 0.726138 -4.43799 0
M  V30 2531 C 253.92 0.379535 -5.03873 0
M  V30 2532 C 256.118 0.0420774 -5.14283 0
M  V30 2533 N 254.1 -0.507841 -6.11796 0
M  V30 2534 C 255.471 -0.704152 -6.15988 0
M  V30 2535 C 257.526 -0.0339486 -4.97888 0
M  V30 2536 C 256.229 -1.51927 -7.03072 0
M  V30 2537 C 258.255 -0.835906 -5.85463 0
M  V30 2538 C 257.617 -1.57031 -6.86673 0
M  V30 2539 H 253.716 0.276343 -0.731545 0
M  V30 2540 H 256.3 0.0821032 -1.94527 0
M  V30 2541 H 254.471 2.31072 -3.12186 0
M  V30 2542 H 256.203 2.2522 -3.36241 0
M  V30 2543 H 252.958 0.722634 -4.68054 0
M  V30 2544 H 253.382 -0.94349 -6.70393 0
M  V30 2545 H 258.024 0.519496 -4.19596 0
M  V30 2546 H 255.742 -2.08386 -7.80769 0
M  V30 2547 H 259.328 -0.89714 -5.74841 0
M  V30 2548 H 258.208 -2.18088 -7.53264 0
M  V30 2549 N 255.711 1.52812 0.385517 0
M  V30 2550 C 256.959 1.67694 1.12797 0
M  V30 2551 C 257.28 0.421115 1.90399 0
M  V30 2552 O 256.55 -0.564551 1.87589 0
M  V30 2553 H 255.13 0.618155 0.419396 0
M  V30 2554 H 257.792 1.89938 0.436972 0
M  V30 2555 H 256.888 2.52896 1.82894 0
M  V30 2556 N 257.189 -0.644168 1.43834 0
M  V30 2557 C 258.139 -1.7501 1.46135 0
M  V30 2558 C 259.123 -1.57507 0.328685 0
M  V30 2559 O 260.315 -1.67465 0.5731 0
M  V30 2560 C 257.444 -3.13641 1.39585 0
M  V30 2561 C 256.53 -3.3666 2.57916 0
M  V30 2562 N 256.921 -3.30107 3.83227 0
M  V30 2563 C 255.219 -3.67411 2.52834 0
M  V30 2564 C 255.92 -3.53456 4.61999 0
M  V30 2565 N 254.896 -3.75705 3.9287 0
M  V30 2566 H 258.698 -1.68382 2.40883 0
M  V30 2567 H 256.212 -0.846169 1.38614 0
M  V30 2568 H 258.209 -3.92933 1.39317 0
M  V30 2569 H 256.869 -3.21444 0.45865 0
M  V30 2570 H 257.88 -3.09316 4.15384 0
M  V30 2571 H 254.557 -3.82275 1.67845 0
M  V30 2572 H 255.947 -3.54093 5.71024 0
M  V30 2573 N 258.668 -1.30515 -0.883378 0
M  V30 2574 C 259.914 -1.19607 -1.63774 0
M  V30 2575 C 260.247 0.248314 -1.92606 0
M  V30 2576 O 259.522 1.17742 -1.54813 0
M  V30 2577 C 259.805 -2.02669 -2.97653 0
M  V30 2578 C 259.658 -3.55335 -2.75784 0
M  V30 2579 C 260.977 -1.86573 -3.98596 0
M  V30 2580 H 258.096 -0.435856 -0.594305 0
M  V30 2581 H 260.738 -1.60165 -1.02212 0
M  V30 2582 H 258.888 -1.68208 -3.50197 0
M  V30 2583 H 260.56 -3.99863 -2.30016 0
M  V30 2584 H 258.803 -3.79438 -2.1026 0
M  V30 2585 H 259.474 -4.08745 -3.70988 0
M  V30 2586 H 261.95 -2.16703 -3.55217 0
M  V30 2587 H 260.826 -2.47014 -4.90179 0
M  V30 2588 H 261.087 -0.825321 -4.34328 0
M  V30 2589 N 260.146 1.09593 -1.13257 0
M  V30 2590 C 261.109 2.14359 -0.811358 0
M  V30 2591 C 262.109 1.59808 0.178377 0
M  V30 2592 O 263.299 1.74132 -0.0484911 0
M  V30 2593 C 260.431 3.40269 -0.207276 0
M  V30 2594 H 261.624 2.44284 -1.73969 0
M  V30 2595 H 259.177 1.25102 -0.936973 0
M  V30 2596 H 259.912 3.15969 0.73036 0
M  V30 2597 H 259.697 3.81154 -0.919992 0
M  V30 2598 H 261.187 4.176 0.000667944 0
M  V30 2599 N 261.624 0.925811 1.2754 0
M  V30 2600 C 263.035 0.610102 1.7645 0
M  V30 2601 C 263.386 -0.874723 1.75622 0
M  V30 2602 O 262.511 -1.68444 1.35851 0
M  V30 2603 C 263.106 1.10073 3.20421 0
M  V30 2604 C 261.665 0.835723 3.67005 0
M  V30 2605 C 260.812 1.26054 2.46993 0
M  V30 2606 H 263.763 1.10579 1.13833 0
M  V30 2607 H 263.784 0.447557 3.77859 0
M  V30 2608 H 263.296 2.18143 3.20991 0
M  V30 2609 H 261.397 -0.231249 3.71882 0
M  V30 2610 H 261.51 1.45193 4.56569 0
M  V30 2611 H 259.874 0.679111 2.45479 0
M  V30 2612 H 260.657 2.34984 2.50275 0
M  V30 2613 N 263.102 -1.41638 0.69111 0
M  V30 2614 C 264.327 -2.06148 0.227583 0
M  V30 2615 C 264.752 -1.51652 -1.11281 0
M  V30 2616 O 264.11 -0.64164 -1.69566 0
M  V30 2617 C 264.158 -3.60095 0.190858 0
M  V30 2618 O 263.262 -4.03845 -0.835664 0
M  V30 2619 H 262.603 -0.654434 0.112306 0
M  V30 2620 H 265.133 -1.81484 0.944714 0
M  V30 2621 H 265.143 -4.07995 0.020207 0
M  V30 2622 H 263.818 -3.99129 1.16915 0
M  V30 2623 H 262.395 -3.67458 -0.63473 0
M  V30 2624 N 264.58 -0.43555 -1.51462 0
M  V30 2625 C 265.826 0.131709 -2.02372 0
M  V30 2626 C 266.159 1.42516 -1.3192 0
M  V30 2627 O 265.434 1.89606 -0.433573 0
M  V30 2628 C 265.717 0.352301 -3.58373 0
M  V30 2629 C 265.57 -0.959676 -4.39443 0
M  V30 2630 C 266.889 1.12286 -4.25535 0
M  V30 2631 H 264.008 0.0463936 -0.735538 0
M  V30 2632 H 266.65 -0.574197 -1.81116 0
M  V30 2633 H 264.8 0.9536 -3.76615 0
M  V30 2634 H 266.472 -1.59482 -4.32855 0
M  V30 2635 H 264.715 -1.56468 -4.04599 0
M  V30 2636 H 265.386 -0.759394 -5.46752 0
M  V30 2637 H 267.862 0.613545 -4.11552 0
M  V30 2638 H 266.738 1.24598 -5.34571 0
M  V30 2639 H 266.999 2.15048 -3.86273 0
M  V30 2640 N 266.058 1.56714 -0.166846 0
M  V30 2641 C 267.283 2.01557 0.488833 0
M  V30 2642 C 267.708 1.0463 1.56314 0
M  V30 2643 O 267.066 0.0251304 1.81283 0
M  V30 2644 C 267.114 3.4503 1.04818 0
M  V30 2645 O 266.218 3.51163 2.16236 0
M  V30 2646 H 265.559 0.653516 0.117526 0
M  V30 2647 H 268.089 2.02818 -0.269421 0
M  V30 2648 H 268.099 3.84243 1.37191 0
M  V30 2649 H 266.774 4.15077 0.261572 0
M  V30 2650 H 265.351 3.23807 1.84942 0
M  V30 2651 N 267.536 -0.106894 1.57237 0
M  V30 2652 C 268.466 -1.13148 2.04254 0
M  V30 2653 C 269.447 -1.42476 0.929224 0
M  V30 2654 O 270.632 -1.52709 1.19973 0
M  V30 2655 C 267.762 -2.4545 2.45706 0
M  V30 2656 C 266.716 -2.30558 3.60592 0
M  V30 2657 C 266.042 -3.67931 3.87983 0
M  V30 2658 C 267.342 -1.75597 4.91897 0
M  V30 2659 H 269.036 -0.740374 2.90101 0
M  V30 2660 H 266.582 -0.354696 1.39563 0
M  V30 2661 H 268.535 -3.17389 2.77205 0
M  V30 2662 H 267.259 -2.86475 1.56843 0
M  V30 2663 H 265.918 -1.61067 3.29322 0
M  V30 2664 H 265.566 -4.06462 2.96306 0
M  V30 2665 H 265.266 -3.58817 4.65322 0
M  V30 2666 H 266.79 -4.41356 4.21945 0
M  V30 2667 H 268.204 -2.37364 5.21854 0
M  V30 2668 H 266.601 -1.77272 5.73319 0
M  V30 2669 H 267.671 -0.714451 4.79608 0
M  V30 2670 N 269.014 -1.53014 -0.377408 0
M  V30 2671 C 269.944 -1.81589 -1.46791 0
M  V30 2672 C 270.925 -0.668622 -1.56408 0
M  V30 2673 O 272.11 -0.917337 -1.71168 0
M  V30 2674 C 269.24 -1.99519 -2.8427 0
M  V30 2675 C 268.194 -3.15249 -2.89486 0
M  V30 2676 C 267.52 -3.18451 -4.29527 0
M  V30 2677 C 268.82 -4.54084 -2.58079 0
M  V30 2678 H 270.514 -2.7291 -1.23127 0
M  V30 2679 H 268.06 -1.31319 -0.590883 0
M  V30 2680 H 270.013 -2.18092 -3.60575 0
M  V30 2681 H 268.737 -1.04897 -3.09296 0
M  V30 2682 H 267.396 -2.96477 -2.15631 0
M  V30 2683 H 267.044 -2.2149 -4.5161 0
M  V30 2684 H 266.744 -3.962 -4.33934 0
M  V30 2685 H 268.268 -3.39193 -5.07721 0
M  V30 2686 H 269.682 -4.72899 -3.24098 0
M  V30 2687 H 268.079 -5.33987 -2.7382 0
M  V30 2688 H 269.149 -4.60006 -1.53372 0
M  V30 2689 N 270.492 0.636531 -1.44174 0
M  V30 2690 C 271.72 1.42353 -1.50144 0
M  V30 2691 C 272.135 1.88389 -0.124575 0
M  V30 2692 O 271.492 1.6051 0.868489 0
M  V30 2693 C 271.543 2.64744 -2.46156 0
M  V30 2694 O 271.264 2.20629 -3.7849 0
M  V30 2695 C 272.765 3.57929 -2.61537 0
M  V30 2696 H 269.985 0.436752 -0.5094 0
M  V30 2697 H 272.529 0.778933 -1.89084 0
M  V30 2698 H 270.684 3.25307 -2.10366 0
M  V30 2699 H 271.098 2.99938 -4.30276 0
M  V30 2700 H 272.572 4.40428 -3.32757 0
M  V30 2701 H 273.049 4.06382 -1.66585 0
M  V30 2702 H 273.655 3.03238 -2.98206 0
M  V30 2703 N 271.97 1.30982 0.876444 0
M  V30 2704 C 273.381 1.18277 1.44456 0
M  V30 2705 C 273.732 -0.213265 1.95037 0
M  V30 2706 O 272.857 -1.11057 1.85729 0
M  V30 2707 C 273.452 2.1411 2.62569 0
M  V30 2708 C 272.011 2.05358 3.15444 0
M  V30 2709 C 271.158 2.03706 1.88146 0
M  V30 2710 H 274.109 1.43127 0.685584 0
M  V30 2711 H 274.13 1.72692 3.39054 0
M  V30 2712 H 273.642 3.15706 2.25724 0
M  V30 2713 H 271.743 1.06934 3.56926 0
M  V30 2714 H 271.856 2.94156 3.78166 0
M  V30 2715 H 270.22 1.48629 2.06837 0
M  V30 2716 H 271.003 3.07047 1.53547 0
M  V30 2717 N 273.449 -1.08991 1.13837 0
M  V30 2718 C 274.396 -2.15748 0.819835 0
M  V30 2719 C 275.366 -1.64636 -0.220026 0
M  V30 2720 O 276.551 -1.90582 -0.0912757 0
M  V30 2721 C 273.691 -3.4382 0.296913 0
M  V30 2722 C 272.804 -4.0881 1.39636 0
M  V30 2723 C 271.939 -5.24655 0.831314 0
M  V30 2724 C 270.978 -5.81575 1.90886 0
M  V30 2725 N 270.115 -6.88774 1.36142 0
M  V30 2726 H 274.955 -2.42338 1.73426 0
M  V30 2727 H 272.492 -1.18935 0.865613 0
M  V30 2728 H 274.45 -4.17193 -0.0244339 0
M  V30 2729 H 273.08 -3.17535 -0.580628 0
M  V30 2730 H 272.132 -3.33258 1.83422 0
M  V30 2731 H 273.444 -4.47141 2.21058 0
M  V30 2732 H 272.598 -6.04942 0.461515 0
M  V30 2733 H 271.337 -4.87698 -0.013932 0
M  V30 2734 H 270.342 -4.99946 2.28767 0
M  V30 2735 H 271.567 -6.20592 2.75758 0
M  V30 2736 H 269.513 -6.53788 0.538254 0
M  V30 2737 H 269.43 -7.25898 2.11208 0
M  V30 2738 H 270.698 -7.72806 1.01933 0
M  V30 2739 N 274.927 -0.932562 -1.27047 0
M  V30 2740 C 276.338 -0.619451 -1.76124 0
M  V30 2741 C 276.689 0.865397 -1.76083 0
M  V30 2742 O 275.814 1.67722 -1.36742 0
M  V30 2743 C 276.409 -1.11771 -3.19832 0
M  V30 2744 C 274.968 -0.855174 -3.66557 0
M  V30 2745 C 274.115 -1.27362 -2.46321 0
M  V30 2746 H 277.066 -1.11181 -1.13245 0
M  V30 2747 H 277.087 -0.46759 -3.77616 0
M  V30 2748 H 276.599 -2.19842 -3.1983 0
M  V30 2749 H 274.7 0.211524 -3.71999 0
M  V30 2750 H 274.813 -1.47613 -4.55793 0
M  V30 2751 H 273.177 -0.692119 -2.45116 0
M  V30 2752 H 273.96 -2.36307 -2.49025 0
M  V30 2753 N 276.405 1.4127 -0.698611 0
M  V30 2754 C 277.335 2.33447 -0.049629 0
M  V30 2755 C 278.316 1.51982 0.763898 0
M  V30 2756 O 279.501 1.80509 0.716257 0
M  V30 2757 C 276.631 3.35828 0.885267 0
M  V30 2758 C 275.585 4.27627 0.178613 0
M  V30 2759 C 274.911 5.20406 1.22807 0
M  V30 2760 C 276.211 5.13459 -0.956933 0
M  V30 2761 H 277.905 2.87966 -0.81951 0
M  V30 2762 H 275.451 1.38461 -0.395538 0
M  V30 2763 H 277.404 3.9924 1.34854 0
M  V30 2764 H 276.128 2.79666 1.68685 0
M  V30 2765 H 274.787 3.65643 -0.26466 0
M  V30 2766 H 274.435 4.60558 2.02226 0
M  V30 2767 H 274.135 5.82661 0.760239 0
M  V30 2768 H 275.659 5.86695 1.69179 0
M  V30 2769 H 277.073 5.70421 -0.573805 0
M  V30 2770 H 275.47 5.8467 -1.35205 0
M  V30 2771 H 276.54 4.50443 -1.79524 0
M  V30 2772 N 277.883 0.443576 1.51229 0
M  V30 2773 C 278.815 -0.400608 2.25672 0
M  V30 2774 C 279.828 -0.980945 1.29928 0
M  V30 2775 O 281.017 -0.874024 1.55638 0
M  V30 2776 C 278.117 -1.57304 3.00181 0
M  V30 2777 C 277.29 -1.11046 4.23069 0
M  V30 2778 C 276.349 -2.15374 4.80105 0
M  V30 2779 O 275.375 -1.74554 5.41774 0
M  V30 2780 N 276.577 -3.47922 4.64683 0
M  V30 2781 H 279.342 0.23745 2.98758 0
M  V30 2782 H 276.903 0.272809 1.59585 0
M  V30 2783 H 278.895 -2.26733 3.35223 0
M  V30 2784 H 277.465 -2.11632 2.30066 0
M  V30 2785 H 276.685 -0.243019 3.9345 0
M  V30 2786 H 277.973 -0.778888 5.02803 0
M  V30 2787 H 277.371 -3.83815 4.15575 0
M  V30 2788 H 275.928 -4.13228 5.0407 0
M  V30 2789 N 279.361 -1.56624 0.175154 0
M  V30 2790 C 280.293 -2.15333 -0.785128 0
M  V30 2791 C 281.306 -1.1099 -1.19101 0
M  V30 2792 O 282.495 -1.38162 -1.13019 0
M  V30 2793 C 279.595 -2.68427 -2.06882 0
M  V30 2794 C 278.768 -3.97466 -1.8259 0
M  V30 2795 C 277.827 -4.35585 -2.95215 0
M  V30 2796 O 276.853 -5.03389 -2.65684 0
M  V30 2797 N 278.055 -3.97457 -4.23094 0
M  V30 2798 H 280.82 -2.98359 -0.283187 0
M  V30 2799 H 278.381 -1.61898 -0.00749817 0
M  V30 2800 H 280.373 -2.90924 -2.81328 0
M  V30 2801 H 278.943 -1.89968 -2.48256 0
M  V30 2802 H 278.163 -3.83307 -0.920287 0
M  V30 2803 H 279.451 -4.81736 -1.63733 0
M  V30 2804 H 278.849 -3.42878 -4.49945 0
M  V30 2805 H 277.406 -4.24947 -4.9423 0
M  V30 2806 N 280.839 0.0985539 -1.57292 0
M  V30 2807 C 281.769 1.12064 -2.04851 0
M  V30 2808 C 282.75 1.41981 -0.936767 0
M  V30 2809 O 283.935 1.52071 -1.20781 0
M  V30 2810 C 281.065 2.44144 -2.47004 0
M  V30 2811 C 280.019 2.28643 -3.6181 0
M  V30 2812 C 279.345 3.65869 -3.89929 0
M  V30 2813 C 280.645 1.72986 -4.92822 0
M  V30 2814 H 282.339 0.724979 -2.9049 0
M  V30 2815 H 279.885 0.34729 -1.39749 0
M  V30 2816 H 281.838 3.15914 -2.78884 0
M  V30 2817 H 280.562 2.85639 -1.5836 0
M  V30 2818 H 279.221 1.59318 -3.30172 0
M  V30 2819 H 278.869 4.04885 -2.98458 0
M  V30 2820 H 278.569 3.56344 -4.67218 0
M  V30 2821 H 280.093 4.39112 -4.2428 0
M  V30 2822 H 281.507 2.34593 -5.23105 0
M  V30 2823 H 279.904 1.74229 -5.74251 0
M  V30 2824 H 280.974 0.689007 -4.7998 0
M  V30 2825 N 282.317 1.53212 0.369288 0
M  V30 2826 C 283.227 1.82342 1.47609 0
M  V30 2827 C 284.243 0.711532 1.58787 0
M  V30 2828 O 285.419 1.0012 1.74751 0
M  V30 2829 C 282.484 2.00393 2.8292 0
M  V30 2830 C 281.545 3.24297 2.81301 0
M  V30 2831 C 280.778 3.41478 4.10157 0
M  V30 2832 O 281.001 2.63033 5.06132 0
M  V30 2833 O 279.935 4.34817 4.16194 0
M  V30 2834 H 283.761 2.76366 1.25918 0
M  V30 2835 H 281.346 1.38547 0.559034 0
M  V30 2836 H 283.228 2.13859 3.63101 0
M  V30 2837 H 281.903 1.09559 3.04596 0
M  V30 2838 H 280.81 3.16257 1.99831 0
M  V30 2839 H 282.143 4.15041 2.64578 0
M  V30 2840 N 283.795 -0.628877 1.44509 0
M  V30 2841 C 285.041 -1.39045 1.47629 0
M  V30 2842 C 285.374 -1.93892 0.109343 0
M  V30 2843 O 284.649 -1.7379 -0.87334 0
M  V30 2844 C 284.932 -2.55408 2.53848 0
M  V30 2845 C 284.785 -2.05896 3.99909 0
M  V30 2846 C 286.104 -3.5759 2.56549 0
M  V30 2847 H 283.223 -0.504232 0.537512 0
M  V30 2848 H 285.865 -0.710854 1.76201 0
M  V30 2849 H 284.015 -3.13384 2.29615 0
M  V30 2850 H 285.687 -1.52734 4.35282 0
M  V30 2851 H 283.93 -1.37061 4.11578 0
M  V30 2852 H 284.601 -2.89681 4.69882 0
M  V30 2853 H 287.077 -3.09419 2.78207 0
M  V30 2854 H 285.953 -4.36527 3.32769 0
M  V30 2855 H 286.214 -4.11808 1.60832 0
M  V30 2856 N 285.273 -1.31445 -0.869486 0
M  V30 2857 C 286.684 -1.19042 -1.43826 0
M  V30 2858 C 287.035 0.202919 -1.95148 0
M  V30 2859 O 286.16 1.10071 -1.86315 0
M  V30 2860 C 286.755 -2.15499 -2.6143 0
M  V30 2861 C 285.314 -2.07028 -3.14351 0
M  V30 2862 C 284.461 -2.04701 -1.87063 0
M  V30 2863 H 287.412 -1.43489 -0.677984 0
M  V30 2864 H 287.433 -1.74488 -3.38134 0
M  V30 2865 H 286.945 -3.16899 -2.24046 0
M  V30 2866 H 285.046 -1.08825 -3.56354 0
M  V30 2867 H 285.159 -2.96157 -3.766 0
M  V30 2868 H 283.523 -1.49724 -2.06046 0
M  V30 2869 H 284.306 -3.07857 -1.51917 0
M  V30 2870 N 286.751 1.08385 -1.14413 0
M  V30 2871 C 287.681 2.17321 -0.854044 0
M  V30 2872 C 288.662 1.69024 0.191049 0
M  V30 2873 O 289.847 1.94141 0.0476779 0
M  V30 2874 C 286.977 3.45719 -0.330983 0
M  V30 2875 C 285.931 4.07409 -1.31155 0
M  V30 2876 C 285.257 5.30762 -0.64778 0
M  V30 2877 C 286.557 4.48665 -2.67388 0
M  V30 2878 H 288.251 2.41845 -1.76498 0
M  V30 2879 H 285.797 1.16233 -0.850051 0
M  V30 2880 H 287.75 4.21241 -0.115645 0
M  V30 2881 H 286.474 3.2075 0.615381 0
M  V30 2882 H 285.133 3.33919 -1.51306 0
M  V30 2883 H 284.781 5.02078 0.304398 0
M  V30 2884 H 284.481 5.72992 -1.30207 0
M  V30 2885 H 286.005 6.08998 -0.441972 0
M  V30 2886 H 287.419 5.15364 -2.51143 0
M  V30 2887 H 285.816 5.01814 -3.29093 0
M  V30 2888 H 286.886 3.60543 -3.24248 0
M  V30 2889 N 288.23 0.939286 1.26551 0
M  V30 2890 C 289.479 0.581601 1.93133 0
M  V30 2891 C 289.792 -0.883224 1.74524 0
M  V30 2892 O 290.998 -1.3502 2.35546 0
M  V30 2893 C 289.454 0.989425 3.46032 0
M  V30 2894 C 289.062 2.47573 3.73379 0
M  V30 2895 C 290.806 0.703544 4.18629 0
M  V30 2896 C 288.713 2.82235 5.19709 0
M  V30 2897 H 287.643 0.213803 0.723052 0
M  V30 2898 H 290.294 1.14167 1.4366 0
M  V30 2899 H 288.676 0.357902 3.94379 0
M  V30 2900 H 289.85 3.15614 3.35744 0
M  V30 2901 H 288.165 2.73471 3.1401 0
M  V30 2902 H 290.762 0.938869 5.26393 0
M  V30 2903 H 291.105 -0.359639 4.14744 0
M  V30 2904 H 291.638 1.2947 3.76141 0
M  V30 2905 H 288.377 3.87509 5.28694 0
M  V30 2906 H 287.897 2.18854 5.58447 0
M  V30 2907 H 289.576 2.70599 5.87695 0
M  V30 2908 N 289.708 -1.40897 0.706093 0
M  V30 2909 C 290.933 -2.05895 0.249435 0
M  V30 2910 C 291.358 -1.52823 -1.09666 0
M  V30 2911 O 290.716 -0.659589 -1.68876 0
M  V30 2912 C 290.764 -3.59872 0.22904 0
M  V30 2913 O 289.868 -4.04708 -0.792784 0
M  V30 2914 H 289.209 -0.653206 0.119241 0
M  V30 2915 H 291.739 -1.80471 0.96391 0
M  V30 2916 H 291.749 -4.07951 0.0634791 0
M  V30 2917 H 290.424 -3.97866 1.21141 0
M  V30 2918 H 289.001 -3.68111 -0.59572 0
M  V30 2919 N 291.186 -0.45159 -1.50991 0
M  V30 2920 C 292.602 -0.104647 -1.59257 0
M  V30 2921 C 292.802 1.38728 -1.4614 0
M  V30 2922 O 291.858 2.15866 -1.30989 0
M  V30 2923 C 293.171 -0.637468 -2.93865 0
M  V30 2924 C 294.719 -0.599166 -3.07212 0
M  V30 2925 C 295.194 -1.1092 -4.44366 0
M  V30 2926 N 296.685 -1.06778 -4.50725 0
M  V30 2927 C 297.42 -1.43314 -5.55201 0
M  V30 2928 N 296.916 -1.87204 -6.67028 0
M  V30 2929 N 298.709 -1.3504 -5.45638 0
M  V30 2930 H 290.86 -1.42214 -1.57762 0
M  V30 2931 H 293.123 -0.586921 -0.744465 0
M  V30 2932 H 292.829 -1.68187 -3.08879 0
M  V30 2933 H 292.703 -0.0702139 -3.77135 0
M  V30 2934 H 295.09 0.436277 -2.91857 0
M  V30 2935 H 295.171 -1.20299 -2.25747 0
M  V30 2936 H 294.815 -2.14318 -4.60467 0
M  V30 2937 H 294.745 -0.481773 -5.24392 0
M  V30 2938 H 297.236 -0.745643 -3.70471 0
M  V30 2939 H 297.549 -2.13282 -7.42786 0
M  V30 2940 H 295.894 -1.91142 -6.68199 0
M  V30 2941 H 299.085 -1.00607 -4.57161 0
M  V30 2942 H 299.258 -1.63841 -6.26945 0
M  V30 2943 N 292.664 1.56529 -0.183458 0
M  V30 2944 C 293.574 2.22144 0.754272 0
M  V30 2945 C 294.59 1.21684 1.24374 0
M  V30 2946 O 295.766 1.54385 1.29333 0
M  V30 2947 C 292.831 2.85884 1.96141 0
M  V30 2948 C 291.892 4.01579 1.51765 0
M  V30 2949 C 291.125 4.6227 2.66725 0
M  V30 2950 O 291.348 4.21865 3.83909 0
M  V30 2951 O 290.282 5.51936 2.40104 0
M  V30 2952 H 294.108 3.02861 0.225527 0
M  V30 2953 H 291.693 1.49331 0.0453032 0
M  V30 2954 H 293.575 3.26253 2.66715 0
M  V30 2955 H 292.25 2.08154 2.47899 0
M  V30 2956 H 291.157 3.65856 0.781049 0
M  V30 2957 H 292.49 4.80938 1.04686 0
M  V30 2958 N 294.142 -0.090211 1.57342 0
M  V30 2959 C 295.37 -0.806224 1.90546 0
M  V30 2960 C 295.785 -1.72041 0.777644 0
M  V30 2961 O 295.142 -1.80778 -0.250103 0
M  V30 2962 C 295.193 -1.61546 3.23396 0
M  V30 2963 O 294.914 -0.738043 4.31839 0
M  V30 2964 C 296.415 -2.4341 3.70495 0
M  V30 2965 H 293.635 -0.230256 0.630257 0
M  V30 2966 H 296.179 -0.0659843 2.04394 0
M  V30 2967 H 294.334 -2.30816 3.11131 0
M  V30 2968 H 294.748 -1.29901 5.08159 0
M  V30 2969 H 296.222 -2.95676 4.66133 0
M  V30 2970 H 296.699 -3.22098 2.98579 0
M  V30 2971 H 297.305 -1.79331 3.85643 0
M  V30 2972 N 295.62 -1.53406 -0.361157 0
M  V30 2973 C 296.86 -1.71507 -1.11197 0
M  V30 2974 C 297.224 -0.459337 -1.86425 0
M  V30 2975 O 298.425 -0.517102 -2.63779 0
M  V30 2976 C 296.696 -2.93307 -2.0422 0
M  V30 2977 S 298.255 -3.32135 -2.86761 0
M  V30 2978 H 295.073 -0.603448 -0.375995 0
M  V30 2979 H 297.675 -1.91516 -0.392642 0
M  V30 2980 H 296.379 -3.82891 -1.47724 0
M  V30 2981 H 295.91 -2.75712 -2.80618 0
M  V30 2982 H 297.925 -2.84493 -4.06544 0
M  V30 2983 N 297.098 0.621204 -1.44841 0
M  V30 2984 C 298.046 1.75385 -1.52784 0
M  V30 2985 C 299.04 1.64639 -0.398779 0
M  V30 2986 O 300.246 1.70598 -0.574137 0
M  V30 2987 H 296.621 0.579193 -0.479625 0
M  V30 2988 H 298.592 1.6581 -2.48092 0
M  V30 2989 C 297.341 3.13742 -1.4987 0
M  V30 2990 H 296.664 3.22663 -2.36069 0
M  V30 2991 H 298.104 3.92861 -1.59487 0
M  V30 2992 C 296.563 3.36175 -0.220973 0
M  V30 2993 O 297.093 3.95469 0.704782 0
M  V30 2994 N 295.299 2.90348 -0.120963 0
M  V30 2995 H 294.846 2.42278 -0.875162 0
M  V30 2996 H 294.804 3.05732 0.733168 0
M  V30 2997 N 298.576 1.31904 0.862503 0
M  V30 2998 C 299.816 1.23324 1.63004 0
M  V30 2999 C 300.18 -0.203724 1.90916 0
M  V30 3000 O 301.381 -0.413132 2.65606 0
M  V30 3001 C 299.652 2.06116 2.91978 0
M  V30 3002 S 301.211 2.14478 3.82812 0
M  V30 3003 H 298.029 0.439117 0.559193 0
M  V30 3004 H 300.631 1.66658 1.02202 0
M  V30 3005 H 299.335 3.09593 2.69407 0
M  V30 3006 H 298.866 1.6353 3.57801 0
M  V30 3007 H 300.881 1.28855 4.79177 0
M  V30 3008 N 300.054 -1.07777 1.14986 0
M  V30 3009 C 300.984 -2.16865 0.865557 0
M  V30 3010 C 301.965 -1.69123 -0.182083 0
M  V30 3011 O 303.15 -1.94164 -0.0373815 0
M  V30 3012 C 300.28 -3.45539 0.349313 0
M  V30 3013 C 299.234 -4.06708 1.33313 0
M  V30 3014 C 298.56 -5.30411 0.675918 0
M  V30 3015 C 299.86 -4.47241 2.69764 0
M  V30 3016 H 301.554 -2.40905 1.77778 0
M  V30 3017 H 299.1 -1.15781 0.856203 0
M  V30 3018 H 301.053 -4.21174 0.137983 0
M  V30 3019 H 299.777 -3.21072 -0.598362 0
M  V30 3020 H 298.436 -3.33112 1.53075 0
M  V30 3021 H 298.084 -5.02232 -0.277767 0
M  V30 3022 H 297.784 -5.72293 1.33244 0
M  V30 3023 H 299.308 -6.08755 0.474262 0
M  V30 3024 H 300.722 -5.14025 2.53873 0
M  V30 3025 H 299.119 -5.00062 3.3175 0
M  V30 3026 H 300.189 -3.58818 3.26156 0
M  V30 3027 N 301.532 -0.945985 -1.26051 0
M  V30 3028 C 302.762 -0.612136 -1.97323 0
M  V30 3029 C 303.17 0.818171 -1.70595 0
M  V30 3030 O 302.513 1.55777 -0.973613 0
M  V30 3031 C 302.575 -0.780347 -3.50929 0
M  V30 3032 C 302.239 -2.18619 -4.01317 0
M  V30 3033 C 303.236 -3.16209 -4.12683 0
M  V30 3034 C 300.921 -2.50805 -4.35203 0
M  V30 3035 C 302.915 -4.44085 -4.57238 0
M  V30 3036 C 300.602 -3.78912 -4.79446 0
M  V30 3037 C 301.6 -4.75365 -4.90425 0
M  V30 3038 O 301.288 -6.01191 -5.3369 0
M  V30 3039 H 301.02 -0.229134 -0.635982 0
M  V30 3040 H 303.574 -1.27036 -1.61404 0
M  V30 3041 H 301.804 -0.0649864 -3.86645 0
M  V30 3042 H 303.493 -0.448842 -4.03411 0
M  V30 3043 H 304.259 -2.92668 -3.86744 0
M  V30 3044 H 300.138 -1.76463 -4.2589 0
M  V30 3045 H 303.682 -5.19373 -4.65723 0
M  V30 3046 H 299.579 -4.02265 -5.0483 0
M  V30 3047 H 300.347 -6.04442 -5.51899 0
M  V30 3048 N 303.011 1.40521 -0.713556 0
M  V30 3049 C 303.959 2.32549 -0.0485227 0
M  V30 3050 C 304.953 1.51931 0.74922 0
M  V30 3051 O 306.159 1.67745 0.652816 0
M  V30 3052 H 302.534 0.751994 0.00311138 0
M  V30 3053 H 304.505 2.86291 -0.841443 0
M  V30 3054 C 303.254 3.36879 0.860687 0
M  V30 3055 H 302.577 3.98978 0.256246 0
M  V30 3056 H 304.017 4.03772 1.294 0
M  V30 3057 C 302.476 2.72197 1.9852 0
M  V30 3058 O 303.006 2.5837 3.07584 0
M  V30 3059 N 301.212 2.30612 1.76823 0
M  V30 3060 H 300.759 2.42059 0.881217 0
M  V30 3061 H 300.717 1.87672 2.52243 0
M  V30 3062 N 304.489 0.459591 1.5075 0
M  V30 3063 C 305.738 -0.100971 2.01447 0
M  V30 3064 C 306.051 -1.41816 1.34713 0
M  V30 3065 O 307.257 -2.06299 1.76502 0
M  V30 3066 C 305.713 -0.23047 3.59161 0
M  V30 3067 C 305.321 1.0776 4.34847 0
M  V30 3068 C 307.065 -0.743608 4.17936 0
M  V30 3069 C 304.972 0.91253 5.84317 0
M  V30 3070 H 303.902 -0.0415102 0.752856 0
M  V30 3071 H 306.553 0.592742 1.73663 0
M  V30 3072 H 304.935 -0.987703 3.83485 0
M  V30 3073 H 306.109 1.8449 4.22256 0
M  V30 3074 H 304.424 1.52097 3.87628 0
M  V30 3075 H 307.021 -0.883959 5.27343 0
M  V30 3076 H 307.364 -1.73196 3.78562 0
M  V30 3077 H 307.897 -0.04408 3.97776 0
M  V30 3078 H 304.636 1.87391 6.28144 0
M  V30 3079 H 304.156 0.185422 5.99513 0
M  V30 3080 H 305.835 0.574547 6.44444 0
M  V30 3081 N 305.967 -1.56429 0.191757 0
M  V30 3082 C 307.244 -1.89224 -0.495332 0
M  V30 3083 C 307.624 -1.10478 -1.79883 0
M  V30 3084 O 306.972 -0.204852 -2.2758 0
M  V30 3085 C 307.182 -3.41548 -0.717367 0
M  V30 3086 C 308.53 -4.11711 -1.03823 0
M  V30 3087 O 309.554 -3.4698 -0.805204 0
M  V30 3088 O 308.413 -5.2611 -1.47887 0
M  V30 3089 H 305.507 -0.785788 -0.25781 0
M  V30 3090 H 308.053 -1.68111 0.231721 0
M  V30 3091 H 306.825 -3.90772 0.203287 0
M  V30 3092 H 306.448 -3.68342 -1.497 0
M  V30 3093 N 307.445 0.0818655 -1.57387 0
M  V30 3094 C 308.408 1.08265 -2.02018 0
M  V30 3095 C 309.408 1.32183 -0.915664 0
M  V30 3096 O 310.598 1.28073 -1.18081 0
M  V30 3097 C 307.73 2.42871 -2.39221 0
M  V30 3098 H 308.923 0.698204 -2.91659 0
M  V30 3099 H 306.476 0.327303 -1.52835 0
M  V30 3100 H 307.211 2.86167 -1.52575 0
M  V30 3101 H 306.996 2.26855 -3.19811 0
M  V30 3102 H 308.486 3.14826 -2.74362 0
M  V30 3103 N 308.923 1.53595 0.353017 0
M  V30 3104 C 309.87 1.80919 1.43308 0
M  V30 3105 C 310.84 0.654288 1.5267 0
M  V30 3106 O 312.025 0.897759 1.6836 0
M  V30 3107 C 309.165 2.01605 2.80089 0
M  V30 3108 C 308.278 3.29321 2.79593 0
M  V30 3109 C 307.413 3.40125 4.0803 0
M  V30 3110 C 306.452 4.61826 4.01725 0
M  V30 3111 N 305.589 4.69716 5.21834 0
M  V30 3112 H 310.429 2.73074 1.19308 0
M  V30 3113 H 307.966 1.35263 0.578131 0
M  V30 3114 H 309.924 2.11586 3.59565 0
M  V30 3115 H 308.554 1.12772 3.0246 0
M  V30 3116 H 307.606 3.28229 1.92276 0
M  V30 3117 H 308.918 4.18884 2.70809 0
M  V30 3118 H 308.072 3.49488 4.95927 0
M  V30 3119 H 306.811 2.48601 4.19582 0
M  V30 3120 H 305.816 4.52552 3.12213 0
M  V30 3121 H 307.041 5.54705 3.91764 0
M  V30 3122 H 304.987 3.81097 5.33948 0
M  V30 3123 H 304.904 5.53202 5.1527 0
M  V30 3124 H 306.172 4.83376 6.11529 0
M  V30 3125 N 310.401 -0.613514 1.45168 0
M  V30 3126 C 311.812 -1.19539 1.43413 0
M  V30 3127 C 312.163 -1.95558 0.158632 0
M  V30 3128 O 311.288 -2.0335 -0.740119 0
M  V30 3129 C 311.883 -2.17445 2.59813 0
M  V30 3130 C 310.442 -2.71022 2.61197 0
M  V30 3131 C 309.589 -1.46323 2.35552 0
M  V30 3132 H 312.54 -0.403163 1.53494 0
M  V30 3133 H 312.561 -3.00373 2.33574 0
M  V30 3134 H 312.073 -1.62089 3.52631 0
M  V30 3135 H 310.174 -3.30332 1.7237 0
M  V30 3136 H 310.287 -3.15859 3.60236 0
M  V30 3137 H 308.651 -1.75072 1.84992 0
M  V30 3138 H 309.434 -0.92844 3.30507 0
M  V30 3139 N 311.879 -1.3236 -0.855495 0
M  V30 3140 C 312.789 -1.23221 -1.99634 0
M  V30 3141 C 313.805 -0.145983 -1.73387 0
M  V30 3142 O 314.981 -0.366502 -1.98037 0
M  V30 3143 C 312.046 -0.954782 -3.33294 0
M  V30 3144 C 311.107 -2.12937 -3.72769 0
M  V30 3145 C 310.34 -1.86508 -5.00051 0
M  V30 3146 O 310.563 -0.807231 -5.64659 0
M  V30 3147 O 309.497 -2.72591 -5.36636 0
M  V30 3148 H 313.323 -2.19126 -2.1028 0
M  V30 3149 H 310.908 -1.12241 -0.986018 0
M  V30 3150 H 312.79 -0.816519 -4.13414 0
M  V30 3151 H 311.465 -0.0258854 -3.2369 0
M  V30 3152 H 310.372 -2.3231 -2.93228 0
M  V30 3153 H 311.705 -3.04102 -3.87018 0
M  V30 3154 N 313.357 1.07166 -1.15556 0
M  V30 3155 C 314.267 2.17947 -0.868116 0
M  V30 3156 C 315.283 1.73297 0.156297 0
M  V30 3157 O 316.459 2.01392 -0.0182327 0
M  V30 3158 C 313.524 3.44789 -0.36355 0
M  V30 3159 C 312.585 4.03996 -1.45209 0
M  V30 3160 C 311.818 5.24783 -0.971508 0
M  V30 3161 O 312.041 5.70109 0.182194 0
M  V30 3162 O 310.975 5.75715 -1.75603 0
M  V30 3163 H 314.801 2.4503 -1.79427 0
M  V30 3164 H 312.386 1.16539 -0.934824 0
M  V30 3165 H 314.268 4.21307 -0.0887113 0
M  V30 3166 H 312.943 3.19253 0.534708 0
M  V30 3167 H 311.85 3.29009 -1.78056 0
M  V30 3168 H 313.183 4.33808 -2.32533 0
M  V30 3169 N 314.835 0.952656 1.25548 0
M  V30 3170 C 316.246 0.647392 1.75116 0
M  V30 3171 C 316.597 -0.837274 1.77438 0
M  V30 3172 O 315.722 -1.65525 1.39393 0
M  V30 3173 C 316.317 1.16845 3.18014 0
M  V30 3174 C 314.876 0.913382 3.6515 0
M  V30 3175 C 314.023 1.31265 2.44264 0
M  V30 3176 H 316.974 1.12968 1.11462 0
M  V30 3177 H 316.995 0.527606 3.76824 0
M  V30 3178 H 316.507 2.24902 3.16292 0
M  V30 3179 H 314.608 -0.152316 3.72289 0
M  V30 3180 H 314.721 1.54845 4.53387 0
M  V30 3181 H 313.085 0.731028 2.43984 0
M  V30 3182 H 313.868 2.40239 2.45234 0
M  V30 3183 N 316.313 -1.40141 0.720998 0
M  V30 3184 C 317.263 -2.27949 0.0482544 0
M  V30 3185 C 318.247 -1.43538 -0.727021 0
M  V30 3186 O 319.439 -1.6658 -0.598332 0
M  V30 3187 C 316.568 -3.32126 -0.868729 0
M  V30 3188 C 315.654 -4.24008 -0.0883515 0
M  V30 3189 N 316.045 -4.97154 0.931226 0
M  V30 3190 C 314.343 -4.4485 -0.320105 0
M  V30 3191 C 315.044 -5.64587 1.4006 0
M  V30 3192 N 314.02 -5.38787 0.721752 0
M  V30 3193 H 317.822 -2.81948 0.829609 0
M  V30 3194 H 315.336 -1.52656 0.554067 0
M  V30 3195 H 317.333 -3.93884 -1.36605 0
M  V30 3196 H 315.993 -2.79687 -1.6494 0
M  V30 3197 H 317.004 -5.01 1.31222 0
M  V30 3198 H 313.681 -4.03378 -1.07668 0
M  V30 3199 H 315.071 -6.33175 2.24808 0
M  V30 3200 N 317.792 -0.46758 -1.50504 0
M  V30 3201 C 319.039 0.0886219 -2.02306 0
M  V30 3202 C 319.367 1.40037 -1.34981 0
M  V30 3203 O 318.622 1.90136 -0.463318 0
M  V30 3204 C 318.921 0.323995 -3.55928 0
M  V30 3205 C 318.587 -0.905618 -4.41712 0
M  V30 3206 C 317.249 -1.24275 -4.64875 0
M  V30 3207 C 319.601 -1.72448 -4.91845 0
M  V30 3208 C 316.929 -2.39888 -5.35417 0
M  V30 3209 C 319.281 -2.87185 -5.63656 0
M  V30 3210 C 317.945 -3.21317 -5.85074 0
M  V30 3211 H 317.215 0.0324291 -0.74029 0
M  V30 3212 H 319.862 -0.620945 -1.81153 0
M  V30 3213 H 318.167 1.11577 -3.75577 0
M  V30 3214 H 319.864 0.76826 -3.93572 0
M  V30 3215 H 316.454 -0.632956 -4.239 0
M  V30 3216 H 320.638 -1.4772 -4.73806 0
M  V30 3217 H 315.894 -2.66611 -5.50208 0
M  V30 3218 H 320.068 -3.50985 -6.01484 0
M  V30 3219 H 317.695 -4.1101 -6.39511 0
M  V30 3220 N 319.27 1.56325 -0.20005 0
M  V30 3221 C 320.516 1.98012 0.438059 0
M  V30 3222 C 320.849 1.08702 1.60927 0
M  V30 3223 O 320.124 0.140064 1.93995 0
M  V30 3224 C 320.407 3.48841 0.893419 0
M  V30 3225 C 320.26 4.48928 -0.279947 0
M  V30 3226 C 321.579 4.03498 1.75719 0
M  V30 3227 H 318.698 0.719918 0.157757 0
M  V30 3228 H 321.34 1.87743 -0.291968 0
M  V30 3229 H 319.49 3.57723 1.51547 0
M  V30 3230 H 321.162 4.52079 -0.91772 0
M  V30 3231 H 319.405 4.23694 -0.930919 0
M  V30 3232 H 320.076 5.5194 0.0812601 0
M  V30 3233 H 322.552 3.97427 1.23253 0
M  V30 3234 H 321.428 5.09393 2.04476 0
M  V30 3235 H 321.689 3.4906 2.71311 0
M  V30 3236 N 320.748 -0.0735177 1.57428 0
M  V30 3237 C 321.68 -1.11423 2.00294 0
M  V30 3238 C 322.693 -1.35084 0.908637 0
M  V30 3239 O 323.882 -1.33355 1.18654 0
M  V30 3240 C 320.982 -2.46548 2.32523 0
M  V30 3241 C 320.155 -2.42867 3.63778 0
M  V30 3242 C 319.214 -3.60087 3.83697 0
M  V30 3243 O 318.24 -3.41595 4.55304 0
M  V30 3244 N 319.442 -4.80372 3.25919 0
M  V30 3245 H 322.207 -0.749206 2.90184 0
M  V30 3246 H 319.768 -0.262195 1.59763 0
M  V30 3247 H 321.76 -3.23607 2.43024 0
M  V30 3248 H 320.33 -2.75059 1.48531 0
M  V30 3249 H 319.55 -1.51206 3.64047 0
M  V30 3250 H 320.838 -2.37506 4.49965 0
M  V30 3251 H 320.236 -4.983 2.67795 0
M  V30 3252 H 318.793 -5.54948 3.41871 0
M  V30 3253 N 322.226 -1.5378 -0.344866 0
M  V30 3254 C 323.136 -1.84667 -1.4469 0
M  V30 3255 C 324.152 -0.736704 -1.57635 0
M  V30 3256 O 325.328 -1.02888 -1.73136 0
M  V30 3257 C 322.393 -2.04869 -2.79696 0
M  V30 3258 C 321.454 -3.28731 -2.76106 0
M  V30 3259 C 320.687 -3.4796 -4.04673 0
M  V30 3260 O 320.91 -2.71052 -5.01883 0
M  V30 3261 O 319.844 -4.41383 -4.09224 0
M  V30 3262 H 323.67 -2.78334 -1.21506 0
M  V30 3263 H 321.255 -1.39418 -0.536921 0
M  V30 3264 H 323.137 -2.19609 -3.59652 0
M  V30 3265 H 321.812 -1.14391 -3.02814 0
M  V30 3266 H 320.719 -3.19396 -1.94774 0
M  V30 3267 H 322.052 -4.19198 -2.57941 0
M  V30 3268 N 323.704 0.605807 -1.45491 0
M  V30 3269 C 324.981 1.36522 -1.40075 0
M  V30 3270 C 325.361 2.10976 -0.0722744 0
M  V30 3271 O 324.709 2.08007 0.945808 0
M  V30 3272 C 324.919 2.31056 -2.61561 0
M  V30 3273 C 326.267 2.93608 -3.06724 0
M  V30 3274 O 327.291 2.41376 -2.61946 0
M  V30 3275 O 326.15 3.88421 -3.84437 0
M  V30 3276 H 323.244 0.612248 -0.555951 0
M  V30 3277 H 325.79 0.628747 -1.57623 0
M  V30 3278 H 324.562 1.75311 -3.49831 0
M  V30 3279 H 324.185 3.12081 -2.46356 0
M  V30 3280 N 325.182 1.32811 0.848464 0
M  V30 3281 C 326.115 1.16601 1.96162 0
M  V30 3282 C 327.093 0.0638855 1.62474 0
M  V30 3283 O 328.277 0.224348 1.8716 0
M  V30 3284 C 325.404 0.786333 3.29446 0
M  V30 3285 C 324.45 1.89459 3.8211 0
M  V30 3286 S 325.283 3.50395 4.04949 0
M  V30 3287 C 326.439 3.14413 5.41198 0
M  V30 3288 H 326.672 2.10832 2.09612 0
M  V30 3289 H 324.205 1.17543 1.00115 0
M  V30 3290 H 326.163 0.574044 4.06466 0
M  V30 3291 H 324.824 -0.137218 3.138 0
M  V30 3292 H 324.017 1.58207 4.78526 0
M  V30 3293 H 323.619 2.06304 3.11953 0
M  V30 3294 H 325.911 2.64642 6.23675 0
M  V30 3295 H 326.854 4.09874 5.77416 0
M  V30 3296 H 327.262 2.51266 5.05495 0
M  V30 3297 N 326.66 -1.06551 1.16123 0
M  V30 3298 C 327.906 -1.79567 0.94252 0
M  V30 3299 C 328.239 -1.86869 -0.528547 0
M  V30 3300 O 327.514 -1.35838 -1.39206 0
M  V30 3301 C 327.797 -3.24195 1.56747 0
M  V30 3302 C 327.65 -3.24989 3.10969 0
M  V30 3303 C 328.969 -4.21678 1.25998 0
M  V30 3304 H 326.088 -0.651883 0.343828 0
M  V30 3305 H 328.73 -1.2463 1.43413 0
M  V30 3306 H 326.88 -3.71107 1.14942 0
M  V30 3307 H 328.552 -2.86258 3.61737 0
M  V30 3308 H 326.795 -2.63716 3.44436 0
M  V30 3309 H 327.466 -4.27005 3.49815 0
M  V30 3310 H 329.942 -3.83196 1.62174 0
M  V30 3311 H 328.818 -5.21146 1.7233 0
M  V30 3312 H 329.079 -4.4174 0.178367 0
M  V30 3313 N 328.138 -0.959301 -1.25041 0
M  V30 3314 C 329.378 -0.624343 -1.94631 0
M  V30 3315 C 329.742 0.82403 -1.73418 0
M  V30 3316 O 330.943 1.26881 -2.3697 0
M  V30 3317 C 329.214 -0.978805 -3.43736 0
M  V30 3318 S 330.773 -0.757127 -4.32219 0
M  V30 3319 H 327.591 -0.229327 -0.673001 0
M  V30 3320 H 330.193 -1.23447 -1.51595 0
M  V30 3321 H 328.897 -2.02997 -3.56679 0
M  V30 3322 H 328.428 -0.359117 -3.91757 0
M  V30 3323 H 330.443 0.369759 -4.9482 0
M  V30 3324 N 329.616 1.39756 -0.72842 0
M  V30 3325 C 330.579 2.29012 -0.0927297 0
M  V30 3326 C 331.579 1.45992 0.674025 0
M  V30 3327 O 332.769 1.66749 0.50402 0
M  V30 3328 C 329.901 3.29396 0.878137 0
M  V30 3329 H 331.094 2.86729 -0.879011 0
M  V30 3330 H 328.647 1.48293 -0.493847 0
M  V30 3331 H 329.382 2.76722 1.69101 0
M  V30 3332 H 329.167 3.907 0.331051 0
M  V30 3333 H 330.657 3.96199 1.3197 0
M  V30 3334 N 331.094 0.475555 1.50254 0
M  V30 3335 C 332.342 -0.077738 2.0195 0
M  V30 3336 C 332.663 -1.39813 1.35931 0
M  V30 3337 O 331.933 -1.89249 0.506123 0
M  V30 3338 H 330.513 -0.031719 0.746326 0
M  V30 3339 H 333.175 0.626995 1.84539 0
M  V30 3340 H 332.271 -0.225995 3.11281 0
M  V30 3341 N 332.573 -1.56217 0.208337 0
M  V30 3342 C 333.803 -2.02043 -0.431523 0
M  V30 3343 C 334.211 -1.08755 -1.54819 0
M  V30 3344 O 333.554 -0.0870009 -1.83494 0
M  V30 3345 C 333.616 -3.44239 -1.03633 0
M  V30 3346 C 333.28 -4.56965 -0.0567502 0
M  V30 3347 C 334.277 -5.14624 0.738773 0
M  V30 3348 C 331.962 -5.02266 0.0581736 0
M  V30 3349 C 333.956 -6.16045 1.63605 0
M  V30 3350 C 331.643 -6.03528 0.959001 0
M  V30 3351 C 332.641 -6.60293 1.7465 0
M  V30 3352 O 332.329 -7.59586 2.6322 0
M  V30 3353 H 332.061 -0.666772 -0.111313 0
M  V30 3354 H 334.615 -2.02919 0.318277 0
M  V30 3355 H 332.845 -3.40391 -1.83497 0
M  V30 3356 H 334.534 -3.73793 -1.58221 0
M  V30 3357 H 335.3 -4.80483 0.660364 0
M  V30 3358 H 331.179 -4.57771 -0.544633 0
M  V30 3359 H 334.723 -6.60279 2.25116 0
M  V30 3360 H 330.62 -6.37092 1.03848 0
M  V30 3361 H 331.388 -7.77057 2.57148 0
M  V30 3362 N 334.051 0.0651679 -1.57465 0
M  V30 3363 C 335.297 0.764193 -1.87851 0
M  V30 3364 C 335.63 1.76889 -0.801495 0
M  V30 3365 O 334.905 1.93594 0.187528 0
M  V30 3366 C 335.188 1.46625 -3.28897 0
M  V30 3367 C 335.041 0.477515 -4.47258 0
M  V30 3368 C 336.36 2.4095 -3.68281 0
M  V30 3369 H 333.479 0.276351 -0.683227 0
M  V30 3370 H 336.121 0.0272868 -1.8998 0
M  V30 3371 H 334.271 2.09438 -3.27212 0
M  V30 3372 H 335.943 -0.145922 -4.61069 0
M  V30 3373 H 334.186 -0.206576 -4.33308 0
M  V30 3374 H 334.857 1.0065 -5.42746 0
M  V30 3375 H 337.333 1.88209 -3.71102 0
M  V30 3376 H 336.209 2.87072 -4.67847 0
M  V30 3377 H 336.47 3.26049 -2.98571 0
M  V30 3378 N 335.529 1.53961 0.336706 0
M  V30 3379 C 336.439 1.85432 1.43708 0
M  V30 3380 C 337.455 0.745053 1.57242 0
M  V30 3381 O 338.631 1.03804 1.72588 0
M  V30 3382 C 335.696 2.06349 2.78605 0
M  V30 3383 C 334.757 3.30191 2.74358 0
M  V30 3384 C 333.99 3.50101 4.02822 0
M  V30 3385 O 334.213 2.7371 5.00439 0
M  V30 3386 O 333.147 4.43547 4.06878 0
M  V30 3387 H 336.973 2.78975 1.20028 0
M  V30 3388 H 334.558 1.39701 0.52952 0
M  V30 3389 H 336.44 2.21513 3.58483 0
M  V30 3390 H 335.115 1.15995 3.02203 0
M  V30 3391 H 334.022 3.20425 1.93078 0
M  V30 3392 H 335.355 4.2056 2.55715 0
M  V30 3393 N 337.007 -0.598083 1.45811 0
M  V30 3394 C 338.255 -1.35413 1.50026 0
M  V30 3395 C 338.576 -1.94444 0.147177 0
M  V30 3396 O 337.846 -1.77701 -0.824571 0
M  V30 3397 H 336.426 -0.502727 0.552517 0
M  V30 3398 H 339.088 -0.701606 1.81834 0
M  V30 3399 H 338.184 -2.16871 2.2444 0
M  V30 3400 N 338.485 -1.33259 -0.841409 0
M  V30 3401 C 339.733 -1.24326 -1.59334 0
M  V30 3402 C 340.054 0.191564 -1.94057 0
M  V30 3403 O 339.324 1.11967 -1.60749 0
M  V30 3404 H 337.904 -0.457174 -0.590763 0
M  V30 3405 H 340.566 -1.66947 -1.00571 0
M  V30 3406 H 339.662 -1.8352 -2.52442 0
M  V30 3407 N 339.963 1.05934 -1.16686 0
M  V30 3408 C 340.91 2.13499 -0.876748 0
M  V30 3409 C 341.88 1.65162 0.176299 0
M  V30 3410 O 343.065 1.90757 0.0407143 0
M  V30 3411 C 340.205 3.42912 -0.387967 0
M  V30 3412 C 339.318 4.04964 -1.50426 0
M  V30 3413 C 338.453 5.22266 -0.970125 0
M  V30 3414 C 337.492 5.76309 -2.06238 0
M  V30 3415 N 336.629 6.84922 -1.54356 0
M  V30 3416 H 341.469 2.37654 -1.7979 0
M  V30 3417 H 339.006 1.16598 -0.896843 0
M  V30 3418 H 340.964 4.17111 -0.086186 0
M  V30 3419 H 339.594 3.18963 0.496235 0
M  V30 3420 H 338.646 3.28277 -1.92193 0
M  V30 3421 H 339.958 4.41122 -2.32836 0
M  V30 3422 H 339.112 6.03506 -0.621743 0
M  V30 3423 H 337.851 4.87564 -0.115377 0
M  V30 3424 H 336.856 4.93704 -2.41942 0
M  V30 3425 H 338.081 6.13062 -2.92115 0
M  V30 3426 H 336.027 6.52131 -0.711406 0
M  V30 3427 H 335.944 7.20043 -2.30379 0
M  V30 3428 H 337.212 7.69832 -1.22387 0
M  V30 3429 N 341.441 0.965919 1.2453 0
M  V30 3430 C 342.718 0.543777 1.87889 0
M  V30 3431 C 343.098 -0.97909 1.87021 0
M  V30 3432 O 342.446 -1.84969 1.3416 0
M  V30 3433 C 342.656 1.13327 3.30088 0
M  V30 3434 C 344.004 1.21707 4.06783 0
M  V30 3435 O 345.028 1.08566 3.39252 0
M  V30 3436 O 343.887 1.42456 5.27606 0
M  V30 3437 H 340.981 0.181054 0.806938 0
M  V30 3438 H 343.527 1.06007 1.32516 0
M  V30 3439 H 342.299 2.17612 3.25209 0
M  V30 3440 H 341.922 0.600911 3.93033 0
M  V30 3441 N 342.919 -1.39368 0.735821 0
M  V30 3442 C 343.882 -2.2896 0.104874 0
M  V30 3443 C 344.882 -1.46347 -0.666274 0
M  V30 3444 O 346.072 -1.67014 -0.49517 0
M  V30 3445 C 343.204 -3.29857 -0.860656 0
M  V30 3446 H 344.397 -2.86259 0.894205 0
M  V30 3447 H 341.95 -1.48029 0.501704 0
M  V30 3448 H 342.685 -2.77615 -1.67631 0
M  V30 3449 H 342.47 -3.9087 -0.310327 0
M  V30 3450 H 343.96 -3.96893 -1.29867 0
M  V30 3451 N 344.397 -0.483516 -1.5 0
M  V30 3452 C 345.637 0.0657469 -2.04294 0
M  V30 3453 C 346.001 1.35869 -1.35659 0
M  V30 3454 O 347.202 1.99111 -1.80578 0
M  V30 3455 C 345.473 0.232758 -3.56641 0
M  V30 3456 S 347.032 0.738788 -4.32536 0
M  V30 3457 H 343.85 0.0100755 -0.710929 0
M  V30 3458 H 346.452 -0.653494 -1.84254 0
M  V30 3459 H 345.156 -0.713847 -4.04144 0
M  V30 3460 H 344.687 0.977751 -3.81056 0
M  V30 3461 H 346.702 2.01048 -4.53645 0
M  V30 3462 N 345.875 1.56104 -0.216619 0
M  V30 3463 C 346.807 2.17339 0.72776 0
M  V30 3464 C 347.82 1.14109 1.16116 0
M  V30 3465 O 349.009 1.4111 1.09317 0
M  V30 3466 C 346.109 2.73818 1.99693 0
M  V30 3467 C 345.282 4.02168 1.71988 0
M  V30 3468 C 344.341 4.43259 2.83562 0
M  V30 3469 O 343.367 5.10257 2.52244 0
M  V30 3470 N 344.569 4.08535 4.12407 0
M  V30 3471 H 347.334 2.99005 0.203983 0
M  V30 3472 H 344.895 1.61861 -0.0354289 0
M  V30 3473 H 346.887 2.9828 2.73516 0
M  V30 3474 H 345.457 1.96483 2.43132 0
M  V30 3475 H 344.677 3.85612 0.818337 0
M  V30 3476 H 345.965 4.85907 1.50903 0
M  V30 3477 H 345.363 3.54687 4.40696 0
M  V30 3478 H 343.92 4.37901 4.8279 0
M  V30 3479 N 347.353 -0.0568162 1.57498 0
M  V30 3480 C 348.601 -0.751617 1.87604 0
M  V30 3481 C 348.922 -1.77351 0.81066 0
M  V30 3482 O 348.192 -1.95254 -0.159018 0
M  V30 3483 H 346.772 -0.280583 0.692302 0
M  V30 3484 H 349.434 -0.0293483 1.94878 0
M  V30 3485 H 348.53 -1.25852 2.856 0
M  V30 3486 N 348.832 -1.54138 -0.328536 0
M  V30 3487 C 350.109 -1.62749 -1.08499 0
M  V30 3488 C 350.489 -0.458198 -2.06067 0
M  V30 3489 O 349.837 0.548046 -2.2183 0
M  V30 3490 C 350.047 -2.99519 -1.79135 0
M  V30 3491 C 351.395 -3.55394 -2.32337 0
M  V30 3492 O 352.419 -3.01792 -1.89209 0
M  V30 3493 O 351.278 -4.49186 -3.11279 0
M  V30 3494 H 348.372 -0.65886 -0.499832 0
M  V30 3495 H 350.918 -1.66484 -0.328826 0
M  V30 3496 H 349.69 -3.76061 -1.08139 0
M  V30 3497 H 349.313 -2.99441 -2.61574 0
M  V30 3498 N 350.31 0.590341 -1.46126 0
M  V30 3499 C 351.535 1.37991 -1.54833 0
M  V30 3500 C 351.96 1.87163 -0.187506 0
M  V30 3501 O 351.318 1.61133 0.831008 0
M  V30 3502 C 351.366 2.54867 -2.55098 0
M  V30 3503 O 350.47 3.56061 -2.08073 0
M  V30 3504 H 349.811 0.411265 -0.521303 0
M  V30 3505 H 352.341 0.716819 -1.91632 0
M  V30 3506 H 352.351 3.01886 -2.74461 0
M  V30 3507 H 351.026 2.18429 -3.53923 0
M  V30 3508 H 349.603 3.15574 -1.98664 0
M  V30 3509 N 351.788 1.33704 0.83433 0
M  V30 3510 C 353.036 1.25169 1.58673 0
M  V30 3511 C 353.357 -0.18127 1.94156 0
M  V30 3512 O 352.627 -1.11113 1.6134 0
M  V30 3513 H 351.207 0.4603 0.58833 0
M  V30 3514 H 353.869 1.67478 0.996847 0
M  V30 3515 H 352.965 1.84856 2.51465 0
M  V30 3516 N 353.266 -1.05314 1.17247 0
M  V30 3517 C 354.514 -1.77941 0.958194 0
M  V30 3518 C 354.835 -1.88089 -0.514556 0
M  V30 3519 O 354.105 -1.39676 -1.37359 0
M  V30 3520 H 352.685 -0.659116 0.351533 0
M  V30 3521 H 355.347 -1.27166 1.47699 0
M  V30 3522 H 354.443 -2.79663 1.38546 0
M  V30 3523 N 354.744 -0.972509 -1.24016 0
M  V30 3524 C 356.155 -0.67517 -1.74064 0
M  V30 3525 C 356.506 0.808939 -1.78747 0
M  V30 3526 O 355.631 1.63286 -1.42009 0
M  V30 3527 C 356.226 -1.21889 -3.16115 0
M  V30 3528 C 354.785 -0.971358 -3.6365 0
M  V30 3529 C 353.932 -1.35134 -2.42145 0
M  V30 3530 H 356.883 -1.14727 -1.09651 0
M  V30 3531 H 356.904 -0.587489 -3.75937 0
M  V30 3532 H 356.416 -2.29906 -3.12674 0
M  V30 3533 H 354.517 0.0930686 -3.72484 0
M  V30 3534 H 354.63 -1.62039 -4.50866 0
M  V30 3535 H 352.994 -0.769751 -2.4279 0
M  V30 3536 H 353.777 -2.4411 -2.41381 0
M  V30 3537 N 356.222 1.38976 -0.743202 0
M  V30 3538 C 357.152 2.33171 -0.123873 0
M  V30 3539 C 358.133 1.54336 0.71516 0
M  V30 3540 O 359.318 1.82696 0.658467 0
M  V30 3541 C 356.448 3.38474 0.777978 0
M  V30 3542 C 355.402 4.27979 0.0424758 0
M  V30 3543 C 354.728 5.2405 1.06189 0
M  V30 3544 C 356.028 5.10155 -1.1198 0
M  V30 3545 H 357.722 2.85213 -0.910709 0
M  V30 3546 H 355.268 1.37133 -0.439388 0
M  V30 3547 H 357.221 4.03328 1.22084 0
M  V30 3548 H 355.945 2.84891 1.59702 0
M  V30 3549 H 354.604 3.64616 -0.380853 0
M  V30 3550 H 354.252 4.66758 1.87472 0
M  V30 3551 H 353.952 5.84785 0.574485 0
M  V30 3552 H 355.476 5.9178 1.50428 0
M  V30 3553 H 356.89 5.68307 -0.75499 0
M  V30 3554 H 355.287 5.80073 -1.53738 0
M  V30 3555 H 356.357 4.44504 -1.93764 0
M  V30 3556 N 357.7 0.491464 1.49741 0
M  V30 3557 C 358.925 -0.0557177 2.07325 0
M  V30 3558 C 359.35 -1.30925 1.35056 0
M  V30 3559 O 358.708 -1.76733 0.404365 0
M  V30 3560 C 358.756 -0.302074 3.59333 0
M  V30 3561 O 357.86 -1.37868 3.88672 0
M  V30 3562 H 357.201 0.0219956 0.663636 0
M  V30 3563 H 359.731 0.688352 1.92673 0
M  V30 3564 H 359.741 -0.536464 4.04458 0
M  V30 3565 H 358.416 0.61383 4.11345 0
M  V30 3566 H 356.993 -1.12999 3.55367 0
M  V30 3567 N 359.178 -1.55987 0.224894 0
M  V30 3568 C 360.418 -2.00293 -0.407706 0
M  V30 3569 C 360.782 -1.1093 -1.56711 0
M  V30 3570 O 361.983 -1.44597 -2.26595 0
M  V30 3571 C 360.254 -3.47675 -0.82805 0
M  V30 3572 S 361.813 -4.14 -1.45429 0
M  V30 3573 H 358.631 -0.699152 -0.129256 0
M  V30 3574 H 361.233 -1.92609 0.334967 0
M  V30 3575 H 359.937 -4.10392 0.0253964 0
M  V30 3576 H 359.468 -3.59239 -1.60345 0
M  V30 3577 H 361.483 -4.13465 -2.74337 0
M  V30 3578 N 360.656 0.0484629 -1.57525 0
M  V30 3579 C 362.067 0.597486 -1.76881 0
M  V30 3580 C 362.418 1.76664 -0.853475 0
M  V30 3581 O 361.543 2.16357 -0.0433656 0
M  V30 3582 C 362.138 1.09066 -3.20765 0
M  V30 3583 C 360.697 1.58535 -3.41385 0
M  V30 3584 C 359.844 0.514868 -2.72478 0
M  V30 3585 H 362.795 -0.177758 -1.57701 0
M  V30 3586 H 362.816 1.95875 -3.2621 0
M  V30 3587 H 362.328 0.239521 -3.8736 0
M  V30 3588 H 360.429 2.45898 -2.79937 0
M  V30 3589 H 360.542 1.64622 -4.49929 0
M  V30 3590 H 358.906 0.965407 -2.35695 0
M  V30 3591 H 359.689 -0.32648 -3.41744 0
M  V30 3592 N 362.134 1.5431 0.320358 0
M  V30 3593 C 363.38 1.72924 1.05949 0
M  V30 3594 C 363.713 0.503185 1.87568 0
M  V30 3595 O 362.988 -0.499839 1.87968 0
M  V30 3596 C 363.271 3.00676 1.98156 0
M  V30 3597 C 363.124 4.3354 1.19845 0
M  V30 3598 C 364.443 3.24198 2.9763 0
M  V30 3599 H 361.562 0.629195 0.383774 0
M  V30 3600 H 364.204 1.87008 0.335854 0
M  V30 3601 H 362.354 2.888 2.59859 0
M  V30 3602 H 364.026 4.57305 0.605773 0
M  V30 3603 H 362.269 4.309 0.500784 0
M  V30 3604 H 362.94 5.19156 1.87567 0
M  V30 3605 H 365.416 3.35557 2.4605 0
M  V30 3606 H 364.292 4.14938 3.59329 0
M  V30 3607 H 364.553 2.41577 3.7026 0
M  V30 3608 N 363.613 -0.582584 1.46437 0
M  V30 3609 C 364.523 -1.71949 1.59595 0
M  V30 3610 C 365.539 -1.67264 0.479443 0
M  V30 3611 O 366.715 -1.87171 0.743579 0
M  V30 3612 C 363.78 -3.08452 1.58298 0
M  V30 3613 C 362.841 -3.244 2.81182 0
M  V30 3614 C 362.074 -4.54391 2.79937 0
M  V30 3615 O 362.297 -5.38287 1.8869 0
M  V30 3616 O 361.231 -4.73588 3.71481 0
M  V30 3617 H 365.057 -1.63795 2.55744 0
M  V30 3618 H 362.642 -0.749643 1.29231 0
M  V30 3619 H 364.524 -3.89732 1.60271 0
M  V30 3620 H 363.199 -3.17043 0.653094 0
M  V30 3621 H 362.106 -2.42613 2.84763 0
M  V30 3622 H 363.439 -3.20699 3.7338 0
M  V30 3623 N 365.091 -1.34144 -0.827227 0
M  V30 3624 C 366.339 -1.26009 -1.58007 0
M  V30 3625 C 366.66 0.170971 -1.94249 0
M  V30 3626 O 365.93 1.10256 -1.61927 0
M  V30 3627 H 364.51 -0.463414 -0.585881 0
M  V30 3628 H 367.172 -1.68005 -0.987951 0
M  V30 3629 H 366.268 -1.86187 -2.50481 0
M  V30 3630 N 366.569 1.04691 -1.17803 0
M  V30 3631 C 367.499 2.14494 -0.92275 0
M  V30 3632 C 368.48 1.69546 0.137179 0
M  V30 3633 O 369.665 1.94195 -0.0141108 0
M  V30 3634 C 366.795 3.44491 -0.440803 0
M  V30 3635 C 365.749 4.03031 -1.4405 0
M  V30 3636 C 365.075 5.28432 -0.81631 0
M  V30 3637 C 366.375 4.39932 -2.81527 0
M  V30 3638 H 368.069 2.36107 -1.84103 0
M  V30 3639 H 365.615 1.1347 -0.886599 0
M  V30 3640 H 367.568 4.2066 -0.249602 0
M  V30 3641 H 366.292 3.22546 0.513025 0
M  V30 3642 H 364.951 3.28937 -1.61853 0
M  V30 3643 H 364.599 5.02792 0.144511 0
M  V30 3644 H 364.299 5.68559 -1.48371 0
M  V30 3645 H 365.823 6.07284 -0.635496 0
M  V30 3646 H 367.237 5.07113 -2.67412 0
M  V30 3647 H 365.634 4.9109 -3.44892 0
M  V30 3648 H 366.704 3.50045 -3.35554 0
M  V30 3649 N 368.047 0.979072 1.23499 0
M  V30 3650 C 369.293 0.6578 1.9247 0
M  V30 3651 C 369.648 -0.799746 1.74991 0
M  V30 3652 O 368.941 -1.56922 1.09937 0
M  V30 3653 C 369.135 0.981932 3.43646 0
M  V30 3654 C 368.964 2.46944 3.75831 0
M  V30 3655 C 367.734 3.13119 3.96591 0
M  V30 3656 C 369.932 3.45006 3.81412 0
M  V30 3657 N 367.914 4.51489 4.15969 0
M  V30 3658 C 369.285 4.68778 4.05768 0
M  V30 3659 C 371.34 3.39505 3.64198 0
M  V30 3660 C 370.043 5.87723 4.14697 0
M  V30 3661 C 372.069 4.57814 3.7438 0
M  V30 3662 C 371.431 5.80381 3.99171 0
M  V30 3663 H 367.53 0.291746 0.72554 0
M  V30 3664 H 370.114 1.25626 1.48749 0
M  V30 3665 H 368.285 0.412179 3.86207 0
M  V30 3666 H 370.017 0.618068 3.99953 0
M  V30 3667 H 366.772 2.63619 3.93449 0
M  V30 3668 H 367.196 5.23221 4.29615 0
M  V30 3669 H 371.838 2.45773 3.44029 0
M  V30 3670 H 369.556 6.81874 4.33675 0
M  V30 3671 H 373.142 4.55132 3.62417 0
M  V30 3672 H 372.022 6.70398 4.06861 0
M  V30 3673 N 369.525 -1.3858 0.750561 0
M  V30 3674 C 370.755 -2.04175 0.31564 0
M  V30 3675 C 371.163 -1.56726 -1.05989 0
M  V30 3676 O 370.506 -0.734225 -1.68389 0
M  V30 3677 C 370.568 -3.58585 0.256389 0
M  V30 3678 C 370.232 -4.29077 1.57296 0
M  V30 3679 C 371.229 -4.54656 2.52159 0
M  V30 3680 C 368.914 -4.67324 1.84156 0
M  V30 3681 C 370.908 -5.17512 3.72103 0
M  V30 3682 C 368.595 -5.29905 3.04374 0
M  V30 3683 C 369.593 -5.54933 3.98168 0
M  V30 3684 O 369.281 -6.16212 5.16273 0
M  V30 3685 H 369.013 -0.662742 0.133226 0
M  V30 3686 H 371.567 -1.78313 1.01948 0
M  V30 3687 H 369.797 -3.83406 -0.503677 0
M  V30 3688 H 371.486 -4.05628 -0.148612 0
M  V30 3689 H 372.252 -4.25539 2.32683 0
M  V30 3690 H 368.131 -4.47191 1.11988 0
M  V30 3691 H 371.675 -5.36963 4.45327 0
M  V30 3692 H 367.572 -5.58444 3.23745 0
M  V30 3693 H 368.34 -6.34701 5.16815 0
M  V30 3694 N 371.003 -0.499398 -1.49478 0
M  V30 3695 C 371.933 0.269244 -2.31943 0
M  V30 3696 C 372.914 0.964054 -1.40143 0
M  V30 3697 O 374.099 0.955767 -1.69052 0
M  V30 3698 C 371.229 1.33504 -3.20615 0
M  V30 3699 C 370.183 0.760202 -4.21195 0
M  V30 3700 C 369.509 1.9264 -4.98792 0
M  V30 3701 C 370.809 -0.247661 -5.21712 0
M  V30 3702 H 372.503 -0.419082 -2.96452 0
M  V30 3703 H 370.049 -0.202988 -1.42562 0
M  V30 3704 H 372.002 1.88048 -3.77115 0
M  V30 3705 H 370.726 2.05253 -2.54045 0
M  V30 3706 H 369.385 0.23653 -3.65836 0
M  V30 3707 H 369.033 2.63154 -4.28671 0
M  V30 3708 H 368.733 1.54785 -5.66847 0
M  V30 3709 H 370.257 2.4762 -5.58137 0
M  V30 3710 H 371.671 0.209579 -5.72917 0
M  V30 3711 H 370.068 -0.541962 -5.97648 0
M  V30 3712 H 371.138 -1.16409 -4.7072 0
M  V30 3713 N 372.481 1.55866 -0.233164 0
M  V30 3714 C 373.709 2.02998 0.399905 0
M  V30 3715 C 374.124 1.11274 1.52524 0
M  V30 3716 O 373.481 0.124528 1.82075 0
M  V30 3717 C 373.532 3.4958 0.920639 0
M  V30 3718 O 373.253 4.37808 -0.159834 0
M  V30 3719 C 374.754 4.12411 1.62578 0
M  V30 3720 H 371.974 0.664006 0.0966281 0
M  V30 3721 H 374.518 2.0143 -0.353013 0
M  V30 3722 H 372.673 3.51727 1.62379 0
M  V30 3723 H 373.087 5.23981 0.23337 0
M  V30 3724 H 374.561 5.16711 1.94201 0
M  V30 3725 H 375.038 3.5809 2.54299 0
M  V30 3726 H 375.644 4.14148 0.967553 0
M  V30 3727 N 373.959 -0.0401083 1.57549 0
M  V30 3728 C 375.207 -0.731677 1.8839 0
M  V30 3729 C 375.528 -1.76481 0.829425 0
M  V30 3730 O 374.798 -1.95411 -0.1383 0
M  V30 3731 H 373.378 -0.273225 0.695239 0
M  V30 3732 H 376.04 -0.00867725 1.94898 0
M  V30 3733 H 375.136 -1.22816 2.86919 0
M  V30 3734 N 375.437 -1.54477 -0.31217 0
M  V30 3735 C 376.686 -1.72438 -1.04633 0
M  V30 3736 C 376.999 -0.511163 -1.88803 0
M  V30 3737 O 378.205 -0.572341 -2.65399 0
M  V30 3738 C 376.661 -3.05043 -1.9099 0
M  V30 3739 C 376.269 -4.33806 -1.11877 0
M  V30 3740 C 378.013 -3.32364 -2.64073 0
M  V30 3741 C 375.92 -5.57467 -1.97445 0
M  V30 3742 H 374.85 -0.642647 -0.394361 0
M  V30 3743 H 377.501 -1.80966 -0.303929 0
M  V30 3744 H 375.883 -2.90451 -2.69173 0
M  V30 3745 H 377.057 -4.59199 -0.383843 0
M  V30 3746 H 375.372 -4.13336 -0.504252 0
M  V30 3747 H 377.969 -4.21951 -3.28423 0
M  V30 3748 H 378.312 -2.50745 -3.32314 0
M  V30 3749 H 378.845 -3.47875 -1.92944 0
M  V30 3750 H 375.584 -6.41722 -1.33692 0
M  V30 3751 H 375.104 -5.36277 -2.6864 0
M  V30 3752 H 376.783 -5.94303 -2.5576 0
M  V30 3753 N 376.915 0.57481 -1.46744 0
M  V30 3754 C 378.161 1.3347 -1.52688 0
M  V30 3755 C 378.494 1.93353 -0.181229 0
M  V30 3756 O 377.769 1.76912 0.808237 0
M  V30 3757 C 378.052 2.45811 -2.63152 0
M  V30 3758 C 377.905 1.90912 -4.07275 0
M  V30 3759 C 379.224 3.47822 -2.69644 0
M  V30 3760 H 376.343 0.483935 -0.555856 0
M  V30 3761 H 378.985 0.644968 -1.78718 0
M  V30 3762 H 377.135 3.04646 -2.41088 0
M  V30 3763 H 378.807 1.36473 -4.4065 0
M  V30 3764 H 377.05 1.21691 -4.16382 0
M  V30 3765 H 377.721 2.72042 -4.80309 0
M  V30 3766 H 380.197 2.9888 -2.895 0
M  V30 3767 H 379.073 4.23876 -3.48742 0
M  V30 3768 H 379.334 4.05555 -1.76005 0
M  V30 3769 N 378.394 1.34581 0.820102 0
M  V30 3770 C 379.619 1.30333 1.61332 0
M  V30 3771 C 380.044 -0.119339 1.87721 0
M  V30 3772 O 379.402 -1.08197 1.45475 0
M  V30 3773 C 379.45 2.10258 2.92957 0
M  V30 3774 O 378.554 1.47404 3.85157 0
M  V30 3775 H 377.895 0.447488 0.490561 0
M  V30 3776 H 380.425 1.77425 1.01889 0
M  V30 3777 H 380.435 2.21718 3.42498 0
M  V30 3778 H 379.11 3.13693 2.73074 0
M  V30 3779 H 377.687 1.44703 3.43679 0
M  V30 3780 N 379.872 -1.04064 1.18357 0
M  V30 3781 C 381.118 -1.77658 0.990412 0
M  V30 3782 C 381.473 -1.86446 -0.474944 0
M  V30 3783 O 380.766 -1.36153 -1.34807 0
M  V30 3784 C 380.96 -3.20634 1.57888 0
M  V30 3785 C 380.789 -3.25782 3.09994 0
M  V30 3786 C 379.559 -3.34411 3.7881 0
M  V30 3787 C 381.757 -3.13791 4.0748 0
M  V30 3788 N 379.739 -3.28809 5.18418 0
M  V30 3789 C 381.11 -3.15689 5.33611 0
M  V30 3790 C 383.165 -2.97833 3.98998 0
M  V30 3791 C 381.868 -3.03268 6.52243 0
M  V30 3792 C 383.894 -2.86759 5.17227 0
M  V30 3793 C 383.256 -2.893 6.4225 0
M  V30 3794 H 379.355 -0.661901 0.416427 0
M  V30 3795 H 381.939 -1.23968 1.50133 0
M  V30 3796 H 380.11 -3.7267 1.09414 0
M  V30 3797 H 381.842 -3.82525 1.32124 0
M  V30 3798 H 378.597 -3.40144 3.29543 0
M  V30 3799 H 379.021 -3.29448 5.91433 0
M  V30 3800 H 383.663 -2.94698 3.03171 0
M  V30 3801 H 381.381 -3.05156 7.48268 0
M  V30 3802 H 384.967 -2.75465 5.12455 0
M  V30 3803 H 383.847 -2.80818 7.32196 0
M  V30 3804 N 381.35 -0.985608 -1.22978 0
M  V30 3805 C 382.598 -0.656087 -1.91154 0
M  V30 3806 C 382.919 0.813561 -1.77218 0
M  V30 3807 O 382.189 1.58244 -1.1548 0
M  V30 3808 H 380.769 -0.239674 -0.707506 0
M  V30 3809 H 383.431 -1.25054 -1.49491 0
M  V30 3810 H 382.527 -0.912253 -2.9847 0
M  V30 3811 N 382.828 1.3818 -0.7579 0
M  V30 3812 C 384.105 1.94106 -0.241306 0
M  V30 3813 C 384.485 1.69282 1.26122 0
M  V30 3814 O 383.833 1.03378 2.03777 0
M  V30 3815 C 384.043 3.43809 -0.59967 0
M  V30 3816 C 385.391 4.20868 -0.561717 0
M  V30 3817 O 386.415 3.5211 -0.538222 0
M  V30 3818 O 385.274 5.43451 -0.576478 0
M  V30 3819 H 382.368 0.825376 -0.0518042 0
M  V30 3820 H 384.914 1.47548 -0.838315 0
M  V30 3821 H 383.686 3.55403 -1.6372 0
M  V30 3822 H 383.309 3.97592 0.0251197 0
M  V30 3823 N 384.306 0.507319 1.49211 0
M  V30 3824 C 385.269 -0.256763 2.27757 0
M  V30 3825 C 386.269 -0.888287 1.34038 0
M  V30 3826 O 387.459 -0.751841 1.5714 0
M  V30 3827 C 384.591 -1.36905 3.12202 0
M  V30 3828 H 385.784 0.432557 2.96764 0
M  V30 3829 H 383.337 0.262488 1.5408 0
M  V30 3830 H 384.072 -2.09233 2.47775 0
M  V30 3831 H 383.857 -0.921599 3.81115 0
M  V30 3832 H 385.347 -1.9071 3.7151 0
M  V30 3833 N 385.784 -1.5574 0.241426 0
M  V30 3834 C 387.024 -2.00714 -0.38644 0
M  V30 3835 C 387.388 -1.12586 -1.55526 0
M  V30 3836 O 388.589 -1.46992 -2.25048 0
M  V30 3837 C 386.86 -3.48534 -0.791128 0
M  V30 3838 S 388.419 -4.15519 -1.41029 0
M  V30 3839 H 385.237 -0.700484 -0.121834 0
M  V30 3840 H 387.839 -1.92243 0.355377 0
M  V30 3841 H 386.543 -4.10342 0.0689225 0
M  V30 3842 H 386.074 -3.6092 -1.56526 0
M  V30 3843 H 388.089 -4.16352 -2.69936 0
M  V30 3844 N 387.262 0.0317525 -1.57568 0
M  V30 3845 C 388.51 0.721676 -1.88776 0
M  V30 3846 C 388.831 1.76039 -0.838772 0
M  V30 3847 O 388.101 1.95482 0.127935 0
M  V30 3848 H 386.681 0.269534 -0.696678 0
M  V30 3849 H 389.343 -0.00165879 -1.949 0
M  V30 3850 H 388.439 1.21293 -2.87566 0
M  V30 3851 N 388.74 1.54641 0.303973 0
M  V30 3852 C 389.703 1.84646 1.35789 0
M  V30 3853 C 390.703 0.7192 1.4382 0
M  V30 3854 O 391.893 0.987491 1.43507 0
M  V30 3855 C 389.025 2.02407 2.74307 0
M  V30 3856 H 390.218 2.78829 1.10429 0
M  V30 3857 H 387.771 1.46658 0.540487 0
M  V30 3858 H 388.506 1.10502 3.04893 0
M  V30 3859 H 388.291 2.84453 2.69868 0
M  V30 3860 H 389.781 2.27002 3.50514 0
M  V30 3861 N 390.218 -0.567019 1.47046 0
M  V30 3862 C 391.634 -0.891975 1.32348 0
M  V30 3863 C 391.834 -1.99154 0.306616 0
M  V30 3864 O 390.89 -2.50883 -0.28532 0
M  V30 3865 C 392.203 -1.29449 2.7141 0
M  V30 3866 C 393.751 -1.40646 2.79621 0
M  V30 3867 C 394.226 -1.84257 4.19301 0
M  V30 3868 N 395.717 -1.91424 4.21795 0
M  V30 3869 C 396.452 -2.26476 5.26779 0
M  V30 3870 N 395.948 -2.60211 6.42077 0
M  V30 3871 N 397.741 -2.27166 5.14152 0
M  V30 3872 H 389.892 0.159074 2.11803 0
M  V30 3873 H 392.155 0.00849752 0.947962 0
M  V30 3874 H 391.861 -0.560448 3.47206 0
M  V30 3875 H 391.735 -2.25273 3.02542 0
M  V30 3876 H 394.122 -2.13133 2.04104 0
M  V30 3877 H 394.203 -0.430339 2.52154 0
M  V30 3878 H 393.847 -1.12343 4.95319 0
M  V30 3879 H 393.777 -2.82855 4.44185 0
M  V30 3880 H 396.268 -1.6778 3.38612 0
M  V30 3881 H 396.581 -2.85956 7.17948 0
M  V30 3882 H 394.926 -2.57813 6.45413 0
M  V30 3883 H 398.117 -2.00244 4.23107 0
M  V30 3884 H 398.29 -2.54154 5.96079 0
M  V30 3885 N 391.696 -1.35014 -0.812953 0
M  V30 3886 C 392.644 -1.27435 -1.94585 0
M  V30 3887 C 393.638 -0.170494 -1.6854 0
M  V30 3888 O 394.844 -0.336085 -1.76835 0
M  V30 3889 H 391.219 -0.396144 -0.639198 0
M  V30 3890 H 393.19 -2.23158 -1.98098 0
M  V30 3891 C 391.939 -1.05677 -3.31252 0
M  V30 3892 H 391.262 -1.89853 -3.51846 0
M  V30 3893 H 392.702 -1.04413 -4.10943 0
M  V30 3894 C 391.161 0.239615 -3.36047 0
M  V30 3895 O 391.691 1.23759 -3.8216 0
M  V30 3896 N 389.897 0.276186 -2.89285 0
M  V30 3897 H 389.444 -0.53653 -2.51951 0
M  V30 3898 H 389.402 1.14332 -2.92875 0
M  V30 3899 N 393.175 1.03435 -1.18907 0
M  V30 3900 C 394.591 1.28973 -0.940111 0
M  V30 3901 C 394.791 1.97676 0.390691 0
M  V30 3902 O 393.847 2.26127 1.12352 0
M  V30 3903 C 395.16 2.14221 -2.11021 0
M  V30 3904 C 396.708 2.27547 -2.14922 0
M  V30 3905 C 397.183 3.16164 -3.31367 0
M  V30 3906 N 398.674 3.23752 -3.31269 0
M  V30 3907 C 399.409 3.92495 -4.18014 0
M  V30 3908 N 398.905 4.63515 -5.14904 0
M  V30 3909 N 400.698 3.88838 -4.05908 0
M  V30 3910 H 392.849 0.57252 -2.04538 0
M  V30 3911 H 395.112 0.315184 -0.894071 0
M  V30 3912 H 394.818 1.71054 -3.073 0
M  V30 3913 H 394.692 3.14919 -2.0762 0
M  V30 3914 H 397.079 2.69947 -1.19217 0
M  V30 3915 H 397.16 1.26418 -2.22378 0
M  V30 3916 H 396.804 2.74474 -4.27348 0
M  V30 3917 H 396.734 4.17339 -3.21148 0
M  V30 3918 H 399.225 2.73167 -2.61129 0
M  V30 3919 H 399.538 5.13583 -5.77453 0
M  V30 3920 H 397.883 4.62398 -5.18857 0
M  V30 3921 H 401.074 3.32491 -3.29495 0
M  V30 3922 H 401.247 4.4214 -4.73726 0
M  V30 3923 N 394.653 0.992116 1.22453 0
M  V30 3924 C 396.064 0.702776 1.72968 0
M  V30 3925 C 396.415 -0.780399 1.80012 0
M  V30 3926 O 395.54 -1.61007 1.44589 0
M  V30 3927 C 396.135 1.26903 3.14135 0
M  V30 3928 C 394.694 1.02909 3.62059 0
M  V30 3929 C 393.841 1.38969 2.39964 0
M  V30 3930 H 396.792 1.16457 1.07812 0
M  V30 3931 H 396.813 0.647223 3.74955 0
M  V30 3932 H 396.325 2.34851 3.08977 0
M  V30 3933 H 394.426 -0.0337979 3.72585 0
M  V30 3934 H 394.539 1.69191 4.48231 0
M  V30 3935 H 392.903 0.808279 2.41535 0
M  V30 3936 H 393.686 2.4792 2.37467 0
M  V30 3937 N 396.131 -1.37776 0.765217 0
M  V30 3938 C 397.379 -1.99454 0.325943 0
M  V30 3939 C 397.7 -1.61049 -1.09947 0
M  V30 3940 O 396.97 -0.872821 -1.75381 0
M  V30 3941 H 395.55 -0.737697 0.117525 0
M  V30 3942 H 398.212 -1.68359 0.981895 0
M  V30 3943 H 397.308 -3.09547 0.398353 0
M  V30 3944 N 397.609 -0.515225 -1.4894 0
M  V30 3945 C 398.855 0.0242508 -2.02785 0
M  V30 3946 C 399.188 1.35323 -1.39289 0
M  V30 3947 O 398.463 1.87041 -0.533469 0
M  V30 3948 C 398.746 0.16184 -3.59736 0
M  V30 3949 C 398.599 -1.19127 -4.33738 0
M  V30 3950 C 399.918 0.895719 -4.30888 0
M  V30 3951 H 397.037 0.00733914 -0.736963 0
M  V30 3952 H 399.679 -0.669395 -1.77818 0
M  V30 3953 H 397.829 0.752624 -3.8114 0
M  V30 3954 H 399.501 -1.82202 -4.23792 0
M  V30 3955 H 397.744 -1.77695 -3.95736 0
M  V30 3956 H 398.415 -1.04815 -5.41957 0
M  V30 3957 H 400.891 0.394528 -4.14225 0
M  V30 3958 H 399.767 0.960859 -5.40425 0
M  V30 3959 H 400.028 1.9427 -3.97129 0
M  V30 3960 N 399.087 1.5561 -0.249682 0
M  V30 3961 C 400.317 2.03116 0.377803 0
M  V30 3962 C 400.725 1.12822 1.51881 0
M  V30 3963 O 400.068 0.13562 1.83199 0
M  V30 3964 C 400.13 3.46866 0.944693 0
M  V30 3965 C 399.794 4.56955 -0.0644259 0
M  V30 3966 C 400.791 5.12485 -0.874957 0
M  V30 3967 C 398.476 5.01936 -0.19132 0
M  V30 3968 C 400.47 6.11491 -1.79881 0
M  V30 3969 C 398.157 6.00773 -1.11868 0
M  V30 3970 C 399.155 6.5543 -1.92095 0
M  V30 3971 O 398.843 7.5234 -2.83267 0
M  V30 3972 H 398.575 0.669489 0.0935961 0
M  V30 3973 H 401.129 2.02004 -0.371966 0
M  V30 3974 H 399.359 3.45136 1.74407 0
M  V30 3975 H 401.048 3.77856 1.48255 0
M  V30 3976 H 401.814 4.78564 -0.787523 0
M  V30 3977 H 397.693 4.59055 0.423072 0
M  V30 3978 H 401.237 6.54078 -2.42543 0
M  V30 3979 H 397.134 6.34114 -1.20703 0
M  V30 3980 H 397.902 7.69966 -2.7766 0
M  V30 3981 N 400.565 -0.0233959 1.57583 0
M  V30 3982 C 401.793 -0.724682 1.93794 0
M  V30 3983 C 402.208 -1.68588 0.849912 0
M  V30 3984 O 401.565 -1.81676 -0.173204 0
M  V30 3985 C 401.616 -1.47684 3.29957 0
M  V30 3986 O 401.337 -0.554222 4.3458 0
M  V30 3987 C 402.838 -2.27477 3.80485 0
M  V30 3988 H 400.058 -0.203317 0.639455 0
M  V30 3989 H 402.602 0.0207653 2.04489 0
M  V30 3990 H 400.757 -2.17412 3.20641 0
M  V30 3991 H 401.171 -1.08232 5.13212 0
M  V30 3992 H 402.645 -2.7564 4.78254 0
M  V30 3993 H 403.122 -3.09144 3.11972 0
M  V30 3994 H 403.728 -1.62813 3.92902 0
M  V30 3995 N 402.043 -1.548 -0.295768 0
M  V30 3996 C 402.973 -1.89115 -1.36959 0
M  V30 3997 C 403.954 -0.75059 -1.52644 0
M  V30 3998 O 405.139 -1.00678 -1.66065 0
M  V30 3999 C 402.269 -2.14307 -2.73295 0
M  V30 4000 C 401.223 -3.30151 -2.72368 0
M  V30 4001 C 400.549 -3.40772 -4.12042 0
M  V30 4002 C 401.849 -4.67126 -2.33646 0
M  V30 4003 H 403.543 -2.79053 -1.08488 0
M  V30 4004 H 401.089 -1.34266 -0.520443 0
M  V30 4005 H 403.042 -2.36898 -3.48507 0
M  V30 4006 H 401.766 -1.21145 -3.03301 0
M  V30 4007 H 400.425 -3.0749 -1.99613 0
M  V30 4008 H 400.073 -2.45117 -4.39234 0
M  V30 4009 H 399.773 -4.18645 -4.12322 0
M  V30 4010 H 401.297 -3.6563 -4.89027 0
M  V30 4011 H 402.711 -4.89414 -2.98575 0
M  V30 4012 H 401.108 -5.47751 -2.45129 0
M  V30 4013 H 402.178 -4.67489 -1.28772 0
M  V30 4014 N 403.521 0.559213 -1.47345 0
M  V30 4015 C 404.484 1.64854 -1.59235 0
M  V30 4016 C 405.484 1.53851 -0.467607 0
M  V30 4017 O 406.674 1.58045 -0.732617 0
M  V30 4018 C 403.806 3.04388 -1.53496 0
M  V30 4019 H 404.999 1.55662 -2.56339 0
M  V30 4020 H 402.552 0.778973 -1.35505 0
M  V30 4021 H 403.287 3.19115 -0.577604 0
M  V30 4022 H 403.072 3.13783 -2.35123 0
M  V30 4023 H 404.562 3.83642 -1.6495 0
M  V30 4024 N 404.999 1.35443 0.805782 0
M  V30 4025 C 406.224 1.32037 1.59941 0
M  V30 4026 C 406.649 -0.0994215 1.87837 0
M  V30 4027 O 406.007 -1.06648 1.46615 0
M  V30 4028 C 406.055 2.13354 2.90711 0
M  V30 4029 O 405.159 1.5148 3.83572 0
M  V30 4030 H 404.5 0.452666 0.485787 0
M  V30 4031 H 407.03 1.78496 1.00002 0
M  V30 4032 H 407.04 2.25338 3.40128 0
M  V30 4033 H 405.715 3.16572 2.69732 0
M  V30 4034 H 404.292 1.4834 3.42125 0
M  V30 4035 N 406.477 -1.02803 1.19454 0
M  V30 4036 C 407.702 -1.80378 1.02364 0
M  V30 4037 C 408.127 -1.83282 -0.423007 0
M  V30 4038 O 407.485 -1.25945 -1.30413 0
M  V30 4039 C 407.533 -3.23248 1.59821 0
M  V30 4040 O 406.637 -4.04 0.828105 0
M  V30 4041 H 405.978 -0.556799 0.361761 0
M  V30 4042 H 408.508 -1.29385 1.58495 0
M  V30 4043 H 408.518 -3.73994 1.63073 0
M  V30 4044 H 407.193 -3.2045 2.65113 0
M  V30 4045 H 405.77 -3.62635 0.86891 0
M  V30 4046 N 407.956 -0.998596 -1.21925 0
M  V30 4047 C 409.186 -0.695276 -1.94549 0
M  V30 4048 C 409.594 0.745079 -1.73911 0
M  V30 4049 O 408.937 1.51507 -1.03881 0
M  V30 4050 C 408.999 -0.928485 -3.47303 0
M  V30 4051 C 408.663 -2.35443 -3.91683 0
M  V30 4052 C 409.66 -3.33428 -3.98901 0
M  V30 4053 C 407.345 -2.69038 -4.24174 0
M  V30 4054 C 409.339 -4.63079 -4.37992 0
M  V30 4055 C 407.026 -3.98906 -4.62944 0
M  V30 4056 C 408.024 -4.95738 -4.69822 0
M  V30 4057 O 407.712 -6.23285 -5.07711 0
M  V30 4058 H 407.444 -0.255902 -0.625692 0
M  V30 4059 H 409.998 -1.33767 -1.5587 0
M  V30 4060 H 408.228 -0.228917 -3.86022 0
M  V30 4061 H 409.917 -0.619539 -4.01144 0
M  V30 4062 H 410.683 -3.08807 -3.73983 0
M  V30 4063 H 406.562 -1.94367 -4.18022 0
M  V30 4064 H 410.106 -5.38658 -4.43275 0
M  V30 4065 H 406.003 -4.23314 -4.87314 0
M  V30 4066 H 406.771 -6.27306 -5.25766 0
M  V30 4067 N 409.434 1.37368 -0.772513 0
M  V30 4068 C 410.397 2.28601 -0.165541 0
M  V30 4069 C 411.397 1.48062 0.627238 0
M  V30 4070 O 412.587 1.68268 0.450715 0
M  V30 4071 C 409.719 3.32023 0.772897 0
M  V30 4072 H 410.912 2.83787 -0.969787 0
M  V30 4073 H 408.465 1.46647 -0.540775 0
M  V30 4074 H 409.2 2.81962 1.60212 0
M  V30 4075 H 408.985 3.91555 0.206585 0
M  V30 4076 H 410.475 4.00197 1.19298 0
M  V30 4077 N 410.912 0.523116 1.48665 0
M  V30 4078 C 412.137 -0.0117284 2.07397 0
M  V30 4079 C 412.562 -1.28031 1.37803 0
M  V30 4080 O 411.92 -1.75836 0.441762 0
M  V30 4081 C 411.968 -0.225786 3.59892 0
M  V30 4082 O 411.072 -1.29592 3.91509 0
M  V30 4083 H 410.413 0.0360673 0.66302 0
M  V30 4084 H 412.943 0.729066 1.9117 0
M  V30 4085 H 412.953 -0.450552 4.05505 0
M  V30 4086 H 411.628 0.700944 4.09951 0
M  V30 4087 H 410.205 -1.05436 3.57684 0
M  V30 4088 N 412.39 -1.55475 0.257931 0
M  V30 4089 C 413.636 -2.00237 -0.357338 0
M  V30 4090 C 413.991 -1.14313 -1.54759 0
M  V30 4091 O 413.284 -0.201187 -1.90541 0
M  V30 4092 C 413.478 -3.48183 -0.806433 0
M  V30 4093 C 413.307 -4.48422 0.338758 0
M  V30 4094 C 412.077 -4.98651 0.817011 0
M  V30 4095 C 414.275 -5.00827 1.16949 0
M  V30 4096 N 412.257 -5.82658 1.93346 0
M  V30 4097 C 413.628 -5.82113 2.13413 0
M  V30 4098 C 415.683 -4.83104 1.2048 0
M  V30 4099 C 414.386 -6.47566 3.13131 0
M  V30 4100 C 416.412 -5.49343 2.19034 0
M  V30 4101 C 415.774 -6.30427 3.14232 0
M  V30 4102 H 411.873 -0.776034 -0.0964083 0
M  V30 4103 H 414.457 -1.90995 0.37803 0
M  V30 4104 H 412.628 -3.57801 -1.51107 0
M  V30 4105 H 414.36 -3.79802 -1.39758 0
M  V30 4106 H 411.115 -4.71914 0.39925 0
M  V30 4107 H 411.539 -6.29356 2.49478 0
M  V30 4108 H 416.181 -4.20036 0.482634 0
M  V30 4109 H 413.899 -7.09793 3.8629 0
M  V30 4110 H 417.485 -5.37579 2.22485 0
M  V30 4111 H 416.365 -6.80777 3.89246 0
M  V30 4112 N 413.868 0.0150385 -1.57593 0
M  V30 4113 C 415.117 0.702115 -1.89085 0
M  V30 4114 C 415.43 1.75764 -0.858277 0
M  V30 4115 O 416.636 2.49829 -1.0629 0
M  V30 4116 C 415.092 1.29992 -3.35604 0
M  V30 4117 C 414.7 0.280007 -4.47124 0
M  V30 4118 C 416.444 1.96606 -3.76227 0
M  V30 4119 C 414.351 0.886949 -5.84711 0
M  V30 4120 H 413.281 0.265997 -0.705522 0
M  V30 4121 H 415.932 -0.0430408 -1.8345 0
M  V30 4122 H 414.314 2.09525 -3.36029 0
M  V30 4123 H 415.488 -0.489631 -4.58191 0
M  V30 4124 H 413.803 -0.284835 -4.15425 0
M  V30 4125 H 416.4 2.42893 -4.76347 0
M  V30 4126 H 416.743 2.79024 -3.08952 0
M  V30 4127 H 417.276 1.23828 -3.78036 0
M  V30 4128 H 414.015 0.101876 -6.55421 0
M  V30 4129 H 413.535 1.6261 -5.77337 0
M  V30 4130 H 415.214 1.39011 -6.3189 0
M  V30 4131 N 415.346 1.54954 0.287554 0
M  V30 4132 C 416.278 1.83224 1.37701 0
M  V30 4133 C 417.291 0.715898 1.46215 0
M  V30 4134 O 418.48 0.993565 1.48292 0
M  V30 4135 C 415.58 1.96723 2.75959 0
M  V30 4136 C 414.753 3.27253 2.90215 0
M  V30 4137 C 413.812 3.30998 4.09056 0
M  V30 4138 O 412.838 4.04457 4.00503 0
M  V30 4139 N 414.04 2.57353 5.20336 0
M  V30 4140 H 416.805 2.77254 1.138 0
M  V30 4141 H 414.366 1.54694 0.477652 0
M  V30 4142 H 416.358 1.96615 3.5373 0
M  V30 4143 H 414.928 1.09626 2.92747 0
M  V30 4144 H 414.148 3.40022 1.99447 0
M  V30 4145 H 415.436 4.13365 2.96659 0
M  V30 4146 H 414.834 1.97327 5.30169 0
M  V30 4147 H 413.391 2.62984 5.96391 0
M  V30 4148 N 416.824 -0.551391 1.4764 0
M  V30 4149 C 418.049 -1.33837 1.58437 0
M  V30 4150 C 418.474 -1.866 0.237063 0
M  V30 4151 O 417.832 -1.6328 -0.787994 0
M  V30 4152 C 417.88 -2.48014 2.61766 0
M  V30 4153 O 416.984 -3.50419 2.1744 0
M  V30 4154 H 416.325 -0.397299 0.532024 0
M  V30 4155 H 418.855 -0.665759 1.93465 0
M  V30 4156 H 418.865 -2.94503 2.82369 0
M  V30 4157 H 417.54 -2.08969 3.5959 0
M  V30 4158 H 416.117 -3.10196 2.06961 0
M  V30 4159 N 418.302 -1.35869 -0.798587 0
M  V30 4160 C 419.249 -1.29446 -1.91082 0
M  V30 4161 C 420.219 -0.16487 -1.6528 0
M  V30 4162 O 421.404 -0.349888 -1.87564 0
M  V30 4163 C 418.544 -1.0804 -3.27752 0
M  V30 4164 C 417.657 -2.29993 -3.65687 0
M  V30 4165 C 416.792 -2.01673 -4.91428 0
M  V30 4166 C 415.831 -3.19636 -5.22015 0
M  V30 4167 N 414.968 -2.91039 -6.38937 0
M  V30 4168 H 419.808 -2.24553 -1.95907 0
M  V30 4169 H 417.345 -1.11615 -0.958148 0
M  V30 4170 H 419.303 -0.936586 -4.06551 0
M  V30 4171 H 417.933 -0.16592 -3.22373 0
M  V30 4172 H 416.985 -2.55211 -2.82085 0
M  V30 4173 H 418.297 -3.18052 -3.84245 0
M  V30 4174 H 417.451 -1.84168 -5.78072 0
M  V30 4175 H 416.19 -1.10911 -4.74921 0
M  V30 4176 H 415.195 -3.37709 -4.33858 0
M  V30 4177 H 416.42 -4.11211 -5.40447 0
M  V30 4178 H 414.366 -2.0288 -6.2384 0
M  V30 4179 H 414.283 -3.72635 -6.57784 0
M  V30 4180 H 415.551 -2.77093 -7.28587 0
M  V30 4181 N 419.78 1.02168 -1.19998 0
M  V30 4182 C 421.026 1.75945 -1.00852 0
M  V30 4183 C 421.359 1.88702 0.458828 0
M  V30 4184 O 420.634 1.40911 1.34069 0
M  V30 4185 C 420.917 3.18154 -1.68671 0
M  V30 4186 C 420.77 3.13224 -3.22817 0
M  V30 4187 C 422.089 4.16711 -1.41561 0
M  V30 4188 H 419.208 0.638673 -0.367785 0
M  V30 4189 H 421.85 1.19222 -1.4794 0
M  V30 4190 H 420 3.66586 -1.28636 0
M  V30 4191 H 421.672 2.72635 -3.72112 0
M  V30 4192 H 419.915 2.50751 -3.53986 0
M  V30 4193 H 420.586 4.13728 -3.65422 0
M  V30 4194 H 423.062 3.76913 -1.76284 0
M  V30 4195 H 421.938 5.14391 -1.91553 0
M  V30 4196 H 422.199 4.40774 -0.342193 0
M  V30 4197 N 421.258 1.00505 1.21394 0
M  V30 4198 C 422.486 0.706609 1.9446 0
M  V30 4199 C 422.901 -0.73081 1.74082 0
M  V30 4200 O 422.258 -1.49446 1.04747 0
M  V30 4201 C 422.309 1.01824 3.46863 0
M  V30 4202 O 422.03 2.39919 3.66566 0
M  V30 4203 C 423.531 0.739216 4.37093 0
M  V30 4204 H 420.751 0.260394 0.618414 0
M  V30 4205 H 423.295 1.34311 1.54211 0
M  V30 4206 H 421.45 0.427343 3.85036 0
M  V30 4207 H 421.864 2.50784 4.6066 0
M  V30 4208 H 423.338 1.00744 5.42729 0
M  V30 4209 H 423.815 -0.326746 4.37983 0
M  V30 4210 H 424.421 1.31173 4.04566 0
M  V30 4211 N 422.737 -1.36956 0.779787 0
M  V30 4212 C 423.647 -2.33965 0.172491 0
M  V30 4213 C 424.663 -1.60574 -0.670222 0
M  V30 4214 O 425.839 -1.92617 -0.588263 0
M  V30 4215 C 422.904 -3.39761 -0.690173 0
M  V30 4216 C 421.965 -4.28964 0.169924 0
M  V30 4217 C 421.198 -5.29707 -0.651662 0
M  V30 4218 O 421.421 -5.38238 -1.88827 0
M  V30 4219 O 420.355 -6.01873 -0.0566264 0
M  V30 4220 H 424.181 -2.87647 0.974321 0
M  V30 4221 H 421.766 -1.39258 0.541078 0
M  V30 4222 H 423.648 -4.04471 -1.1824 0
M  V30 4223 H 422.323 -2.88394 -1.47006 0
M  V30 4224 H 421.23 -3.67326 0.708696 0
M  V30 4225 H 422.563 -4.83656 0.913085 0
M  V30 4226 N 424.215 -0.530993 -1.48385 0
M  V30 4227 C 425.145 0.219985 -2.32461 0
M  V30 4228 C 426.126 0.934111 -1.42156 0
M  V30 4229 O 427.311 0.919694 -1.71042 0
M  V30 4230 C 424.441 1.26674 -3.23375 0
M  V30 4231 C 423.395 0.67069 -4.22712 0
M  V30 4232 C 422.721 1.82017 -5.02766 0
M  V30 4233 C 424.021 -0.358268 -5.2107 0
M  V30 4234 H 425.715 -0.48187 -2.95497 0
M  V30 4235 H 423.261 -0.233182 -1.42099 0
M  V30 4236 H 425.214 1.80006 -3.81019 0
M  V30 4237 H 423.938 1.99818 -2.58341 0
M  V30 4238 H 422.597 0.158878 -3.66256 0
M  V30 4239 H 422.245 2.54002 -4.34157 0
M  V30 4240 H 421.945 1.42727 -5.70003 0
M  V30 4241 H 423.469 2.35725 -5.63264 0
M  V30 4242 H 424.883 0.0880081 -5.73232 0
M  V30 4243 H 423.28 -0.66861 -5.96364 0
M  V30 4244 H 424.35 -1.26367 -4.68145 0
M  V30 4245 N 425.693 1.55336 -0.266172 0
M  V30 4246 C 426.625 2.19544 0.658247 0
M  V30 4247 C 427.638 1.17746 1.12427 0
M  V30 4248 O 428.827 1.44517 1.04772 0
M  V30 4249 C 425.927 2.80032 1.9088 0
M  V30 4250 C 425.1 4.07436 1.59106 0
M  V30 4251 C 424.159 4.52056 2.69317 0
M  V30 4252 O 423.185 5.18023 2.35883 0
M  V30 4253 N 424.387 4.21448 3.99201 0
M  V30 4254 H 427.152 2.99503 0.108754 0
M  V30 4255 H 424.713 1.61667 -0.0869059 0
M  V30 4256 H 426.705 3.06831 2.63888 0
M  V30 4257 H 425.275 2.04119 2.36758 0
M  V30 4258 H 424.495 3.88021 0.695243 0
M  V30 4259 H 425.783 4.90462 1.35367 0
M  V30 4260 H 425.181 3.68528 4.29189 0
M  V30 4261 H 423.738 4.53039 4.68614 0
M  V30 4262 N 427.171 -0.0066808 1.57599 0
M  V30 4263 C 428.582 -0.550379 1.78403 0
M  V30 4264 C 428.933 -1.74339 0.900014 0
M  V30 4265 O 428.058 -2.16166 0.100713 0
M  V30 4266 C 428.653 -1.00523 3.23544 0
M  V30 4267 C 427.212 -1.49428 3.45468 0
M  V30 4268 C 426.359 -0.442444 2.73748 0
M  V30 4269 H 429.31 0.219508 1.57175 0
M  V30 4270 H 429.331 -1.87157 3.31289 0
M  V30 4271 H 428.843 -0.136735 3.87859 0
M  V30 4272 H 426.944 -2.3839 2.86358 0
M  V30 4273 H 427.057 -1.52635 4.54136 0
M  V30 4274 H 425.421 -0.902578 2.38171 0
M  V30 4275 H 426.204 0.416973 3.40758 0
M  V30 4276 N 428.649 -1.55105 -0.279332 0
M  V30 4277 C 430.065 -1.46803 -0.626187 0
M  V30 4278 C 430.265 -0.676939 -1.89789 0
M  V30 4279 O 429.321 -0.19326 -2.51759 0
M  V30 4280 C 430.634 -2.90962 -0.759034 0
M  V30 4281 C 432.182 -3.01138 -0.853504 0
M  V30 4282 C 432.657 -4.46539 -1.01818 0
M  V30 4283 N 434.148 -4.50341 -1.08386 0
M  V30 4284 C 434.883 -5.60053 -1.22996 0
M  V30 4285 N 434.379 -6.79645 -1.34366 0
M  V30 4286 N 436.172 -5.47783 -1.26056 0
M  V30 4287 H 428.323 -2.04996 0.555921 0
M  V30 4288 H 430.586 -0.929325 0.187239 0
M  V30 4289 H 430.292 -3.51544 0.104852 0
M  V30 4290 H 430.166 -3.39619 -1.64131 0
M  V30 4291 H 432.553 -2.40658 -1.70786 0
M  V30 4292 H 432.634 -2.55745 0.0532466 0
M  V30 4293 H 432.278 -5.0762 -0.168504 0
M  V30 4294 H 432.208 -4.89583 -1.93948 0
M  V30 4295 H 434.699 -3.64191 -1.00864 0
M  V30 4296 H 435.012 -7.59012 -1.4533 0
M  V30 4297 H 433.357 -6.82469 -1.31382 0
M  V30 4298 H 436.548 -4.53294 -1.168 0
M  V30 4299 H 436.721 -6.33331 -1.37098 0
M  V30 4300 N 430.127 0.543554 -1.4793 0
M  V30 4301 C 431.373 1.30201 -1.55485 0
M  V30 4302 C 431.706 1.92925 -0.222201 0
M  V30 4303 O 430.981 1.78586 0.77053 0
M  V30 4304 C 431.264 2.40174 -2.68307 0
M  V30 4305 C 431.117 1.8223 -4.11233 0
M  V30 4306 C 432.436 3.42024 -2.76961 0
M  V30 4307 H 429.555 0.472036 -0.565996 0
M  V30 4308 H 432.197 0.606914 -1.80046 0
M  V30 4309 H 430.347 2.99463 -2.47495 0
M  V30 4310 H 432.019 1.27096 -4.43446 0
M  V30 4311 H 430.262 1.12832 -4.18869 0
M  V30 4312 H 430.933 2.61793 -4.85972 0
M  V30 4313 H 433.409 2.92672 -2.95774 0
M  V30 4314 H 432.285 4.16383 -3.57654 0
M  V30 4315 H 432.546 4.0173 -1.84568 0
M  V30 4316 N 431.605 1.3629 0.791371 0
M  V30 4317 C 432.851 1.30605 1.55146 0
M  V30 4318 C 433.184 -0.115042 1.93859 0
M  V30 4319 O 432.459 -1.06798 1.62556 0
M  V30 4320 C 432.742 2.22692 2.82985 0
M  V30 4321 C 432.595 3.73489 2.50651 0
M  V30 4322 C 433.914 2.13588 3.84796 0
M  V30 4323 H 431.033 0.475761 0.562868 0
M  V30 4324 H 433.675 1.66825 0.909358 0
M  V30 4325 H 431.825 1.91933 3.37778 0
M  V30 4326 H 433.497 4.14758 2.01924 0
M  V30 4327 H 431.74 3.93021 1.83622 0
M  V30 4328 H 432.411 4.3333 3.41949 0
M  V30 4329 H 434.887 2.40659 3.39445 0
M  V30 4330 H 433.763 2.80195 4.71998 0
M  V30 4331 H 434.024 1.12256 4.27611 0
M  V30 4332 N 433.083 -1.0153 1.20538 0
M  V30 4333 C 434.494 -1.56598 1.01657 0
M  V30 4334 C 434.845 -1.91505 -0.426668 0
M  V30 4335 O 433.97 -1.72375 -1.30827 0
M  V30 4336 C 434.565 -2.84542 1.83905 0
M  V30 4337 C 433.124 -3.36133 1.69386 0
M  V30 4338 C 432.271 -2.09427 1.81757 0
M  V30 4339 H 435.222 -0.838974 1.34711 0
M  V30 4340 H 435.243 -3.56004 1.34319 0
M  V30 4341 H 434.755 -2.59105 2.8894 0
M  V30 4342 H 432.856 -3.66528 0.669933 0
M  V30 4343 H 432.969 -4.08248 2.50739 0
M  V30 4344 H 431.333 -2.21941 1.24957 0
M  V30 4345 H 432.116 -1.86414 2.88279 0
M  V30 4346 N 434.561 -1.01147 -1.20859 0
M  V30 4347 C 435.493 -0.535546 -2.22855 0
M  V30 4348 C 436.506 0.379323 -1.58319 0
M  V30 4349 O 437.695 0.178489 -1.77605 0
M  V30 4350 C 434.795 0.240962 -3.38042 0
M  V30 4351 C 433.968 -0.674562 -4.32167 0
M  V30 4352 C 433.027 0.053467 -5.26173 0
M  V30 4353 O 432.053 -0.567339 -5.66366 0
M  V30 4354 N 433.255 1.32997 -5.65059 0
M  V30 4355 H 436.02 -1.41268 -2.64317 0
M  V30 4356 H 433.581 -0.888386 -1.35349 0
M  V30 4357 H 435.573 0.737115 -3.97931 0
M  V30 4358 H 434.143 1.01935 -2.95513 0
M  V30 4359 H 433.363 -1.35111 -3.70322 0
M  V30 4360 H 434.651 -1.2974 -4.91981 0
M  V30 4361 H 434.049 1.85536 -5.34409 0
M  V30 4362 H 432.606 1.77095 -6.2728 0
M  V30 4363 N 436.039 1.36541 -0.78704 0
M  V30 4364 C 437.267 2.03561 -0.370199 0
M  V30 4365 C 437.682 1.59347 1.01263 0
M  V30 4366 O 437.039 0.781781 1.64907 0
M  V30 4367 C 437.09 3.59033 -0.421614 0
M  V30 4368 O 436.811 4.01634 -1.7499 0
M  V30 4369 C 438.312 4.433 0.00489763 0
M  V30 4370 H 435.532 0.653346 -0.152904 0
M  V30 4371 H 438.076 1.74566 -1.06522 0
M  V30 4372 H 436.231 3.86746 0.224971 0
M  V30 4373 H 436.645 4.96217 -1.69909 0
M  V30 4374 H 438.119 5.51939 -0.0822184 0
M  V30 4375 H 438.596 4.26285 1.05723 0
M  V30 4376 H 439.202 4.20843 -0.614085 0
M  V30 4377 N 437.518 0.538854 1.48102 0
M  V30 4378 C 438.45 -0.256278 2.27763 0
M  V30 4379 C 439.463 -0.89633 1.35904 0
M  V30 4380 O 440.652 -0.773275 1.60881 0
M  V30 4381 C 437.752 -1.37896 3.09577 0
M  V30 4382 C 436.925 -0.839159 4.29275 0
M  V30 4383 C 435.984 -1.84405 4.9283 0
M  V30 4384 O 435.01 -1.39746 5.51779 0
M  V30 4385 N 436.212 -3.17666 4.85869 0
M  V30 4386 H 438.977 0.426968 2.96643 0
M  V30 4387 H 436.538 0.373747 1.57527 0
M  V30 4388 H 438.53 -2.04955 3.48963 0
M  V30 4389 H 437.1 -1.96572 2.4306 0
M  V30 4390 H 436.32 0.00769287 3.94199 0
M  V30 4391 H 437.608 -0.457548 5.06739 0
M  V30 4392 H 437.006 -3.56609 4.39143 0
M  V30 4393 H 435.563 -3.80334 5.29329 0
M  V30 4394 N 438.996 -1.55193 0.274407 0
M  V30 4395 C 439.906 -2.26164 -0.623473 0
M  V30 4396 C 440.922 -1.28729 -1.17068 0
M  V30 4397 O 442.098 -1.61663 -1.20112 0
M  V30 4398 C 439.163 -2.96833 -1.7914 0
M  V30 4399 C 438.224 -4.09745 -1.28093 0
M  V30 4400 C 437.457 -4.77034 -2.3932 0
M  V30 4401 O 437.68 -4.4353 -3.5866 0
M  V30 4402 O 436.614 -5.64996 -2.07516 0
M  V30 4403 H 440.44 -3.03661 -0.0485661 0
M  V30 4404 H 438.025 -1.49341 0.0418382 0
M  V30 4405 H 439.907 -3.41248 -2.4724 0
M  V30 4406 H 438.582 -2.22253 -2.35341 0
M  V30 4407 H 437.489 -3.69787 -0.566416 0
M  V30 4408 H 438.822 -4.86224 -0.764683 0
M  V30 4409 N 440.474 -0.00167713 -1.576 0
M  V30 4410 C 441.699 0.69739 -1.95323 0
M  V30 4411 C 442.124 1.6642 -0.876706 0
M  V30 4412 O 441.482 1.80548 0.165007 0
M  V30 4413 C 441.53 1.40403 -3.32144 0
M  V30 4414 O 440.634 2.5185 -3.26566 0
M  V30 4415 H 439.975 0.185373 -0.637599 0
M  V30 4416 H 442.505 -0.0553665 -2.04525 0
M  V30 4417 H 442.515 1.76707 -3.67748 0
M  V30 4418 H 441.19 0.695167 -4.10049 0
M  V30 4419 H 439.767 2.17861 -3.0264 0
M  V30 4420 N 441.952 1.55251 0.271103 0
M  V30 4421 C 442.884 1.84675 1.35749 0
M  V30 4422 C 443.897 0.731366 1.45447 0
M  V30 4423 O 445.086 1.00924 1.4723 0
M  V30 4424 C 442.186 1.99638 2.73857 0
M  V30 4425 C 441.359 3.30312 2.86727 0
M  V30 4426 C 440.418 3.35318 4.05522 0
M  V30 4427 O 439.444 4.08682 3.96191 0
M  V30 4428 N 440.646 2.62857 5.17577 0
M  V30 4429 H 443.411 2.78445 1.10853 0
M  V30 4430 H 440.972 1.55191 0.461218 0
M  V30 4431 H 442.964 2.00355 3.51625 0
M  V30 4432 H 441.534 1.12725 2.91568 0
M  V30 4433 H 440.754 3.42118 1.95829 0
M  V30 4434 H 442.042 4.16488 2.92258 0
M  V30 4435 H 441.44 2.02939 5.28046 0
M  V30 4436 H 439.997 2.69295 5.93568 0
M  V30 4437 N 443.43 -0.535701 1.48216 0
M  V30 4438 C 444.841 -1.11769 1.49548 0
M  V30 4439 C 445.192 -1.94442 0.26207 0
M  V30 4440 O 444.317 -2.06987 -0.631287 0
M  V30 4441 C 444.912 -2.03367 2.70975 0
M  V30 4442 C 443.471 -2.56795 2.75196 0
M  V30 4443 C 442.618 -1.33631 2.42977 0
M  V30 4444 H 445.569 -0.321232 1.55415 0
M  V30 4445 H 445.59 -2.87569 2.49167 0
M  V30 4446 H 445.102 -1.43169 3.60727 0
M  V30 4447 H 443.203 -3.20731 1.89638 0
M  V30 4448 H 443.316 -2.9632 3.76472 0
M  V30 4449 H 441.68 -1.6502 1.94012 0
M  V30 4450 H 442.463 -0.75194 3.34964 0
M  V30 4451 N 444.908 -1.36708 -0.784132 0
M  V30 4452 C 446.185 -1.21776 -1.53069 0
M  V30 4453 C 446.565 0.193876 -2.10208 0
M  V30 4454 O 445.913 1.20012 -1.94446 0
M  V30 4455 C 446.123 -2.30395 -2.62143 0
M  V30 4456 C 447.471 -2.67325 -3.29882 0
M  V30 4457 O 448.495 -2.29478 -2.7243 0
M  V30 4458 O 447.354 -3.32485 -4.33724 0
M  V30 4459 H 444.448 -0.474459 -0.677361 0
M  V30 4460 H 446.994 -1.48454 -0.82216 0
M  V30 4461 H 445.766 -3.2498 -2.17953 0
M  V30 4462 H 445.389 -2.05112 -3.40609 0
M  V30 4463 N 446.386 1.0089 -1.21074 0
M  V30 4464 C 447.611 1.78727 -1.05221 0
M  V30 4465 C 448.036 1.83932 0.393795 0
M  V30 4466 O 447.394 1.28004 1.28393 0
M  V30 4467 C 447.442 3.20665 -1.64944 0
M  V30 4468 O 446.546 4.02632 -0.892273 0
M  V30 4469 H 445.887 0.550973 -0.370574 0
M  V30 4470 H 448.417 1.26847 -1.60534 0
M  V30 4471 H 448.427 3.71352 -1.69002 0
M  V30 4472 H 447.102 3.16191 -2.70177 0
M  V30 4473 H 445.679 3.61207 -0.926492 0
M  V30 4474 N 447.864 1.01787 1.20321 0
M  V30 4475 C 448.812 0.58254 2.25187 0
M  V30 4476 C 449.806 -0.379359 1.65098 0
M  V30 4477 O 451.012 -0.249142 1.78267 0
M  V30 4478 H 447.387 0.170078 0.732514 0
M  V30 4479 H 449.358 1.47788 2.59232 0
M  V30 4480 C 448.107 -0.0620885 3.47645 0
M  V30 4481 H 447.43 0.669069 3.94162 0
M  V30 4482 H 448.87 -0.329784 4.22716 0
M  V30 4483 C 447.329 -1.3053 3.10586 0
M  V30 4484 O 447.859 -2.39848 3.22236 0
M  V30 4485 N 446.065 -1.18988 2.65123 0
M  V30 4486 H 445.612 -0.300341 2.55843 0
M  V30 4487 H 445.57 -2.02267 2.40698 0
M  V30 4488 N 449.342 -1.36122 0.79427 0
M  V30 4489 C 450.272 -2.32551 0.210328 0
M  V30 4490 C 451.253 -1.56884 -0.657386 0
M  V30 4491 O 452.438 -1.85014 -0.590207 0
M  V30 4492 C 449.568 -3.41128 -0.651819 0
M  V30 4493 C 448.522 -4.27842 0.116395 0
M  V30 4494 C 447.848 -5.2763 -0.86666 0
M  V30 4495 C 449.148 -5.05647 1.30837 0
M  V30 4496 H 450.842 -2.81636 1.01594 0
M  V30 4497 H 448.388 -1.35407 0.489981 0
M  V30 4498 H 450.341 -4.07581 -1.07031 0
M  V30 4499 H 449.065 -2.90622 -1.49019 0
M  V30 4500 H 447.724 -3.62952 0.515915 0
M  V30 4501 H 447.372 -4.73395 -1.70019 0
M  V30 4502 H 447.072 -5.86514 -0.35705 0
M  V30 4503 H 448.596 -5.96955 -1.28361 0
M  V30 4504 H 450.01 -5.65113 0.965393 0
M  V30 4505 H 448.407 -5.73967 1.75161 0
M  V30 4506 H 449.477 -4.37006 2.10128 0
M  V30 4507 N 450.82 -0.546701 -1.47814 0
M  V30 4508 C 452.06 -0.0209604 -2.04389 0
M  V30 4509 C 452.424 1.29993 -1.413 0
M  V30 4510 O 453.625 1.91273 -1.8886 0
M  V30 4511 C 451.896 0.0812844 -3.57308 0
M  V30 4512 S 453.455 0.55467 -4.3528 0
M  V30 4513 H 450.273 -0.0200865 -0.710716 0
M  V30 4514 H 452.875 -0.731055 -1.81317 0
M  V30 4515 H 451.579 -0.884616 -4.00753 0
M  V30 4516 H 451.11 0.815253 -3.8486 0
M  V30 4517 H 453.125 1.81627 -4.61764 0
M  V30 4518 N 452.299 1.55045 -0.282633 0
M  V30 4519 C 453.547 1.99365 0.331334 0
M  V30 4520 C 453.868 1.1725 1.55812 0
M  V30 4521 O 453.138 0.263871 1.94115 0
M  V30 4522 H 451.718 0.736397 0.125414 0
M  V30 4523 H 454.38 1.90964 -0.389711 0
M  V30 4524 H 453.476 3.0596 0.616036 0
M  V30 4525 N 453.777 0.010035 1.57597 0
M  V30 4526 C 455.002 -0.687021 1.95691 0
M  V30 4527 C 455.427 -1.65952 0.885519 0
M  V30 4528 O 454.785 -1.80633 -0.15543 0
M  V30 4529 C 454.833 -1.3864 3.32884 0
M  V30 4530 O 453.937 -2.50115 3.27897 0
M  V30 4531 H 453.278 -0.181989 0.638573 0
M  V30 4532 H 455.808 0.0662122 2.04493 0
M  V30 4533 H 455.818 -1.74754 3.6868 0
M  V30 4534 H 454.493 -0.673411 4.10412 0
M  V30 4535 H 453.07 -2.16253 3.03791 0
M  V30 4536 N 455.255 -1.55392 -0.262866 0
M  V30 4537 C 456.205 -1.85355 -1.32768 0
M  V30 4538 C 457.189 -0.713188 -1.44231 0
M  V30 4539 O 458.381 -0.974765 -1.47741 0
M  V30 4540 C 455.51 -2.13781 -2.68612 0
M  V30 4541 C 454.596 -3.34104 -2.61219 0
M  V30 4542 N 454.987 -4.53766 -2.2345 0
M  V30 4543 C 453.285 -3.36895 -2.92263 0
M  V30 4544 C 453.986 -5.35877 -2.26298 0
M  V30 4545 N 452.962 -4.74536 -2.65172 0
M  V30 4546 H 456.764 -2.75413 -1.02591 0
M  V30 4547 H 454.278 -1.55405 -0.471503 0
M  V30 4548 H 456.275 -2.33407 -3.45437 0
M  V30 4549 H 454.935 -1.25013 -2.99669 0
M  V30 4550 H 455.946 -4.79682 -1.95258 0
M  V30 4551 H 452.623 -2.58351 -3.27965 0
M  V30 4552 H 454.013 -6.41577 -1.99572 0
M  V30 4553 N 456.733 0.527833 -1.48498 0
M  V30 4554 C 457.663 1.64136 -1.66077 0
M  V30 4555 C 458.644 1.62286 -0.509625 0
M  V30 4556 O 459.829 1.79449 -0.742413 0
M  V30 4557 C 456.959 3.02717 -1.70234 0
M  V30 4558 C 455.913 3.19426 -2.8487 0
M  V30 4559 C 455.239 4.5909 -2.74118 0
M  V30 4560 C 456.539 3.01993 -4.26142 0
M  V30 4561 H 458.233 1.4968 -2.593 0
M  V30 4562 H 455.779 0.718654 -1.24785 0
M  V30 4563 H 457.732 3.80491 -1.8112 0
M  V30 4564 H 456.456 3.18201 -0.735911 0
M  V30 4565 H 455.115 2.4407 -2.73542 0
M  V30 4566 H 454.763 4.71413 -1.7544 0
M  V30 4567 H 454.463 4.71214 -3.51042 0
M  V30 4568 H 455.987 5.3896 -2.86974 0
M  V30 4569 H 457.401 3.69558 -4.38292 0
M  V30 4570 H 455.798 3.2561 -5.04082 0
M  V30 4571 H 456.868 1.98396 -4.42456 0
M  V30 4572 N 458.211 1.37122 0.776871 0
M  V30 4573 C 459.174 1.32301 1.8716 0
M  V30 4574 C 460.174 0.228099 1.59174 0
M  V30 4575 O 461.364 0.483642 1.67352 0
M  V30 4576 C 458.496 1.054 3.24197 0
M  V30 4577 H 459.689 2.29673 1.92848 0
M  V30 4578 H 457.242 1.22077 0.97606 0
M  V30 4579 H 457.977 0.0853872 3.24188 0
M  V30 4580 H 457.762 1.84648 3.45901 0
M  V30 4581 H 459.252 1.04664 4.04271 0
M  V30 4582 N 459.689 -1.00246 1.21608 0
M  V30 4583 C 460.936 -1.74061 1.03485 0
M  V30 4584 C 461.264 -1.89658 -0.431308 0
M  V30 4585 O 460.519 -1.42976 -1.33627 0
M  V30 4586 C 460.818 -3.15448 1.68009 0
M  V30 4587 C 460.484 -3.19792 3.17874 0
M  V30 4588 C 459.146 -3.20685 3.58768 0
M  V30 4589 C 461.498 -3.16835 4.13842 0
M  V30 4590 C 458.826 -3.16309 4.94131 0
M  V30 4591 C 461.178 -3.14001 5.49169 0
M  V30 4592 C 459.842 -3.13204 5.89457 0
M  V30 4593 H 459.112 -0.636934 0.378677 0
M  V30 4594 H 461.759 -1.17473 1.51236 0
M  V30 4595 H 460.064 -3.75284 1.12557 0
M  V30 4596 H 461.761 -3.71285 1.51487 0
M  V30 4597 H 458.351 -3.19842 2.85305 0
M  V30 4598 H 462.535 -3.15303 3.83272 0
M  V30 4599 H 457.791 -3.14032 5.24589 0
M  V30 4600 H 461.965 -3.10667 6.23265 0
M  V30 4601 H 459.592 -3.09568 6.94314 0
M  V30 4602 N 461.167 -1.02423 -1.1978 0
M  V30 4603 C 462.392 -0.7373 -1.93852 0
M  V30 4604 C 462.817 0.696923 -1.74713 0
M  V30 4605 O 462.175 1.48056 -1.04638 0
M  V30 4606 C 462.223 -1.08783 -3.438 0
M  V30 4607 O 461.327 -0.20383 -4.11896 0
M  V30 4608 H 460.668 -0.27284 -0.605355 0
M  V30 4609 H 463.198 -1.36966 -1.51992 0
M  V30 4610 H 463.208 -1.04276 -3.9445 0
M  V30 4611 H 461.883 -2.13274 -3.57053 0
M  V30 4612 H 460.46 -0.307091 -3.71633 0
M  V30 4613 N 462.645 1.35699 -0.801477 0
M  V30 4614 C 463.87 2.03687 -0.390678 0
M  V30 4615 C 464.295 1.60015 0.988778 0
M  V30 4616 O 463.653 0.774357 1.63931 0
M  V30 4617 C 463.701 3.57439 -0.476404 0
M  V30 4618 O 462.805 4.09208 0.512106 0
M  V30 4619 H 462.146 0.64344 -0.163956 0
M  V30 4620 H 464.676 1.73403 -1.08594 0
M  V30 4621 H 464.686 4.06544 -0.344357 0
M  V30 4622 H 463.361 3.88576 -1.48262 0
M  V30 4623 H 461.938 3.7134 0.340721 0
M  V30 4624 N 464.123 0.554532 1.47522 0
M  V30 4625 C 465.086 -0.184174 2.28459 0
M  V30 4626 C 466.086 -0.845195 1.36796 0
M  V30 4627 O 467.276 -0.701467 1.59452 0
M  V30 4628 C 464.408 -1.26903 3.16399 0
M  V30 4629 H 465.601 0.526751 2.95238 0
M  V30 4630 H 463.154 0.311375 1.53167 0
M  V30 4631 H 463.889 -2.01244 2.54306 0
M  V30 4632 H 463.674 -0.799883 3.83854 0
M  V30 4633 H 465.164 -1.78794 3.77389 0
M  V30 4634 N 465.601 -1.54893 0.290851 0
M  V30 4635 C 467.012 -1.85584 -0.203816 0
M  V30 4636 C 467.363 -1.21285 -1.54222 0
M  V30 4637 O 466.488 -0.506841 -2.10381 0
M  V30 4638 C 467.083 -3.367 -0.376595 0
M  V30 4639 C 465.642 -3.6746 -0.815485 0
M  V30 4640 C 464.789 -2.77178 0.0821087 0
M  V30 4641 H 467.74 -1.50208 0.512175 0
M  V30 4642 H 467.761 -3.60656 -1.21275 0
M  V30 4643 H 467.273 -3.8347 0.59767 0
M  V30 4644 H 465.374 -3.26201 -1.80066 0
M  V30 4645 H 465.487 -4.7478 -0.641905 0
M  V30 4646 H 463.851 -2.50925 -0.436895 0
M  V30 4647 H 464.634 -3.26767 1.05254 0
M  V30 4648 N 467.08 -0.0183926 -1.57589 0
M  V30 4649 C 468.043 0.951986 -2.08494 0
M  V30 4650 C 469.043 1.26092 -0.997874 0
M  V30 4651 O 470.233 1.20304 -1.25987 0
M  V30 4652 C 467.365 2.27165 -2.54182 0
M  V30 4653 H 468.558 0.511307 -2.95509 0
M  V30 4654 H 466.111 0.229444 -1.54607 0
M  V30 4655 H 466.846 2.75884 -1.70465 0
M  V30 4656 H 466.631 2.06057 -3.33591 0
M  V30 4657 H 468.121 2.9674 -2.93828 0
M  V30 4658 N 468.558 1.5553 0.254621 0
M  V30 4659 C 469.49 1.86104 1.33783 0
M  V30 4660 C 470.503 0.746752 1.44663 0
M  V30 4661 O 471.692 1.0248 1.46151 0
M  V30 4662 C 468.792 2.02532 2.71724 0
M  V30 4663 C 467.965 3.33335 2.83208 0
M  V30 4664 C 467.024 3.396 4.01943 0
M  V30 4665 O 466.05 4.12862 3.91834 0
M  V30 4666 N 467.252 2.68332 5.1476 0
M  V30 4667 H 470.017 2.79605 1.07893 0
M  V30 4668 H 467.578 1.55672 0.444732 0
M  V30 4669 H 469.57 2.04074 3.4948 0
M  V30 4670 H 468.14 1.15811 2.90356 0
M  V30 4671 H 467.36 3.44176 1.92189 0
M  V30 4672 H 468.648 4.19565 2.87824 0
M  V30 4673 H 468.046 2.08528 5.25864 0
M  V30 4674 H 466.603 2.75575 5.90679 0
M  V30 4675 N 470.036 -0.519951 1.48776 0
M  V30 4676 C 471.284 -1.2727 1.56993 0
M  V30 4677 C 471.605 -1.9339 0.25004 0
M  V30 4678 O 470.875 -1.81822 -0.729216 0
M  V30 4679 H 469.455 -0.472732 0.578389 0
M  V30 4680 H 472.117 -0.604234 1.85297 0
M  V30 4681 H 471.213 -2.04669 2.3562 0
M  V30 4682 N 471.514 -1.37532 -0.769588 0
M  V30 4683 C 472.444 -1.36172 -1.89682 0
M  V30 4684 C 473.425 -0.23001 -1.68538 0
M  V30 4685 O 474.61 -0.43069 -1.89364 0
M  V30 4686 C 471.74 -1.1701 -3.26995 0
M  V30 4687 C 470.694 -2.27216 -3.62708 0
M  V30 4688 C 470.02 -1.93174 -4.98586 0
M  V30 4689 C 471.32 -3.6941 -3.69234 0
M  V30 4690 H 473.014 -2.30499 -1.91078 0
M  V30 4691 H 470.56 -1.10953 -0.917902 0
M  V30 4692 H 472.513 -1.14688 -4.05493 0
M  V30 4693 H 471.237 -0.191395 -3.26039 0
M  V30 4694 H 469.896 -2.28697 -2.86519 0
M  V30 4695 H 469.544 -0.938281 -4.94171 0
M  V30 4696 H 469.244 -2.66973 -5.23449 0
M  V30 4697 H 470.768 -1.92443 -5.79481 0
M  V30 4698 H 472.182 -3.70047 -4.37879 0
M  V30 4699 H 470.579 -4.4228 -4.05597 0
M  V30 4700 H 471.649 -4.0288 -2.69844 0
M  V30 4701 N 472.992 0.995999 -1.22138 0
M  V30 4702 C 473.922 2.10387 -1.01289 0
M  V30 4703 C 474.903 1.69975 0.0651454 0
M  V30 4704 O 476.088 1.9396 -0.0964628 0
M  V30 4705 C 473.218 3.42312 -0.586517 0
M  V30 4706 C 472.172 3.96558 -1.61014 0
M  V30 4707 C 471.498 5.24494 -1.0397 0
M  V30 4708 C 472.798 4.27595 -2.99933 0
M  V30 4709 H 474.492 2.28086 -1.93951 0
M  V30 4710 H 472.038 1.09607 -0.933928 0
M  V30 4711 H 473.991 4.19223 -0.427793 0
M  V30 4712 H 472.715 3.24431 0.375761 0
M  V30 4713 H 471.374 3.21776 -1.75658 0
M  V30 4714 H 471.022 5.02953 -0.0688703 0
M  V30 4715 H 470.722 5.61755 -1.72352 0
M  V30 4716 H 472.246 6.04042 -0.892494 0
M  V30 4717 H 473.66 4.95315 -2.8868 0
M  V30 4718 H 472.057 4.76021 -3.6541 0
M  V30 4719 H 473.127 3.35498 -3.50099 0
M  V30 4720 N 474.47 1.03057 1.19235 0
M  V30 4721 C 475.886 0.747947 1.40989 0
M  V30 4722 C 476.086 -0.666752 1.90149 0
M  V30 4723 O 475.142 -1.43249 2.07933 0
M  V30 4724 C 476.455 1.7855 2.41951 0
M  V30 4725 C 478.003 1.80524 2.55695 0
M  V30 4726 C 478.478 2.83243 3.59913 0
M  V30 4727 N 479.969 2.8207 3.67411 0
M  V30 4728 C 480.704 3.58204 4.47747 0
M  V30 4729 N 480.2 4.44057 5.31775 0
M  V30 4730 N 481.993 3.46738 4.42413 0
M  V30 4731 H 474.144 1.94367 0.856468 0
M  V30 4732 H 476.407 0.840412 0.438647 0
M  V30 4733 H 476.113 2.79973 2.12857 0
M  V30 4734 H 475.987 1.6092 3.41152 0
M  V30 4735 H 478.374 0.79778 2.84112 0
M  V30 4736 H 478.455 2.02229 1.56643 0
M  V30 4737 H 478.099 3.84161 3.32239 0
M  V30 4738 H 478.029 2.58795 4.5862 0
M  V30 4739 H 480.52 2.19803 3.074 0
M  V30 4740 H 480.833 4.98884 5.90199 0
M  V30 4741 H 479.178 4.48129 5.3123 0
M  V30 4742 H 482.369 2.79077 3.75811 0
M  V30 4743 H 482.542 4.06322 5.04783 0
M  V30 4744 N 475.948 -1.35272 0.808662 0
M  V30 4745 C 477.359 -1.81179 0.450688 0
M  V30 4746 C 477.71 -1.67143 -1.02751 0
M  V30 4747 O 476.835 -1.20325 -1.79864 0
M  V30 4748 C 477.43 -3.28943 0.811275 0
M  V30 4749 C 475.989 -3.72985 0.505871 0
M  V30 4750 C 475.136 -2.57229 1.03578 0
M  V30 4751 H 478.087 -1.2322 1.00012 0
M  V30 4752 H 478.108 -3.80342 0.109588 0
M  V30 4753 H 477.62 -3.39127 1.88718 0
M  V30 4754 H 475.721 -3.68349 -0.561209 0
M  V30 4755 H 475.834 -4.67677 1.03995 0
M  V30 4756 H 474.198 -2.50548 0.458005 0
M  V30 4757 H 474.981 -2.7019 2.11784 0
M  V30 4758 N 477.426 -0.562348 -1.47226 0
M  V30 4759 C 478.675 -0.038041 -2.01664 0
M  V30 4760 C 478.988 1.32199 -1.44162 0
M  V30 4761 O 480.194 1.9365 -1.90294 0
M  V30 4762 C 478.65 -0.0174958 -3.59896 0
M  V30 4763 C 478.258 -1.3746 -4.2639 0
M  V30 4764 C 480.002 0.453934 -4.22066 0
M  V30 4765 C 477.909 -1.31289 -5.76643 0
M  V30 4766 H 476.839 -0.0104511 -0.753928 0
M  V30 4767 H 479.49 -0.710966 -1.69167 0
M  V30 4768 H 477.872 0.721182 -3.89378 0
M  V30 4769 H 479.046 -2.1314 -4.08544 0
M  V30 4770 H 477.361 -1.78438 -3.7623 0
M  V30 4771 H 479.958 0.518584 -5.32179 0
M  V30 4772 H 480.301 1.46706 -3.89594 0
M  V30 4773 H 480.834 -0.230044 -3.97134 0
M  V30 4774 H 477.573 -2.30217 -6.13743 0
M  V30 4775 H 477.093 -0.597973 -5.96812 0
M  V30 4776 H 478.772 -1.01713 -6.38955 0
M  V30 4777 N 478.904 1.54736 -0.299062 0
M  V30 4778 C 479.834 2.26409 0.571085 0
M  V30 4779 C 480.815 1.2629 1.13951 0
M  V30 4780 O 482 1.55059 1.16921 0
M  V30 4781 C 479.13 3.00338 1.74396 0
M  V30 4782 C 478.084 4.07588 1.30599 0
M  V30 4783 C 477.41 4.69222 2.56387 0
M  V30 4784 C 478.71 5.20455 0.438645 0
M  V30 4785 H 480.404 2.99388 -0.0266991 0
M  V30 4786 H 477.95 1.43993 -0.0142812 0
M  V30 4787 H 479.903 3.49198 2.35878 0
M  V30 4788 H 478.627 2.24934 2.36796 0
M  V30 4789 H 477.286 3.59575 0.71424 0
M  V30 4790 H 476.934 3.9046 3.17097 0
M  V30 4791 H 476.634 5.41653 2.27784 0
M  V30 4792 H 478.158 5.20844 3.18675 0
M  V30 4793 H 479.572 5.65221 0.959085 0
M  V30 4794 H 477.969 5.99594 0.246466 0
M  V30 4795 H 479.039 4.8192 -0.536738 0
M  V30 4796 N 480.382 0.0267497 1.57577 0
M  V30 4797 C 481.629 -0.652404 1.91703 0
M  V30 4798 C 481.957 -1.72271 0.902936 0
M  V30 4799 O 481.212 -1.955 -0.0884843 0
M  V30 4800 C 481.511 -1.30914 3.3256 0
M  V30 4801 C 481.177 -0.369441 4.49384 0
M  V30 4802 C 479.839 -0.110791 4.81072 0
M  V30 4803 C 482.191 0.275971 5.20469 0
M  V30 4804 C 479.519 0.801116 5.81205 0
M  V30 4805 C 481.871 1.17592 6.21575 0
M  V30 4806 C 480.535 1.44348 6.51705 0
M  V30 4807 H 479.805 -0.238732 0.70149 0
M  V30 4808 H 482.452 0.0880091 1.91298 0
M  V30 4809 H 480.757 -2.12425 3.29216 0
M  V30 4810 H 482.454 -1.84115 3.56234 0
M  V30 4811 H 479.044 -0.581211 4.24641 0
M  V30 4812 H 483.228 0.0892 4.9622 0
M  V30 4813 H 478.484 1.01614 6.02897 0
M  V30 4814 H 482.658 1.68223 6.75777 0
M  V30 4815 H 480.285 2.15176 7.29111 0
M  V30 4816 N 481.861 -1.55662 -0.24637 0
M  V30 4817 C 482.791 -1.93377 -1.30873 0
M  V30 4818 C 483.772 -0.798773 -1.50179 0
M  V30 4819 O 484.957 -1.0591 -1.62778 0
M  V30 4820 C 482.087 -2.22893 -2.66338 0
M  V30 4821 C 481.041 -3.38649 -2.61727 0
M  V30 4822 C 480.367 -3.53708 -4.00992 0
M  V30 4823 C 481.667 -4.74323 -2.18666 0
M  V30 4824 H 483.361 -2.82363 -0.995552 0
M  V30 4825 H 480.907 -1.35854 -0.477464 0
M  V30 4826 H 482.86 -2.47866 -3.40794 0
M  V30 4827 H 481.584 -1.30733 -2.99293 0
M  V30 4828 H 480.243 -3.13685 -1.89729 0
M  V30 4829 H 479.891 -2.58967 -4.31214 0
M  V30 4830 H 479.591 -4.31551 -3.98795 0
M  V30 4831 H 481.115 -3.81003 -4.77147 0
M  V30 4832 H 482.529 -4.98665 -2.82854 0
M  V30 4833 H 480.926 -5.55273 -2.27579 0
M  V30 4834 H 481.996 -4.71349 -1.13834 0
M  V30 4835 N 483.339 0.512053 -1.4905 0
M  V30 4836 C 484.75 1.09376 -1.51307 0
M  V30 4837 C 485.101 1.94 -0.292971 0
M  V30 4838 O 484.226 2.07965 0.598277 0
M  V30 4839 C 484.821 1.99031 -2.74176 0
M  V30 4840 C 483.38 2.52385 -2.79247 0
M  V30 4841 C 482.527 1.29749 -2.45073 0
M  V30 4842 H 485.478 0.296467 -1.55906 0
M  V30 4843 H 485.499 2.83569 -2.53711 0
M  V30 4844 H 485.011 1.37412 -3.62959 0
M  V30 4845 H 483.112 3.17673 -1.94716 0
M  V30 4846 H 483.225 2.90293 -3.81139 0
M  V30 4847 H 481.589 1.61912 -1.96612 0
M  V30 4848 H 482.372 0.698555 -3.36118 0
M  V30 4849 N 484.817 1.37938 0.762283 0
M  V30 4850 C 485.747 1.37176 1.88958 0
M  V30 4851 C 486.728 0.238945 1.68413 0
M  V30 4852 O 487.913 0.440726 1.89133 0
M  V30 4853 C 485.043 1.18742 3.2637 0
M  V30 4854 C 483.997 2.29136 3.61498 0
M  V30 4855 C 483.323 1.95816 4.97554 0
M  V30 4856 C 484.623 3.71363 3.6727 0
M  V30 4857 H 486.317 2.31509 1.89853 0
M  V30 4858 H 483.863 1.11438 0.912005 0
M  V30 4859 H 485.816 1.16837 4.04879 0
M  V30 4860 H 484.54 0.208683 3.25933 0
M  V30 4861 H 483.199 2.30213 2.85303 0
M  V30 4862 H 482.847 0.964475 4.93667 0
M  V30 4863 H 482.547 2.69745 5.22026 0
M  V30 4864 H 484.071 1.95513 5.78452 0
M  V30 4865 H 485.485 3.72364 4.35911 0
M  V30 4866 H 483.882 4.44425 4.03245 0
M  V30 4867 H 484.952 4.04305 2.67704 0
M  V30 4868 N 486.295 -0.989507 1.22664 0
M  V30 4869 C 487.543 -1.72612 1.05117 0
M  V30 4870 C 487.864 -1.90552 -0.414131 0
M  V30 4871 O 487.134 -1.4676 -1.29762 0
M  V30 4872 H 485.714 -0.639555 0.385977 0
M  V30 4873 H 488.376 -1.19158 1.54232 0
M  V30 4874 H 487.472 -2.71926 1.53175 0
M  V30 4875 N 487.773 -1.03688 -1.18687 0
M  V30 4876 C 488.703 -0.645407 -2.24403 0
M  V30 4877 C 489.684 0.349511 -1.66471 0
M  V30 4878 O 490.869 0.230453 -1.92828 0
M  V30 4879 C 487.999 -0.00365337 -3.473 0
M  V30 4880 C 486.953 -0.921705 -4.17958 0
M  V30 4881 C 486.279 -0.144629 -5.34504 0
M  V30 4882 C 487.579 -2.23909 -4.71871 0
M  V30 4883 H 489.273 -1.52917 -2.57404 0
M  V30 4884 H 486.819 -0.736711 -1.23728 0
M  V30 4885 H 488.772 0.281908 -4.20456 0
M  V30 4886 H 487.496 0.914963 -3.13522 0
M  V30 4887 H 486.155 -1.19159 -3.46694 0
M  V30 4888 H 485.803 0.776274 -4.96974 0
M  V30 4889 H 485.503 -0.756206 -5.82714 0
M  V30 4890 H 487.027 0.134004 -6.10453 0
M  V30 4891 H 488.441 -2.0145 -5.36741 0
M  V30 4892 H 486.838 -2.8033 -5.30599 0
M  V30 4893 H 487.908 -2.88822 -3.895 0
M  V30 4894 N 489.251 1.34841 -0.815825 0
M  V30 4895 C 490.214 2.27959 -0.238185 0
M  V30 4896 C 491.214 1.49983 0.579816 0
M  V30 4897 O 492.404 1.69617 0.396953 0
M  V30 4898 C 489.536 3.34314 0.666876 0
M  V30 4899 H 490.729 2.80558 -1.05958 0
M  V30 4900 H 488.282 1.44852 -0.587156 0
M  V30 4901 H 489.017 2.86916 1.5116 0
M  V30 4902 H 488.802 3.92014 0.0819106 0
M  V30 4903 H 490.292 4.0379 1.06506 0
M  V30 4904 N 490.729 0.570148 1.46925 0
M  V30 4905 C 491.659 -0.158274 2.32963 0
M  V30 4906 C 492.64 -0.896093 1.44583 0
M  V30 4907 O 493.825 -0.874022 1.7342 0
M  V30 4908 C 490.955 -1.18055 3.26619 0
M  V30 4909 C 489.909 -0.558379 4.24342 0
M  V30 4910 C 489.235 -1.68623 5.07415 0
M  V30 4911 C 490.535 0.496295 5.19937 0
M  V30 4912 H 492.229 0.560046 2.94115 0
M  V30 4913 H 489.775 0.270775 1.41431 0
M  V30 4914 H 491.728 -1.69841 3.85658 0
M  V30 4915 H 490.452 -1.92899 2.63548 0
M  V30 4916 H 489.111 -0.0617157 3.66548 0
M  V30 4917 H 488.759 -2.42402 4.40738 0
M  V30 4918 H 488.459 -1.27564 5.73586 0
M  V30 4919 H 489.983 -2.20709 5.69315 0
M  V30 4920 H 491.397 0.0640052 5.73264 0
M  V30 4921 H 489.794 0.82649 5.94381 0
M  V30 4922 H 490.864 1.38735 4.6463 0
M  V30 4923 N 492.207 -1.54576 0.307264 0
M  V30 4924 C 493.455 -1.99867 -0.299574 0
M  V30 4925 C 493.776 -1.19714 -1.53927 0
M  V30 4926 O 493.046 -0.29472 -1.9367 0
M  V30 4927 H 491.626 -0.738299 -0.113683 0
M  V30 4928 H 494.288 -1.9032 0.420042 0
M  V30 4929 H 493.384 -3.06901 -0.567283 0
M  V30 4930 N 493.685 -0.035106 -1.57561 0
M  V30 4931 C 494.615 0.942993 -2.13612 0
M  V30 4932 C 495.596 1.33531 -1.05373 0
M  V30 4933 O 496.781 1.41287 -1.33235 0
M  V30 4934 C 493.911 2.22332 -2.66807 0
M  V30 4935 C 492.865 1.97156 -3.79886 0
M  V30 4936 C 492.191 3.31506 -4.19533 0
M  V30 4937 C 493.491 1.30596 -5.05709 0
M  V30 4938 H 495.185 0.476179 -2.95589 0
M  V30 4939 H 492.731 0.227602 -1.4219 0
M  V30 4940 H 494.684 2.91142 -3.04654 0
M  V30 4941 H 493.408 2.7119 -1.81999 0
M  V30 4942 H 492.067 1.30763 -3.42486 0
M  V30 4943 H 491.715 3.78134 -3.31698 0
M  V30 4944 H 491.415 3.15465 -4.95738 0
M  V30 4945 H 492.939 4.01574 -4.59968 0
M  V30 4946 H 494.353 1.89416 -5.41105 0
M  V30 4947 H 492.75 1.24934 -5.86951 0
M  V30 4948 H 493.82 0.279742 -4.84092 0
M  V30 4949 N 495.163 1.55791 0.238111 0
M  V30 4950 C 496.093 1.94068 1.29846 0
M  V30 4951 C 497.074 0.806726 1.49753 0
M  V30 4952 O 498.259 1.06772 1.62214 0
M  V30 4953 C 495.389 2.24302 2.65153 0
M  V30 4954 C 494.343 3.40032 2.59927 0
M  V30 4955 C 493.669 3.55829 3.99111 0
M  V30 4956 C 494.969 4.75476 2.16148 0
M  V30 4957 H 496.663 2.82887 0.980563 0
M  V30 4958 H 494.209 1.36105 0.470253 0
M  V30 4959 H 496.162 2.4967 3.39475 0
M  V30 4960 H 494.886 1.32318 2.98596 0
M  V30 4961 H 493.545 3.14687 1.88063 0
M  V30 4962 H 493.193 2.6125 4.29834 0
M  V30 4963 H 492.893 4.3366 3.96501 0
M  V30 4964 H 494.417 3.83528 4.7512 0
M  V30 4965 H 495.831 5.00158 2.80205 0
M  V30 4966 H 494.228 5.56472 2.24631 0
M  V30 4967 H 495.298 4.71946 1.11333 0
M  V30 4968 N 496.642 -0.504142 1.49319 0
M  V30 4969 C 497.867 -1.28729 1.62615 0
M  V30 4970 C 498.292 -1.85752 0.296309 0
M  V30 4971 O 497.65 -1.65704 -0.735649 0
M  V30 4972 C 497.698 -2.39561 2.69524 0
M  V30 4973 O 496.802 -3.43324 2.28478 0
M  V30 4974 H 496.143 -0.380172 0.544395 0
M  V30 4975 H 498.673 -0.603872 1.95485 0
M  V30 4976 H 498.683 -2.8537 2.91595 0
M  V30 4977 H 497.358 -1.97423 3.66056 0
M  V30 4978 H 495.935 -3.03455 2.16725 0
M  V30 4979 N 498.12 -1.38341 -0.754957 0
M  V30 4980 C 499.531 -1.30803 -1.3322 0
M  V30 4981 C 499.882 0.0368 -1.96165 0
M  V30 4982 O 499.007 0.938844 -1.94974 0
M  V30 4983 C 499.602 -2.3688 -2.42225 0
M  V30 4984 C 498.161 -2.32925 -2.95674 0
M  V30 4985 C 497.308 -2.19819 -1.69042 0
M  V30 4986 H 500.259 -1.48719 -0.553937 0
M  V30 4987 H 500.28 -2.02517 -3.22129 0
M  V30 4988 H 499.792 -3.34747 -1.96383 0
M  V30 4989 H 497.893 -1.38635 -3.45848 0
M  V30 4990 H 498.006 -3.27008 -3.50146 0
M  V30 4991 H 496.37 -1.66648 -1.92615 0
M  V30 4992 H 497.153 -3.19625 -1.25279 0
M  V30 4993 N 499.598 0.982988 -1.23187 0
M  V30 4994 C 500.844 1.7273 -1.07405 0
M  V30 4995 C 501.199 1.885 0.385447 0
M  V30 4996 O 500.492 1.4243 1.28157 0
M  V30 4997 C 500.686 3.12736 -1.73006 0
M  V30 4998 C 500.515 3.10621 -3.25184 0
M  V30 4999 C 499.285 3.15957 -3.94334 0
M  V30 5000 C 501.483 2.93992 -4.21987 0
M  V30 5001 N 499.465 3.03701 -5.33516 0
M  V30 5002 C 500.836 2.8987 -5.48065 0
M  V30 5003 C 502.891 2.78457 -4.12754 0
M  V30 5004 C 501.594 2.71804 -6.65969 0
M  V30 5005 C 503.62 2.61754 -5.30319 0
M  V30 5006 C 502.982 2.58328 -6.55321 0
M  V30 5007 H 499.081 0.641279 -0.447533 0
M  V30 5008 H 501.665 1.16664 -1.55877 0
M  V30 5009 H 499.836 3.67026 -1.2707 0
M  V30 5010 H 501.568 3.75786 -1.50224 0
M  V30 5011 H 498.323 3.24034 -3.45397 0
M  V30 5012 H 498.747 3.00855 -6.06478 0
M  V30 5013 H 503.389 2.79898 -3.16886 0
M  V30 5014 H 501.107 2.69108 -7.61975 0
M  V30 5015 H 504.693 2.50702 -5.25014 0
M  V30 5016 H 503.573 2.45564 -7.4476 0
M  V30 5017 N 501.076 1.04316 1.18135 0
M  V30 5018 C 502.006 0.657299 2.24058 0
M  V30 5019 C 502.987 -0.340678 1.66654 0
M  V30 5020 O 504.172 -0.220223 1.92947 0
M  V30 5021 C 501.302 0.0220715 3.47293 0
M  V30 5022 C 500.256 0.943857 4.17463 0
M  V30 5023 C 499.582 0.172973 5.3442 0
M  V30 5024 C 500.882 2.26409 4.70677 0
M  V30 5025 H 502.576 1.5428 2.56589 0
M  V30 5026 H 500.122 0.743263 1.23335 0
M  V30 5027 H 502.075 -0.259607 4.206 0
M  V30 5028 H 500.799 -0.898323 3.14003 0
M  V30 5029 H 499.458 1.20996 3.46057 0
M  V30 5030 H 499.106 -0.749907 4.97379 0
M  V30 5031 H 498.806 0.787098 5.82304 0
M  V30 5032 H 500.33 -0.101628 6.10515 0
M  V30 5033 H 501.744 2.04294 5.35665 0
M  V30 5034 H 500.141 2.8314 5.29105 0
M  V30 5035 H 501.211 2.90883 3.87962 0
M  V30 5036 N 502.554 -1.34406 0.822964 0
M  V30 5037 C 503.779 -2.0304 0.423034 0
M  V30 5038 C 504.204 -1.61568 -0.963196 0
M  V30 5039 O 503.562 -0.800339 -1.62678 0
M  V30 5040 C 503.61 -3.56636 0.53321 0
M  V30 5041 O 502.714 -4.09971 -0.446939 0
M  V30 5042 H 502.055 -0.64075 0.174171 0
M  V30 5043 H 504.585 -1.71653 1.11339 0
M  V30 5044 H 504.595 -4.05945 0.408991 0
M  V30 5045 H 503.27 -3.86168 1.54425 0
M  V30 5046 H 501.847 -3.71835 -0.281601 0
M  V30 5047 N 504.032 -0.577932 -1.46621 0
M  V30 5048 C 504.942 0.160651 -2.34049 0
M  V30 5049 C 505.958 0.890911 -1.49462 0
M  V30 5050 O 507.134 0.855166 -1.82343 0
M  V30 5051 C 504.199 1.16447 -3.26559 0
M  V30 5052 C 503.26 0.4394 -4.27045 0
M  V30 5053 C 502.493 1.3954 -5.15135 0
M  V30 5054 O 502.716 2.63162 -5.06065 0
M  V30 5055 O 501.65 0.908585 -5.95003 0
M  V30 5056 H 505.476 -0.557057 -2.98547 0
M  V30 5057 H 503.061 -0.338369 -1.45518 0
M  V30 5058 H 504.943 1.7434 -3.83645 0
M  V30 5059 H 503.618 1.86373 -2.64663 0
M  V30 5060 H 502.525 -0.181247 -3.73661 0
M  V30 5061 H 503.858 -0.218799 -4.91713 0
M  V30 5062 N 505.51 1.54411 -0.315457 0
M  V30 5063 C 506.46 2.20772 0.569549 0
M  V30 5064 C 507.444 1.18551 1.08787 0
M  V30 5065 O 508.636 1.44213 1.02624 0
M  V30 5066 C 505.765 2.96293 1.73394 0
M  V30 5067 C 504.851 4.05844 1.2309 0
M  V30 5068 N 505.242 5.03822 0.446927 0
M  V30 5069 C 503.54 4.19648 1.51035 0
M  V30 5070 C 504.241 5.8143 0.17725 0
M  V30 5071 N 503.217 5.38245 0.761118 0
M  V30 5072 H 507.019 2.93877 -0.0368076 0
M  V30 5073 H 504.533 1.61949 -0.120915 0
M  V30 5074 H 506.53 3.42313 2.37965 0
M  V30 5075 H 505.19 2.24708 2.34386 0
M  V30 5076 H 506.201 5.17821 0.0905027 0
M  V30 5077 H 502.878 3.59274 2.1267 0
M  V30 5078 H 504.268 6.70369 -0.45335 0
M  V30 5079 O 507.027 0.182621 1.60464 0
M  V30 5080 H 507.718 -0.405074 1.89417 0
M  V30 END ATOM
M  V30 BEGIN BOND
M  V30 END BOND
M  V30 END CTAB
M  END
$$$$
