drugbank_target|Q16740 ATP-dependent Clp protease proteolytic subunit, mitochondrial (DB04464)
 OpenBabel12092120243D

  0  0  0     0  0            999 V3000
M  V30 BEGIN CTAB
M  V30 COUNTS 4271 4316 0 0 0
M  V30 BEGIN ATOM
M  V30 1 H -0.908 1.98254 -0.117106 0
M  V30 2 N 0 1.576 0 0
M  V30 3 C 0.933 2.03868 1.02534 0
M  V30 4 C 1.911 0.928543 1.3348 0
M  V30 5 O 3.095 1.19667 1.45644 0
M  V30 6 C 0.222 2.43627 2.35294 0
M  V30 7 C -0.732 3.65373 2.2001 0
M  V30 8 S 0.101 5.13292 1.52614 0
M  V30 9 C 1.257 5.56322 2.86805 0
M  V30 10 H 1.49 2.90518 0.631377 0
M  V30 11 H -0.977 1.52953 0.210867 0
M  V30 12 H 0.981 2.67203 3.11629 0
M  V30 13 H -0.358 1.57376 2.7183 0
M  V30 14 H -1.165 3.90944 3.18086 0
M  V30 15 H -1.563 3.418 1.51819 0
M  V30 16 H 0.729 5.58782 3.83104 0
M  V30 17 H 1.672 6.56266 2.65933 0
M  V30 18 H 2.08 4.83886 2.90714 0
M  V30 19 N 1.4781 -0.272755 1.55222 0
M  V30 20 C 2.7241 -1.00172 1.77023 0
M  V30 21 C 3.0791 -1.83928 0.564633 0
M  V30 22 O 2.3721 -1.86416 -0.442674 0
M  V30 23 C 2.5661 -1.91642 3.01675 0
M  V30 24 C 2.3951 -1.16888 4.34243 0
M  V30 25 C 1.1651 -0.884464 4.97499 0
M  V30 26 C 3.3631 -0.55919 5.11251 0
M  V30 27 N 1.3451 -0.11015 6.13801 0
M  V30 28 C 2.7161 0.0809469 6.19947 0
M  V30 29 C 4.7711 -0.467058 4.95705 0
M  V30 30 C 3.4741 0.804335 7.14789 0
M  V30 31 C 5.5001 0.242739 5.90902 0
M  V30 32 C 4.8621 0.871613 6.98987 0
M  V30 33 H 0.9611 -0.348529 0.700037 0
M  V30 34 H 3.5451 -0.277365 1.92714 0
M  V30 35 H 1.7161 -2.61303 2.87359 0
M  V30 36 H 3.4481 -2.57901 3.1188 0
M  V30 37 H 0.2031 -1.18979 4.58411 0
M  V30 38 H 0.6271 0.264344 6.76484 0
M  V30 39 H 5.2691 -0.93894 4.12242 0
M  V30 40 H 2.9871 1.2879 7.97771 0
M  V30 41 H 6.5731 0.314347 5.8095 0
M  V30 42 H 5.4531 1.4121 7.71381 0
M  V30 43 N 2.9562 -1.48159 -0.537278 0
M  V30 44 C 4.3672 -1.49429 -1.11928 0
M  V30 45 C 4.7182 -0.26 -1.9447 0
M  V30 46 O 3.8432 0.633489 -2.0692 0
M  V30 47 C 4.4382 -2.70758 -2.03656 0
M  V30 48 C 2.9972 -2.74923 -2.57088 0
M  V30 49 C 2.1442 -2.42835 -1.3389 0
M  V30 50 H 5.0952 -1.55381 -0.322886 0
M  V30 51 H 5.1162 -2.48861 -2.87834 0
M  V30 52 H 4.6282 -3.60575 -1.43553 0
M  V30 53 H 2.7292 -1.89296 -3.20933 0
M  V30 54 H 2.8422 -3.76157 -2.9672 0
M  V30 55 H 1.2062 -1.93836 -1.65226 0
M  V30 56 H 1.9892 -3.34884 -0.755504 0
M  V30 57 N 4.4343 0.785586 -1.36625 0
M  V30 58 C 5.6823 1.54057 -1.30808 0
M  V30 59 C 6.0033 1.94683 0.111157 0
M  V30 60 O 5.2733 1.65241 1.05224 0
M  V30 61 H 3.8533 0.571354 -0.481211 0
M  V30 62 H 6.5153 0.935821 -1.70963 0
M  V30 63 H 5.6113 2.44637 -1.93801 0
M  V30 64 N 5.9124 1.20967 1.01018 0
M  V30 65 C 7.1614 1.01796 1.74128 0
M  V30 66 C 7.4744 -0.449691 1.90361 0
M  V30 67 O 8.6804 -0.76068 2.60626 0
M  V30 68 C 7.1364 1.7727 3.13215 0
M  V30 69 C 6.7444 3.28171 3.04972 0
M  V30 70 C 8.4884 1.66489 3.90489 0
M  V30 71 C 6.3954 3.96156 4.39107 0
M  V30 72 H 5.3254 0.377276 0.652824 0
M  V30 73 H 7.9764 1.44651 1.12909 0
M  V30 74 H 6.3584 1.27205 3.75013 0
M  V30 75 H 7.5324 3.85499 2.52443 0
M  V30 76 H 5.8474 3.39437 2.41188 0
M  V30 77 H 8.4444 2.14617 4.89738 0
M  V30 78 H 8.7874 0.6222 4.11624 0
M  V30 79 H 9.3204 2.14003 3.35332 0
M  V30 80 H 6.0594 5.00604 4.23174 0
M  V30 81 H 5.5794 3.43617 4.91617 0
M  V30 82 H 7.2584 4.00774 5.07926 0
M  V30 83 N 7.3905 -1.2043 1.01659 0
M  V30 84 C 8.3205 -2.25466 0.607226 0
M  V30 85 C 9.3015 -1.65853 -0.377716 0
M  V30 86 O 10.4865 -1.92409 -0.263149 0
M  V30 87 C 7.6165 -3.47256 -0.0552949 0
M  V30 88 C 6.5705 -4.19462 0.850632 0
M  V30 89 C 5.8965 -5.34673 0.0538859 0
M  V30 90 C 7.1965 -4.75603 2.15868 0
M  V30 91 H 8.8905 -2.59962 1.48526 0
M  V30 92 H 6.4365 -1.2496 0.715605 0
M  V30 93 H 8.3895 -4.19917 -0.353233 0
M  V30 94 H 7.1135 -3.11924 -0.968045 0
M  V30 95 H 5.7725 -3.48667 1.13257 0
M  V30 96 H 5.4205 -4.95585 -0.860514 0
M  V30 97 H 5.1205 -5.83913 0.657192 0
M  V30 98 H 6.6445 -6.10138 -0.237598 0
M  V30 99 H 8.0585 -5.40083 1.92311 0
M  V30 100 H 6.4555 -5.3528 2.71284 0
M  V30 101 H 7.5255 -3.94346 2.82169 0
M  V30 102 N 8.8686 -0.792821 -1.36206 0
M  V30 103 C 10.1146 -0.36733 -1.99446 0
M  V30 104 C 10.4476 1.05917 -1.62774 0
M  V30 105 O 9.7226 1.7324 -0.88421 0
M  V30 106 C 10.0056 -0.535044 -3.56103 0
M  V30 107 C 9.8586 -2.00548 -4.02617 0
M  V30 108 C 11.1776 0.0478191 -4.40074 0
M  V30 109 H 8.2966 -0.134941 -0.724541 0
M  V30 110 H 10.9386 -0.999794 -1.61568 0
M  V30 111 H 9.0886 0.00336329 -3.885 0
M  V30 112 H 10.7606 -2.60521 -3.80692 0
M  V30 113 H 9.0036 -2.50686 -3.54032 0
M  V30 114 H 9.6746 -2.07377 -5.11565 0
M  V30 115 H 12.1506 -0.411822 -4.14057 0
M  V30 116 H 11.0266 -0.0995336 -5.4881 0
M  V30 117 H 11.2876 1.14025 -4.27142 0
M  V30 118 N 10.3467 1.47872 -0.545128 0
M  V30 119 C 11.5947 2.02093 -0.016553 0
M  V30 120 C 11.9157 1.42305 1.3332 0
M  V30 121 O 11.1857 0.593853 1.86682 0
M  V30 122 H 9.7657 0.746993 -0.00313038 0
M  V30 123 H 12.4277 1.81414 -0.712397 0
M  V30 124 H 11.5237 3.11996 0.0805422 0
M  V30 125 N 11.8248 0.280983 1.55075 0
M  V30 126 C 13.0728 -0.333455 1.9933 0
M  V30 127 C 13.3938 -1.55937 1.17085 0
M  V30 128 O 12.6638 -1.94143 0.261805 0
M  V30 129 H 11.2438 -0.126197 0.736263 0
M  V30 130 H 13.9058 0.387678 1.91005 0
M  V30 131 H 13.0018 -0.619292 3.05894 0
M  V30 132 N 13.3029 -1.57598 0.00835791 0
M  V30 133 C 14.2659 -2.07884 -0.965242 0
M  V30 134 C 15.2659 -0.989825 -1.26725 0
M  V30 135 O 16.4559 -1.25218 -1.21104 0
M  V30 136 C 13.5879 -2.52731 -2.28779 0
M  V30 137 H 14.7809 -2.95178 -0.530112 0
M  V30 138 H 12.3339 -1.54458 -0.239283 0
M  V30 139 H 13.0689 -1.68705 -2.76964 0
M  V30 140 H 12.8539 -3.32272 -2.08177 0
M  V30 141 H 14.3439 -2.91933 -2.98605 0
M  V30 142 N 14.781 0.264519 -1.55364 0
M  V30 143 C 16.197 0.61215 -1.47394 0
M  V30 144 C 16.397 1.89134 -0.695018 0
M  V30 145 O 15.453 2.51563 -0.217275 0
M  V30 146 C 16.766 0.731235 -2.91674 0
M  V30 147 C 18.314 0.82473 -3.01939 0
M  V30 148 C 18.789 0.975522 -4.4749 0
M  V30 149 N 20.28 1.04083 -4.51354 0
M  V30 150 C 21.015 1.17646 -5.61201 0
M  V30 151 N 20.511 1.27874 -6.80896 0
M  V30 152 N 22.304 1.20823 -5.48961 0
M  V30 153 H 14.455 -0.575456 -2.04456 0
M  V30 154 H 16.718 -0.196099 -0.927496 0
M  V30 155 H 16.424 -0.138392 -3.51428 0
M  V30 156 H 16.298 1.60883 -3.41169 0
M  V30 157 H 18.685 1.68482 -2.42276 0
M  V30 158 H 18.766 -0.0776479 -2.55682 0
M  V30 159 H 18.41 0.120058 -5.07758 0
M  V30 160 H 18.34 1.89268 -4.91412 0
M  V30 161 H 20.831 0.973846 -3.65136 0
M  V30 162 H 21.144 1.38081 -7.60364 0
M  V30 163 H 19.489 1.24863 -6.83692 0
M  V30 164 H 22.68 1.12469 -4.54388 0
M  V30 165 H 22.853 1.31049 -6.3461 0
M  V30 166 N 16.2591 1.48442 0.529413 0
M  V30 167 C 17.5051 1.5672 1.28711 0
M  V30 168 C 17.8381 0.2406 1.92704 0
M  V30 169 O 17.1131 -0.753454 1.79313 0
M  V30 170 C 17.3961 2.70587 2.37603 0
M  V30 171 C 17.2491 4.12953 1.78297 0
M  V30 172 C 18.5681 2.80212 3.39366 0
M  V30 173 H 15.6871 0.570474 0.466613 0
M  V30 174 H 18.3291 1.80617 0.589706 0
M  V30 175 H 16.4791 2.50342 2.97088 0
M  V30 176 H 18.1511 4.44639 1.22858 0
M  V30 177 H 16.3941 4.19927 1.0883 0
M  V30 178 H 17.0651 4.88448 2.57144 0
M  V30 179 H 19.5411 2.98553 2.89836 0
M  V30 180 H 18.4171 3.61611 4.12951 0
M  V30 181 H 18.6781 1.88393 3.99951 0
M  V30 182 N 17.7372 -0.778329 1.37039 0
M  V30 183 C 18.7002 -1.87301 1.32102 0
M  V30 184 C 19.7002 -1.59198 0.226405 0
M  V30 185 O 20.8902 -1.67403 0.481861 0
M  V30 186 C 18.0222 -3.24309 1.05055 0
M  V30 187 H 19.2152 -1.93093 2.29467 0
M  V30 188 H 16.7682 -0.977358 1.21973 0
M  V30 189 H 17.5032 -3.24196 0.0819373 0
M  V30 190 H 17.2882 -3.46098 1.84279 0
M  V30 191 H 18.7782 -4.04382 1.04234 0
M  V30 192 N 19.2153 -1.21501 -1.00376 0
M  V30 193 C 20.4403 -1.05977 -1.78279 0
M  V30 194 C 20.8653 0.385994 -1.84097 0
M  V30 195 O 20.2233 1.27849 -1.28547 0
M  V30 196 C 20.2713 -1.66302 -3.19963 0
M  V30 197 O 19.3753 -0.909333 -4.0225 0
M  V30 198 H 18.7163 -0.372906 -0.549397 0
M  V30 199 H 21.2463 -1.6107 -1.26165 0
M  V30 200 H 21.2563 -1.70574 -3.70632 0
M  V30 201 H 19.9313 -2.71515 -3.15043 0
M  V30 202 H 18.5083 -0.941795 -3.60811 0
M  V30 203 N 20.6934 1.19889 -1.02296 0
M  V30 204 C 21.9334 1.91125 -0.724602 0
M  V30 205 C 22.2974 1.77464 0.732835 0
M  V30 206 O 23.4984 2.43241 1.144 0
M  V30 207 C 21.7694 3.38187 -1.15604 0
M  V30 208 S 23.3284 4.27702 -0.980621 0
M  V30 209 H 20.1464 0.66018 -0.263976 0
M  V30 210 H 22.7484 1.44978 -1.31155 0
M  V30 211 H 21.4524 3.45653 -2.21251 0
M  V30 212 H 20.9834 3.89363 -0.562131 0
M  V30 213 H 22.9984 4.96073 0.112225 0
M  V30 214 N 22.1715 0.800033 1.35784 0
M  V30 215 C 23.5875 0.482977 1.52117 0
M  V30 216 C 23.7875 -0.996948 1.75109 0
M  V30 217 O 22.8435 -1.78216 1.78872 0
M  V30 218 C 24.1565 1.32264 2.70049 0
M  V30 219 C 25.7045 1.31742 2.83924 0
M  V30 220 C 26.1795 2.14106 4.04874 0
M  V30 221 N 27.6705 2.11607 4.12039 0
M  V30 222 C 28.4055 2.72099 5.04727 0
M  V30 223 N 27.9015 3.41492 6.02789 0
M  V30 224 N 29.6945 2.61776 4.97423 0
M  V30 225 H 21.8455 1.75856 1.19115 0
M  V30 226 H 24.1085 0.748122 0.582252 0
M  V30 227 H 23.8145 2.37261 2.59616 0
M  V30 228 H 23.6885 0.971303 3.6448 0
M  V30 229 H 26.0755 0.275333 2.93813 0
M  V30 230 H 26.1565 1.70859 1.9037 0
M  V30 231 H 25.8005 3.18351 3.95746 0
M  V30 232 H 25.7305 1.72353 4.97596 0
M  V30 233 H 28.2215 1.61112 3.41835 0
M  V30 234 H 28.5345 3.84953 6.70098 0
M  V30 235 H 26.8795 3.45596 6.02983 0
M  V30 236 H 30.0705 2.07157 4.19766 0
M  V30 237 H 30.2435 3.0921 5.69468 0
M  V30 238 N 23.6496 -1.47581 0.552962 0
M  V30 239 C 24.8796 -2.06575 0.0320091 0
M  V30 240 C 25.2876 -1.4067 -1.26525 0
M  V30 241 O 24.6306 -0.495808 -1.76883 0
M  V30 242 C 24.6926 -3.58705 -0.238913 0
M  V30 243 C 24.3566 -4.46625 0.968272 0
M  V30 244 C 25.3536 -4.85 1.87274 0
M  V30 245 C 23.0386 -4.88201 1.18175 0
M  V30 246 C 25.0326 -5.63745 2.9744 0
M  V30 247 C 22.7196 -5.66712 2.28651 0
M  V30 248 C 23.7176 -6.04394 3.18114 0
M  V30 249 O 23.4056 -6.81324 4.26676 0
M  V30 250 H 23.1376 -0.674763 0.0408689 0
M  V30 251 H 25.6916 -1.90634 0.764719 0
M  V30 252 H 23.9216 -3.72844 -1.02588 0
M  V30 253 H 25.6106 -3.99735 -0.704731 0
M  V30 254 H 26.3766 -4.53482 1.71984 0
M  V30 255 H 22.2556 -4.58339 0.494593 0
M  V30 256 H 25.7996 -5.93077 3.67296 0
M  V30 257 H 21.6966 -5.97642 2.43915 0
M  V30 258 H 22.4646 -6.99712 4.24671 0
M  V30 259 N 25.1277 -0.289203 -1.54924 0
M  V30 260 C 26.5387 0.205791 -1.85562 0
M  V30 261 C 26.8897 1.54351 -1.2112 0
M  V30 262 O 26.0147 2.10435 -0.504601 0
M  V30 263 C 26.6097 0.380177 -3.3666 0
M  V30 264 C 25.1687 0.819395 -3.67373 0
M  V30 265 C 24.3157 -0.079159 -2.77187 0
M  V30 266 H 27.2667 -0.510577 -1.50262 0
M  V30 267 H 27.2877 1.21659 -3.60526 0
M  V30 268 H 26.7997 -0.593589 -3.83534 0
M  V30 269 H 24.9007 1.80413 -3.26009 0
M  V30 270 H 25.0137 0.646957 -4.74712 0
M  V30 271 H 23.3777 0.439565 -2.50878 0
M  V30 272 H 24.1607 -1.04906 -3.26878 0
M  V30 273 N 26.6058 1.57591 -0.0167156 0
M  V30 274 C 27.5688 2.08393 0.954204 0
M  V30 275 C 28.5688 0.996531 1.26198 0
M  V30 276 O 29.7588 1.25858 1.20438 0
M  V30 277 C 26.8908 2.5394 2.27436 0
M  V30 278 H 28.0838 2.95455 0.514451 0
M  V30 279 H 25.6368 1.54582 0.231089 0
M  V30 280 H 26.3718 1.70171 2.76066 0
M  V30 281 H 26.1568 3.33371 2.06412 0
M  V30 282 H 27.6468 2.93512 2.97053 0
M  V30 283 N 28.0839 -0.256276 1.55502 0
M  V30 284 C 29.0139 -1.32102 1.92539 0
M  V30 285 C 29.9949 -1.50684 0.789194 0
M  V30 286 O 31.1799 -1.63449 1.04872 0
M  V30 287 C 28.3099 -2.67752 2.21192 0
M  V30 288 C 27.2639 -2.63878 3.36975 0
M  V30 289 C 26.5899 -4.03236 3.51147 0
M  V30 290 C 27.8899 -2.21682 4.72921 0
M  V30 291 H 29.5839 -1.01351 2.81724 0
M  V30 292 H 27.1299 -0.486105 1.35547 0
M  V30 293 H 29.0829 -3.42365 2.45691 0
M  V30 294 H 27.8069 -3.0012 1.28824 0
M  V30 295 H 26.4659 -1.91722 3.12471 0
M  V30 296 H 26.1139 -4.32854 2.56216 0
M  V30 297 H 25.8139 -4.01535 4.29003 0
M  V30 298 H 27.3379 -4.79563 3.77957 0
M  V30 299 H 28.7519 -2.86023 4.96854 0
M  V30 300 H 27.1489 -2.3111 5.53812 0
M  V30 301 H 28.2189 -1.16833 4.70615 0
M  V30 302 N 29.562 -1.4872 -0.521534 0
M  V30 303 C 30.81 -1.56857 -1.27437 0
M  V30 304 C 31.131 -0.247982 -1.93417 0
M  V30 305 O 30.401 0.731151 -1.81744 0
M  V30 306 H 28.981 -0.577885 -0.473347 0
M  V30 307 H 31.643 -1.85233 -0.606205 0
M  V30 308 H 30.739 -2.35402 -2.0492 0
M  V30 309 N 31.0401 0.771051 -1.3745 0
M  V30 310 C 32.4511 1.34737 -1.29239 0
M  V30 311 C 32.8021 1.96109 0.0596908 0
M  V30 312 O 31.9271 1.93865 0.961534 0
M  V30 313 C 32.5221 2.44973 -2.34037 0
M  V30 314 C 31.0811 2.98372 -2.29458 0
M  V30 315 C 30.2281 1.71595 -2.17831 0
M  V30 316 H 33.1791 0.571256 -1.48062 0
M  V30 317 H 33.2001 3.24471 -1.98744 0
M  V30 318 H 32.7121 2.00276 -3.32432 0
M  V30 319 H 30.8131 3.47443 -1.34589 0
M  V30 320 H 30.9261 3.53939 -3.229 0
M  V30 321 H 29.2901 1.94547 -1.64388 0
M  V30 322 H 30.0731 1.29001 -3.18141 0
M  V30 323 N 32.5182 1.22032 0.997298 0
M  V30 324 C 33.9342 0.979326 1.26021 0
M  V30 325 C 34.1342 -0.32972 1.98784 0
M  V30 326 O 33.1902 -1.05345 2.29475 0
M  V30 327 C 34.5032 2.17509 2.07631 0
M  V30 328 C 36.0512 2.21817 2.2083 0
M  V30 329 C 36.5262 3.40933 3.05825 0
M  V30 330 N 38.0172 3.41067 3.13412 0
M  V30 331 C 38.7522 4.29885 3.79455 0
M  V30 332 N 38.2482 5.28914 4.47462 0
M  V30 333 N 40.0412 4.17673 3.76173 0
M  V30 334 H 32.1922 2.06202 0.509352 0
M  V30 335 H 34.4552 0.90334 0.287541 0
M  V30 336 H 34.1612 3.12415 1.61524 0
M  V30 337 H 34.0352 2.17206 3.08385 0
M  V30 338 H 36.4222 1.27462 2.66153 0
M  V30 339 H 36.5032 2.2616 1.1952 0
M  V30 340 H 36.1472 4.35586 2.61203 0
M  V30 341 H 36.0772 3.33829 4.07266 0
M  V30 342 H 38.5682 2.69406 2.65007 0
M  V30 343 H 38.8812 5.92973 4.95583 0
M  V30 344 H 37.2262 5.32831 4.46224 0
M  V30 345 H 40.4172 3.39564 3.22202 0
M  V30 346 H 40.5902 4.87098 4.27363 0
M  V30 347 N 33.9963 -1.19345 1.0293 0
M  V30 348 C 34.9263 -2.2481 0.631105 0
M  V30 349 C 35.9073 -1.66245 -0.360104 0
M  V30 350 O 37.0923 -1.92677 -0.242726 0
M  V30 351 C 34.2223 -3.47295 -0.0184607 0
M  V30 352 C 33.1763 -4.18536 0.895073 0
M  V30 353 C 32.5023 -5.34586 0.110592 0
M  V30 354 C 33.8023 -4.73287 2.209 0
M  V30 355 H 35.4963 -2.58372 1.51275 0
M  V30 356 H 33.0423 -1.24194 0.728818 0
M  V30 357 H 34.9953 -4.20268 -0.308675 0
M  V30 358 H 33.7193 -3.12933 -0.934907 0
M  V30 359 H 32.3783 -3.47446 1.16949 0
M  V30 360 H 32.0263 -4.96469 -0.807902 0
M  V30 361 H 31.7263 -5.83183 0.719087 0
M  V30 362 H 33.2503 -6.10355 -0.172871 0
M  V30 363 H 34.6643 -5.38013 1.98028 0
M  V30 364 H 33.0613 -5.32373 2.76946 0
M  V30 365 H 34.1313 -3.91331 2.86336 0
M  V30 366 N 35.4744 -0.807222 -1.35358 0
M  V30 367 C 36.4374 -0.223665 -2.28106 0
M  V30 368 C 37.4374 0.589354 -1.4961 0
M  V30 369 O 38.6274 0.407745 -1.69361 0
M  V30 370 C 35.7594 0.688149 -3.33882 0
M  V30 371 H 36.9524 -1.04169 -2.81227 0
M  V30 372 H 34.5054 -0.577921 -1.45223 0
M  V30 373 H 35.2404 1.52984 -2.85948 0
M  V30 374 H 35.0254 0.10687 -3.91954 0
M  V30 375 H 36.5154 1.09075 -4.03104 0
M  V30 376 N 36.9525 1.47285 -0.560781 0
M  V30 377 C 37.9155 2.28535 0.174488 0
M  V30 378 C 38.9155 1.37153 0.839388 0
M  V30 379 O 40.1055 1.59748 0.694702 0
M  V30 380 C 37.2375 3.16934 1.25561 0
M  V30 381 H 38.4305 2.95012 -0.539262 0
M  V30 382 H 35.9835 1.53034 -0.317865 0
M  V30 383 H 36.7185 2.55157 2.00164 0
M  V30 384 H 36.5035 3.8419 0.783604 0
M  V30 385 H 37.9935 3.78143 1.77193 0
M  V30 386 N 38.4306 0.297415 1.54768 0
M  V30 387 C 39.3806 -0.595275 2.20092 0
M  V30 388 C 40.3646 -1.10163 1.17273 0
M  V30 389 O 41.5566 -1.043 1.43006 0
M  V30 390 C 38.6856 -1.7684 2.94249 0
M  V30 391 C 37.7716 -1.27818 4.0438 0
M  V30 392 N 38.1626 -0.505695 5.03266 0
M  V30 393 C 36.4606 -1.55923 4.17857 0
M  V30 394 C 37.1616 -0.245094 5.81183 0
M  V30 395 N 36.1376 -0.823881 5.3732 0
M  V30 396 H 39.9396 0.00250837 2.939 0
M  V30 397 H 37.4536 0.102007 1.62079 0
M  V30 398 H 39.4506 -2.41944 3.39513 0
M  V30 399 H 38.1106 -2.36992 2.21957 0
M  V30 400 H 39.1216 -0.150928 5.1768 0
M  V30 401 H 35.7986 -2.16849 3.56767 0
M  V30 402 H 37.1886 0.375084 6.70852 0
M  V30 403 N 39.9087 -1.5758 0.0250728 0
M  V30 404 C 41.1557 -1.91633 -0.654444 0
M  V30 405 C 41.4837 -0.901103 -1.72367 0
M  V30 406 O 40.7387 0.0905647 -1.9549 0
M  V30 407 C 41.0377 -3.32421 -1.31268 0
M  V30 408 C 40.7037 -4.49344 -0.374223 0
M  V30 409 C 39.3657 -4.8106 -0.115911 0
M  V30 410 C 41.7177 -5.20498 0.270432 0
M  V30 411 C 39.0457 -5.8129 0.79493 0
M  V30 412 C 41.3977 -6.21699 1.1693 0
M  V30 413 C 40.0617 -6.51859 1.43655 0
M  V30 414 H 39.3317 -0.701236 -0.239478 0
M  V30 415 H 41.9787 -1.91307 0.0859734 0
M  V30 416 H 40.2837 -3.28989 -2.12775 0
M  V30 417 H 41.9807 -3.56038 -1.84494 0
M  V30 418 H 38.5707 -4.24579 -0.58573 0
M  V30 419 H 42.7547 -4.96229 0.0839194 0
M  V30 420 H 38.0107 -6.03005 1.00973 0
M  V30 421 H 42.1847 -6.75955 1.67504 0
M  V30 422 H 39.8117 -7.2934 2.144 0
M  V30 423 N 41.3868 0.248026 -1.55636 0
M  V30 424 C 42.7978 0.817177 -1.67866 0
M  V30 425 C 43.1488 1.86069 -0.622322 0
M  V30 426 O 42.2738 2.15157 0.231618 0
M  V30 427 C 42.8688 1.489 -3.04326 0
M  V30 428 C 41.4278 2.00587 -3.185 0
M  V30 429 C 40.5748 0.856573 -2.63739 0
M  V30 430 H 43.5258 0.0238579 -1.58682 0
M  V30 431 H 43.5468 2.35698 -2.98708 0
M  V30 432 H 43.0588 0.729279 -3.81186 0
M  V30 433 H 41.1598 2.79443 -2.4646 0
M  V30 434 H 41.2728 2.20402 -4.25393 0
M  V30 435 H 39.6368 1.25678 -2.21534 0
M  V30 436 H 40.4198 0.109953 -3.43124 0
M  V30 437 N 42.8649 1.48995 0.513639 0
M  V30 438 C 43.8279 1.64229 1.59879 0
M  V30 439 C 44.8279 0.514696 1.5234 0
M  V30 440 O 46.0179 0.78087 1.55718 0
M  V30 441 C 43.1499 1.62783 2.99524 0
M  V30 442 H 44.3429 2.61004 1.47705 0
M  V30 443 H 41.8959 1.37837 0.736936 0
M  V30 444 H 42.6309 0.675461 3.17188 0
M  V30 445 H 42.4159 2.4466 3.06404 0
M  V30 446 H 43.9059 1.76669 3.78388 0
M  V30 447 N 44.343 -0.763751 1.37857 0
M  V30 448 C 45.275 -1.88664 1.30148 0
M  V30 449 C 46.288 -1.61365 0.215685 0
M  V30 450 O 47.477 -1.72134 0.472459 0
M  V30 451 C 44.577 -3.24075 0.991396 0
M  V30 452 C 43.75 -3.78958 2.18426 0
M  V30 453 C 42.809 -4.92862 1.8432 0
M  V30 454 O 41.835 -5.08027 2.56704 0
M  V30 455 N 43.037 -5.75071 0.792081 0
M  V30 456 H 45.802 -1.95791 2.26905 0
M  V30 457 H 43.363 -0.943226 1.31586 0
M  V30 458 H 45.355 -3.97804 0.743935 0
M  V30 459 H 43.925 -3.12399 0.112122 0
M  V30 460 H 43.145 -2.96913 2.59299 0
M  V30 461 H 44.433 -4.12357 2.98058 0
M  V30 462 H 43.831 -5.65375 0.191595 0
M  V30 463 H 42.388 -6.48991 0.60449 0
M  V30 464 N 45.8211 -1.22559 -0.990812 0
M  V30 465 C 47.2371 -0.985996 -1.255 0
M  V30 466 C 47.4371 0.319173 -1.98956 0
M  V30 467 O 46.4931 1.04127 -2.3003 0
M  V30 468 C 47.8061 -2.18607 -2.06474 0
M  V30 469 C 49.3541 -2.22985 -2.19651 0
M  V30 470 C 49.8291 -3.4255 -3.04012 0
M  V30 471 N 51.3201 -3.42725 -3.11599 0
M  V30 472 C 52.0551 -4.31892 -3.7717 0
M  V30 473 N 51.5511 -5.31279 -4.44651 0
M  V30 474 N 53.3441 -4.19662 -3.73952 0
M  V30 475 H 45.4951 -2.06469 -0.49841 0
M  V30 476 H 47.7581 -0.904853 -0.282747 0
M  V30 477 H 47.4641 -3.13267 -1.59865 0
M  V30 478 H 47.3381 -2.18838 -3.07229 0
M  V30 479 H 49.7251 -1.28871 -2.65474 0
M  V30 480 H 49.8061 -2.26791 -1.18319 0
M  V30 481 H 49.4501 -4.36965 -2.58889 0
M  V30 482 H 49.3801 -3.35984 -4.0549 0
M  V30 483 H 51.8711 -2.70807 -2.63575 0
M  V30 484 H 52.1841 -5.95593 -4.92431 0
M  V30 485 H 50.5291 -5.3519 -4.43392 0
M  V30 486 H 53.7201 -3.41268 -3.20396 0
M  V30 487 H 53.8931 -4.89358 -4.24774 0
M  V30 488 N 47.2992 1.18797 -1.03562 0
M  V30 489 C 48.7102 1.70322 -0.764676 0
M  V30 490 C 49.0612 1.82708 0.714996 0
M  V30 491 O 48.1862 1.50299 1.55689 0
M  V30 492 C 48.7812 3.09356 -1.38145 0
M  V30 493 C 47.3402 3.58114 -1.15895 0
M  V30 494 C 46.4872 2.34798 -1.4753 0
M  V30 495 H 49.4382 1.03543 -1.20268 0
M  V30 496 H 49.4592 3.72378 -0.781977 0
M  V30 497 H 48.9712 3.00309 -2.45837 0
M  V30 498 H 47.0722 3.72464 -0.100544 0
M  V30 499 H 47.1852 4.4184 -1.8524 0
M  V30 500 H 45.5492 2.38464 -0.894829 0
M  V30 501 H 46.3322 2.28375 -2.56319 0
M  V30 502 N 48.7773 0.814389 1.34928 0
M  V30 503 C 50.1883 0.458364 1.80986 0
M  V30 504 C 50.5393 -1.02042 1.67577 0
M  V30 505 O 49.6643 -1.79352 1.21086 0
M  V30 506 C 50.2593 0.825212 3.28597 0
M  V30 507 C 48.8183 0.521677 3.72767 0
M  V30 508 C 47.9653 1.04668 2.56788 0
M  V30 509 H 50.9163 1.00533 1.22795 0
M  V30 510 H 50.9373 0.12571 3.80292 0
M  V30 511 H 50.4493 1.90154 3.38324 0
M  V30 512 H 48.5503 -0.545589 3.68584 0
M  V30 513 H 48.6633 1.05977 4.67232 0
M  V30 514 H 47.0273 0.468622 2.50352 0
M  V30 515 H 47.8103 2.12927 2.6929 0
M  V30 516 N 50.2554 -1.46986 0.568584 0
M  V30 517 C 51.1874 -2.28233 -0.210337 0
M  V30 518 C 52.2004 -1.37682 -0.868767 0
M  V30 519 O 53.3894 -1.62406 -0.740705 0
M  V30 520 C 50.4894 -3.12293 -1.3163 0
M  V30 521 C 49.6624 -4.30878 -0.7525 0
M  V30 522 C 48.7214 -4.96445 -1.74439 0
M  V30 523 O 47.7474 -5.54482 -1.286 0
M  V30 524 N 48.9494 -4.92171 -3.07812 0
M  V30 525 H 51.7144 -2.95723 0.486648 0
M  V30 526 H 49.2754 -1.56742 0.405409 0
M  V30 527 H 51.2674 -3.53022 -1.97883 0
M  V30 528 H 49.8374 -2.46971 -1.91636 0
M  V30 529 H 49.0574 -3.94104 0.0871128 0
M  V30 530 H 50.3454 -5.07558 -0.35536 0
M  V30 531 H 49.7434 -4.46239 -3.47688 0
M  V30 532 H 48.3004 -5.36884 -3.69592 0
M  V30 533 N 51.7335 -0.305618 -1.54608 0
M  V30 534 C 53.1495 0.0476228 -1.59529 0
M  V30 535 C 53.3495 1.52025 -1.32252 0
M  V30 536 O 52.4055 2.27368 -1.09818 0
M  V30 537 C 53.7185 -0.354471 -2.98603 0
M  V30 538 C 55.2665 -0.303622 -3.11524 0
M  V30 539 C 55.7415 -0.680608 -4.52915 0
M  V30 540 N 57.2325 -0.63332 -4.5885 0
M  V30 541 C 57.9675 -0.897432 -5.66334 0
M  V30 542 N 57.4635 -1.22775 -6.81834 0
M  V30 543 N 59.2565 -0.824186 -5.56025 0
M  V30 544 H 51.4075 -1.2653 -1.70599 0
M  V30 545 H 53.6705 -0.513291 -0.797017 0
M  V30 546 H 53.3765 -1.3798 -3.23503 0
M  V30 547 H 53.2505 0.289568 -3.76087 0
M  V30 548 H 55.6375 0.712472 -2.8637 0
M  V30 549 H 55.7185 -0.982348 -2.36185 0
M  V30 550 H 55.3625 -1.69453 -4.78799 0
M  V30 551 H 55.2925 0.0202385 -5.26596 0
M  V30 552 H 57.7835 -0.389138 -3.75891 0
M  V30 553 H 58.0965 -1.41513 -7.59733 0
M  V30 554 H 56.4415 -1.26583 -6.83375 0
M  V30 555 H 59.6325 -0.565748 -4.64669 0
M  V30 556 H 59.8055 -1.03338 -6.39707 0
M  V30 557 N 53.2116 1.57565 -0.0334293 0
M  V30 558 C 54.4396 1.9628 0.654347 0
M  V30 559 C 54.8546 0.910138 1.65414 0
M  V30 560 O 54.2116 -0.107595 1.82183 0
M  V30 561 C 54.2626 3.35067 1.35693 0
M  V30 562 O 53.9836 4.36296 0.397191 0
M  V30 563 C 55.4846 3.88439 2.13613 0
M  V30 564 H 52.7046 0.646369 0.180132 0
M  V30 565 H 55.2486 2.04282 -0.0944721 0
M  V30 566 H 53.4036 3.2827 2.05712 0
M  V30 567 H 53.8176 5.1678 0.896597 0
M  V30 568 H 55.2916 4.8788 2.58219 0
M  V30 569 H 55.7686 3.22914 2.97696 0
M  V30 570 H 56.3746 3.98516 1.48543 0
M  V30 571 N 54.6897 -0.239769 1.55765 0
M  V30 572 C 55.6197 -1.30052 1.9393 0
M  V30 573 C 56.6007 -1.49839 0.805132 0
M  V30 574 O 57.7857 -1.62328 1.06599 0
M  V30 575 C 54.9157 -2.65391 2.2402 0
M  V30 576 C 53.8697 -2.60289 3.39755 0
M  V30 577 C 53.1957 -3.99489 3.55405 0
M  V30 578 C 54.4957 -2.16654 4.75246 0
M  V30 579 H 56.1897 -0.983573 2.82783 0
M  V30 580 H 53.7357 -0.471701 1.36055 0
M  V30 581 H 55.6887 -3.3974 2.49308 0
M  V30 582 H 54.4127 -2.98736 1.32 0
M  V30 583 H 53.0717 -1.88398 3.14487 0
M  V30 584 H 52.7197 -4.30112 2.60793 0
M  V30 585 H 52.4197 -3.96962 4.33238 0
M  V30 586 H 53.9437 -4.75528 3.83022 0
M  V30 587 H 55.3577 -2.80737 4.99859 0
M  V30 588 H 53.7547 -2.25223 5.56232 0
M  V30 589 H 54.8247 -1.11835 4.71827 0
M  V30 590 N 56.1678 -1.49265 -0.50573 0
M  V30 591 C 57.0998 -1.617 -1.62437 0
M  V30 592 C 58.1128 -0.499924 -1.54934 0
M  V30 593 O 59.3018 -0.771785 -1.60953 0
M  V30 594 C 56.4018 -1.5533 -3.01207 0
M  V30 595 C 55.5748 -2.8249 -3.33943 0
M  V30 596 C 54.6338 -2.69238 -4.52103 0
M  V30 597 O 53.6598 -3.43167 -4.5412 0
M  V30 598 N 54.8618 -1.80468 -5.51735 0
M  V30 599 H 57.6268 -2.58177 -1.52199 0
M  V30 600 H 55.1878 -1.46294 -0.693511 0
M  V30 601 H 57.1798 -1.44125 -3.78167 0
M  V30 602 H 55.7498 -0.667297 -3.05395 0
M  V30 603 H 54.9698 -3.08081 -2.45926 0
M  V30 604 H 56.2578 -3.66802 -3.5261 0
M  V30 605 H 55.6558 -1.19653 -5.52901 0
M  V30 606 H 54.2128 -1.75188 -6.27816 0
M  V30 607 N 57.6459 0.756429 -1.3826 0
M  V30 608 C 58.5939 1.89149 -1.35372 0
M  V30 609 C 59.5879 1.67691 -0.24004 0
M  V30 610 O 60.7939 1.75294 -0.408919 0
M  V30 611 H 57.1689 0.622271 -0.422236 0
M  V30 612 H 59.1399 1.88701 -2.31159 0
M  V30 613 C 57.8889 3.26599 -1.19284 0
M  V30 614 H 57.2119 3.43695 -2.0424 0
M  V30 615 H 58.6519 4.06274 -1.21316 0
M  V30 616 C 57.1109 3.3675 0.100454 0
M  V30 617 O 57.6409 3.86951 1.07851 0
M  V30 618 N 55.8469 2.90179 0.15633 0
M  V30 619 H 55.3939 2.49517 -0.640253 0
M  V30 620 H 55.3519 2.97352 1.02123 0
M  V30 621 N 59.124 1.23083 0.984299 0
M  V30 622 C 60.372 1.05848 1.72165 0
M  V30 623 C 60.693 -0.406049 1.90726 0
M  V30 624 O 59.963 -1.29139 1.47309 0
M  V30 625 H 58.543 0.388685 0.637913 0
M  V30 626 H 61.205 1.54736 1.18503 0
M  V30 627 H 60.301 1.54327 2.71274 0
M  V30 628 N 60.6021 -1.18246 1.0419 0
M  V30 629 C 61.5321 -2.24127 0.654914 0
M  V30 630 C 62.5131 -1.66617 -0.342451 0
M  V30 631 O 63.6981 -1.92924 -0.222277 0
M  V30 632 C 60.8281 -3.47295 0.0183757 0
M  V30 633 C 59.7821 -4.17563 0.939414 0
M  V30 634 C 59.1081 -5.34438 0.167286 0
M  V30 635 C 60.4081 -4.70917 2.25908 0
M  V30 636 H 62.1021 -2.56753 1.54007 0
M  V30 637 H 59.6481 -1.23414 0.74195 0
M  V30 638 H 61.6011 -4.20572 -0.264082 0
M  V30 639 H 60.3251 -3.13907 -0.901664 0
M  V30 640 H 58.9841 -3.46186 1.20628 0
M  V30 641 H 58.6321 -4.97298 -0.7552 0
M  V30 642 H 58.3321 -5.82388 0.780901 0
M  V30 643 H 59.8561 -6.10504 -0.108125 0
M  V30 644 H 61.2701 -5.35882 2.03724 0
M  V30 645 H 59.6671 -5.29406 2.82577 0
M  V30 646 H 60.7371 -3.88272 2.9047 0
M  V30 647 N 62.0802 -0.821533 -1.34494 0
M  V30 648 C 63.0432 -0.247847 -2.27856 0
M  V30 649 C 64.0432 0.573453 -1.50227 0
M  V30 650 O 65.2332 0.389759 -1.69784 0
M  V30 651 C 62.3652 0.652698 -3.34593 0
M  V30 652 H 63.5582 -1.07146 -2.80107 0
M  V30 653 H 61.1112 -0.593291 -1.44602 0
M  V30 654 H 61.8462 1.49943 -2.87555 0
M  V30 655 H 61.6312 0.065292 -3.92046 0
M  V30 656 H 63.1212 1.04793 -4.04238 0
M  V30 657 N 63.5583 1.46682 -0.576371 0
M  V30 658 C 64.4883 2.33028 0.148397 0
M  V30 659 C 65.4693 1.44961 0.889956 0
M  V30 660 O 66.6543 1.73789 0.866662 0
M  V30 661 C 63.7843 3.27117 1.1667 0
M  V30 662 C 62.7383 4.24575 0.540386 0
M  V30 663 C 62.0643 5.08126 1.6647 0
M  V30 664 C 63.3643 5.19722 -0.518331 0
M  V30 665 H 65.0583 2.93875 -0.572509 0
M  V30 666 H 62.6043 1.41315 -0.276768 0
M  V30 667 H 64.5573 3.86374 1.68204 0
M  V30 668 H 63.2813 2.64364 1.9178 0
M  V30 669 H 61.9403 3.66571 0.0461769 0
M  V30 670 H 61.5883 4.41762 2.40531 0
M  V30 671 H 61.2883 5.74122 1.25131 0
M  V30 672 H 62.8123 5.70246 2.18293 0
M  V30 673 H 64.2263 5.73232 -0.0883058 0
M  V30 674 H 62.6233 5.94026 -0.851679 0
M  V30 675 H 63.6933 4.64037 -1.40703 0
M  V30 676 N 65.0364 0.313813 1.54444 0
M  V30 677 C 65.9684 -0.590425 2.21465 0
M  V30 678 C 66.9814 -1.08753 1.21147 0
M  V30 679 O 68.1704 -1.00278 1.4767 0
M  V30 680 C 65.2704 -1.82179 2.85769 0
M  V30 681 C 64.4434 -1.46502 4.12136 0
M  V30 682 C 63.5024 -2.55288 4.60124 0
M  V30 683 O 62.5284 -2.19842 5.25032 0
M  V30 684 N 63.7304 -3.86053 4.33525 0
M  V30 685 H 66.4954 -0.0166033 2.99695 0
M  V30 686 H 64.0564 0.136578 1.61323 0
M  V30 687 H 66.0484 -2.54328 3.14801 0
M  V30 688 H 64.6184 -2.30369 2.11303 0
M  V30 689 H 63.8384 -0.575595 3.89975 0
M  V30 690 H 65.1264 -1.20221 4.94393 0
M  V30 691 H 64.5244 -4.17654 3.81552 0
M  V30 692 H 63.0814 -4.54461 4.67235 0
M  V30 693 N 66.5145 -1.57545 0.0417849 0
M  V30 694 C 67.9305 -1.56467 -0.314704 0
M  V30 695 C 68.1305 -1.04859 -1.72066 0
M  V30 696 O 67.1865 -0.700983 -2.42575 0
M  V30 697 C 68.4995 -3.00317 -0.15174 0
M  V30 698 C 70.0475 -3.12201 -0.223553 0
M  V30 699 C 70.5225 -4.57913 -0.0892295 0
M  V30 700 N 72.0135 -4.6297 -0.145808 0
M  V30 701 C 72.7485 -5.73362 -0.0658459 0
M  V30 702 N 72.2445 -6.92769 0.0659282 0
M  V30 703 N 74.0375 -5.6197 -0.12075 0
M  V30 704 H 66.1885 -1.89416 0.961014 0
M  V30 705 H 68.4515 -0.871862 0.372237 0
M  V30 706 H 68.1575 -3.42073 0.817254 0
M  V30 707 H 68.0315 -3.65892 -0.916692 0
M  V30 708 H 70.4185 -2.70349 -1.18301 0
M  V30 709 H 70.4995 -2.49323 0.571994 0
M  V30 710 H 70.1435 -5.00448 0.866867 0
M  V30 711 H 70.0735 -5.18786 -0.903802 0
M  V30 712 H 72.5645 -3.7709 -0.247286 0
M  V30 713 H 72.8775 -7.72707 0.119905 0
M  V30 714 H 71.2225 -6.94927 0.100885 0
M  V30 715 H 74.4135 -4.67572 -0.222187 0
M  V30 716 H 74.5865 -6.47977 -0.0549735 0
M  V30 717 N 67.9926 0.231505 -1.5589 0
M  V30 718 C 69.2326 0.964533 -1.80211 0
M  V30 719 C 69.5966 1.81926 -0.613744 0
M  V30 720 O 70.7976 2.58526 -0.736045 0
M  V30 721 C 69.0686 1.78956 -3.09369 0
M  V30 722 S 70.6276 2.57959 -3.54969 0
M  V30 723 H 67.4456 0.324173 -0.632798 0
M  V30 724 H 70.0476 0.230985 -1.94131 0
M  V30 725 H 68.7516 1.15161 -3.93911 0
M  V30 726 H 68.2826 2.56559 -2.9823 0
M  V30 727 H 70.2976 3.81309 -3.17519 0
M  V30 728 N 69.4707 1.49531 0.497807 0
M  V30 729 C 70.4007 1.6935 1.60757 0
M  V30 730 C 71.3817 0.542218 1.61227 0
M  V30 731 O 72.5667 0.778417 1.77917 0
M  V30 732 C 69.6967 1.76298 2.99226 0
M  V30 733 C 68.6507 2.91248 3.13622 0
M  V30 734 C 67.9767 2.83312 4.53474 0
M  V30 735 C 69.2767 4.3214 2.93346 0
M  V30 736 H 70.9707 2.62263 1.44425 0
M  V30 737 H 68.5167 1.26208 0.693367 0
M  V30 738 H 70.4697 1.88749 3.76765 0
M  V30 739 H 69.1937 0.799871 3.16654 0
M  V30 740 H 67.8527 2.78404 2.38509 0
M  V30 741 H 67.5007 1.84902 4.67782 0
M  V30 742 H 67.2007 3.60465 4.64046 0
M  V30 743 H 68.7247 2.97775 5.33069 0
M  V30 744 H 70.1387 4.45649 3.60652 0
M  V30 745 H 68.5357 5.1054 3.15387 0
M  V30 746 H 69.6057 4.46363 1.89441 0
M  V30 747 N 70.9488 -0.749086 1.3866 0
M  V30 748 C 71.8988 -1.85368 1.32751 0
M  V30 749 C 72.8828 -1.59511 0.210945 0
M  V30 750 O 74.0748 -1.71255 0.447299 0
M  V30 751 C 71.2038 -3.23131 1.15935 0
M  V30 752 C 70.2898 -3.54864 2.32233 0
M  V30 753 N 70.6808 -3.57625 3.57684 0
M  V30 754 C 68.9788 -3.85154 2.24883 0
M  V30 755 C 69.6798 -3.86753 4.34508 0
M  V30 756 N 68.6558 -4.03812 3.63918 0
M  V30 757 H 72.4578 -1.85787 2.27729 0
M  V30 758 H 69.9718 -0.946658 1.31955 0
M  V30 759 H 71.9688 -4.02185 1.09786 0
M  V30 760 H 70.6288 -3.23961 0.218947 0
M  V30 761 H 71.6398 -3.39276 3.91295 0
M  V30 762 H 68.3168 -3.93672 1.39027 0
M  V30 763 H 69.7068 -3.95474 5.43185 0
M  V30 764 N 72.4269 -1.23603 -0.977757 0
M  V30 765 C 73.3899 -1.02069 -2.05218 0
M  V30 766 C 74.3899 0.0184305 -1.60789 0
M  V30 767 O 75.5799 -0.221569 -1.72785 0
M  V30 768 C 72.7119 -0.544926 -3.36517 0
M  V30 769 H 73.9049 -1.9742 -2.25755 0
M  V30 770 H 71.4579 -1.05684 -1.15155 0
M  V30 771 H 72.1929 0.412241 -3.21669 0
M  V30 772 H 71.9779 -1.2948 -3.70105 0
M  V30 773 H 73.4679 -0.414985 -4.15533 0
M  V30 774 N 73.905 1.17692 -1.04816 0
M  V30 775 C 75.133 1.91786 -0.776254 0
M  V30 776 C 75.548 1.76604 0.667577 0
M  V30 777 O 74.905 1.10067 1.45573 0
M  V30 778 C 74.956 3.42967 -1.14263 0
M  V30 779 O 74.677 3.57678 -2.52978 0
M  V30 780 C 76.178 4.34144 -0.896311 0
M  V30 781 H 73.398 0.608624 -0.282519 0
M  V30 782 H 75.942 1.49268 -1.39783 0
M  V30 783 H 74.097 3.83245 -0.565874 0
M  V30 784 H 74.511 4.51319 -2.67229 0
M  V30 785 H 75.985 5.38744 -1.20244 0
M  V30 786 H 76.462 4.38876 0.168636 0
M  V30 787 H 77.068 3.99574 -1.45672 0
M  V30 788 N 75.3831 0.828654 1.34056 0
M  V30 789 C 76.3461 0.259927 2.27721 0
M  V30 790 C 77.3461 -0.565478 1.50529 0
M  V30 791 O 78.5361 -0.38075 1.69988 0
M  V30 792 C 75.6681 -0.634944 3.34935 0
M  V30 793 H 76.8611 1.0863 2.79534 0
M  V30 794 H 74.4141 0.600951 1.44285 0
M  V30 795 H 75.1491 -1.48416 2.88346 0
M  V30 796 H 74.9341 -0.0444999 3.92075 0
M  V30 797 H 76.4241 -1.02648 4.04788 0
M  V30 798 N 76.8612 -1.46375 0.584142 0
M  V30 799 C 78.0892 -2.06761 0.0759296 0
M  V30 800 C 78.5042 -1.43266 -1.22965 0
M  V30 801 O 77.8612 -0.538458 -1.74376 0
M  V30 802 C 77.9122 -3.61375 -0.0950384 0
M  V30 803 O 77.6332 -4.22495 1.15887 0
M  V30 804 C 79.1342 -4.38693 -0.637434 0
M  V30 805 H 76.3542 -0.668479 0.0581075 0
M  V30 806 H 78.8982 -1.8798 0.805218 0
M  V30 807 H 77.0532 -3.79578 -0.774554 0
M  V30 808 H 77.4672 -5.15385 0.973598 0
M  V30 809 H 78.9412 -5.47464 -0.706237 0
M  V30 810 H 79.4182 -4.06836 -1.65472 0
M  V30 811 H 80.0242 -4.25299 0.00725967 0
M  V30 812 N 78.3393 -0.321999 -1.54275 0
M  V30 813 C 79.7553 0.0306999 -1.5957 0
M  V30 814 C 79.9553 1.50614 -1.33857 0
M  V30 815 O 79.0113 2.2619 -1.12223 0
M  V30 816 C 80.3243 -0.386122 -2.98211 0
M  V30 817 C 81.8723 -0.336647 -3.11184 0
M  V30 818 C 82.3473 -0.728607 -4.52167 0
M  V30 819 N 83.8383 -0.681952 -4.58152 0
M  V30 820 C 84.5733 -0.957449 -5.6535 0
M  V30 821 N 84.0693 -1.3 -6.80494 0
M  V30 822 N 85.8623 -0.883113 -5.55119 0
M  V30 823 H 78.0133 -1.28332 -1.69247 0
M  V30 824 H 80.2763 -0.521716 -0.791528 0
M  V30 825 H 79.9823 -1.41404 -3.22022 0
M  V30 826 H 79.8563 0.249662 -3.76373 0
M  V30 827 H 82.2433 0.682058 -2.8711 0
M  V30 828 H 82.3243 -1.00734 -2.3513 0
M  V30 829 H 81.9683 -1.74522 -4.76974 0
M  V30 830 H 81.8983 -0.0356152 -5.26588 0
M  V30 831 H 84.3893 -0.428985 -3.75457 0
M  V30 832 H 84.7023 -1.49563 -7.58189 0
M  V30 833 H 83.0473 -1.33824 -6.81994 0
M  V30 834 H 86.2383 -0.615001 -4.64042 0
M  V30 835 H 86.4113 -1.10118 -6.38575 0
M  V30 836 N 79.8174 1.5752 -0.0501392 0
M  V30 837 C 80.7804 2.1037 0.909786 0
M  V30 838 C 81.7804 1.02308 1.24056 0
M  V30 839 O 82.9704 1.28385 1.17741 0
M  V30 840 C 80.1024 2.58708 2.21998 0
M  V30 841 H 81.2954 2.96479 0.451665 0
M  V30 842 H 78.8484 1.55038 0.198248 0
M  V30 843 H 79.5834 1.75989 2.72394 0
M  V30 844 H 79.3684 3.37675 1.99295 0
M  V30 845 H 80.8584 2.99747 2.9076 0
M  V30 846 N 81.2955 -0.223234 1.56011 0
M  V30 847 C 82.2255 -1.27988 1.95298 0
M  V30 848 C 83.2065 -1.48976 0.820979 0
M  V30 849 O 84.3915 -1.61188 1.08315 0
M  V30 850 C 81.5215 -2.63 2.26822 0
M  V30 851 C 80.4755 -2.56671 3.42497 0
M  V30 852 C 79.8015 -3.95697 3.59622 0
M  V30 853 C 81.1015 -2.11601 4.77517 0
M  V30 854 H 82.7955 -0.953525 2.8381 0
M  V30 855 H 80.3415 -0.457244 1.36548 0
M  V30 856 H 82.2945 -3.37077 2.52898 0
M  V30 857 H 81.0185 -2.9732 1.35161 0
M  V30 858 H 79.6775 -1.85051 3.16467 0
M  V30 859 H 79.3255 -4.27322 2.6534 0
M  V30 860 H 79.0255 -3.92345 4.37424 0
M  V30 861 H 80.5495 -4.71438 3.88044 0
M  V30 862 H 81.9635 -2.7542 5.02809 0
M  V30 863 H 80.3605 -2.19311 5.5859 0
M  V30 864 H 81.4305 -1.06824 4.72987 0
M  V30 865 N 82.7736 -1.49793 -0.48987 0
M  V30 866 C 84.1846 -1.52914 -1.07118 0
M  V30 867 C 84.5356 -0.321738 -1.93544 0
M  V30 868 O 83.6606 0.567338 -2.08831 0
M  V30 869 C 84.2556 -2.771 -1.94938 0
M  V30 870 C 82.8146 -2.82963 -2.48212 0
M  V30 871 C 81.9616 -2.46972 -1.26096 0
M  V30 872 H 84.9126 -1.56329 -0.273289 0
M  V30 873 H 84.9336 -2.57892 -2.79771 0
M  V30 874 H 84.4456 -3.64959 -1.32009 0
M  V30 875 H 82.5466 -1.99411 -3.14748 0
M  V30 876 H 82.6596 -3.85406 -2.84603 0
M  V30 877 H 81.0236 -1.98994 -1.58976 0
M  V30 878 H 81.8066 -3.37118 -0.648581 0
M  V30 879 N 84.2517 0.741722 -1.39055 0
M  V30 880 C 85.1817 1.869 -1.39966 0
M  V30 881 C 86.1627 1.6804 -0.26392 0
M  V30 882 O 87.3477 1.88458 -0.468755 0
M  V30 883 C 84.4777 3.24572 -1.23574 0
M  V30 884 C 83.4317 3.58056 -2.34477 0
M  V30 885 C 82.7577 4.94593 -2.0318 0
M  V30 886 C 84.0577 3.61716 -3.76774 0
M  V30 887 H 85.7517 1.86395 -2.34302 0
M  V30 888 H 83.2977 0.895361 -1.1278 0
M  V30 889 H 85.2507 4.031 -1.22834 0
M  V30 890 H 83.9747 3.25587 -0.257045 0
M  V30 891 H 82.6337 2.81854 -2.34423 0
M  V30 892 H 82.2817 4.92181 -1.03765 0
M  V30 893 H 81.9817 5.17964 -2.77465 0
M  V30 894 H 83.5057 5.75486 -2.04079 0
M  V30 895 H 84.9197 4.30335 -3.78794 0
M  V30 896 H 83.3167 3.96603 -4.50362 0
M  V30 897 H 84.3867 2.61672 -4.08235 0
M  V30 898 N 85.7298 1.2412 0.971189 0
M  V30 899 C 86.9788 1.07284 1.70801 0
M  V30 900 C 87.2918 -0.388902 1.91695 0
M  V30 901 O 88.4978 -0.677379 2.62914 0
M  V30 902 C 86.9538 1.87145 3.07416 0
M  V30 903 C 86.5618 3.37707 2.94377 0
M  V30 904 C 88.3058 1.78828 3.84995 0
M  V30 905 C 86.2128 4.09925 4.26281 0
M  V30 906 H 85.1428 0.397854 0.64049 0
M  V30 907 H 87.7938 1.4817 1.0825 0
M  V30 908 H 86.1758 1.39071 3.70777 0
M  V30 909 H 87.3498 3.93335 2.4005 0
M  V30 910 H 85.6648 3.46938 2.30267 0
M  V30 911 H 88.2618 2.30089 4.82662 0
M  V30 912 H 88.6048 0.75284 4.09436 0
M  V30 913 H 89.1378 2.24563 3.28354 0
M  V30 914 H 85.8768 5.13813 4.07033 0
M  V30 915 H 85.3968 3.59083 4.80437 0
M  V30 916 H 87.0758 4.1673 4.94919 0
M  V30 917 N 87.2079 -1.17134 1.05439 0
M  V30 918 C 88.6189 -1.69084 0.791676 0
M  V30 919 C 88.9699 -1.83822 -0.685839 0
M  V30 920 O 88.0949 -1.52757 -1.53278 0
M  V30 921 C 88.6899 -3.07119 1.4305 0
M  V30 922 C 87.2489 -3.56225 1.21577 0
M  V30 923 C 86.3959 -2.32421 1.51247 0
M  V30 924 H 89.3469 -1.01617 1.219 0
M  V30 925 H 89.3679 -3.71087 0.84112 0
M  V30 926 H 88.8799 -2.9636 2.50584 0
M  V30 927 H 86.9809 -3.72257 0.159787 0
M  V30 928 H 87.0939 -4.38837 1.92246 0
M  V30 929 H 85.4579 -2.3701 0.932653 0
M  V30 930 H 86.2409 -2.24268 2.5992 0
M  V30 931 N 88.686 -0.835752 -1.33615 0
M  V30 932 C 89.935 -0.426289 -1.97144 0
M  V30 933 C 90.248 1.01912 -1.66953 0
M  V30 934 O 91.454 1.53311 -2.24072 0
M  V30 935 C 89.91 -0.711321 -3.52801 0
M  V30 936 C 89.518 -2.1712 -3.91871 0
M  V30 937 C 91.262 -0.368654 -4.22896 0
M  V30 938 C 89.169 -2.40044 -5.40493 0
M  V30 939 H 88.099 -0.15567 -0.737755 0
M  V30 940 H 90.75 -1.0239 -1.52278 0
M  V30 941 H 89.132 -0.0433766 -3.95976 0
M  V30 942 H 90.306 -2.87936 -3.59763 0
M  V30 943 H 88.621 -2.47654 -3.34749 0
M  V30 944 H 91.218 -0.517601 -5.32189 0
M  V30 945 H 91.561 0.688078 -4.10574 0
M  V30 946 H 92.094 -0.991702 -3.8524 0
M  V30 947 H 88.833 -3.44271 -5.57815 0
M  V30 948 H 88.353 -1.73785 -5.74072 0
M  V30 949 H 90.032 -2.23042 -6.0734 0
M  V30 950 N 90.1641 1.46063 -0.591896 0
M  V30 951 C 91.4101 2.02638 -0.0811191 0
M  V30 952 C 91.7431 1.4613 1.27905 0
M  V30 953 O 91.0181 0.629908 1.84017 0
M  V30 954 C 91.3011 3.60091 -0.0252436 0
M  V30 955 C 91.1541 4.26965 -1.41496 0
M  V30 956 C 92.4731 4.3496 0.670685 0
M  V30 957 H 89.5921 0.73635 -0.0309524 0
M  V30 958 H 92.2341 1.741 -0.760859 0
M  V30 959 H 90.3841 3.84535 0.553624 0
M  V30 960 H 92.0561 4.13756 -2.0397 0
M  V30 961 H 90.2991 3.85971 -1.98011 0
M  V30 962 H 90.9701 5.35781 -1.32825 0
M  V30 963 H 93.4461 4.15716 0.178825 0
M  V30 964 H 92.3221 5.44686 0.678837 0
M  V30 965 H 92.5831 4.06685 1.73379 0
M  V30 966 N 91.6422 0.330177 1.54103 0
M  V30 967 C 92.8882 -0.270806 2.00984 0
M  V30 968 C 93.2212 -1.51265 1.21789 0
M  V30 969 O 92.4962 -1.92142 0.301927 0
M  V30 970 C 92.7792 -0.598339 3.55094 0
M  V30 971 C 92.6322 0.654674 4.4501 0
M  V30 972 C 93.9512 -1.41334 4.16789 0
M  V30 973 H 91.0702 -0.0969531 0.730595 0
M  V30 974 H 93.7122 0.448066 1.84641 0
M  V30 975 H 91.8622 -1.21078 3.69151 0
M  V30 976 H 93.5342 1.29285 4.42813 0
M  V30 977 H 91.7772 1.28224 4.14416 0
M  V30 978 H 92.4482 0.380944 5.50684 0
M  V30 979 H 94.9242 -0.895597 4.06347 0
M  V30 980 H 93.8002 -1.61127 5.24718 0
M  V30 981 H 94.0612 -2.41146 3.70541 0
M  V30 982 N 93.1203 -1.57491 0.0584922 0
M  V30 983 C 94.0303 -2.15448 -0.928414 0
M  V30 984 C 95.0463 -1.11416 -1.3365 0
M  V30 985 O 96.2223 -1.4362 -1.41193 0
M  V30 986 C 93.2873 -2.69393 -2.18239 0
M  V30 987 C 92.3483 -3.88249 -1.83196 0
M  V30 988 C 91.5813 -4.39613 -3.02616 0
M  V30 989 O 91.8043 -3.90023 -4.16219 0
M  V30 990 O 90.7383 -5.31111 -2.83204 0
M  V30 991 H 94.5643 -3.00112 -0.465483 0
M  V30 992 H 92.1493 -1.48499 -0.163826 0
M  V30 993 H 94.0313 -3.04026 -2.91798 0
M  V30 994 H 92.7063 -1.87796 -2.63656 0
M  V30 995 H 91.6133 -3.58492 -1.06931 0
M  V30 996 H 92.9463 -4.71098 -1.42573 0
M  V30 997 N 94.5984 0.214957 -1.56127 0
M  V30 998 C 95.5304 1.29004 -1.89448 0
M  V30 999 C 96.5434 1.42716 -0.783326 0
M  V30 1000 O 97.7324 1.43496 -1.06166 0
M  V30 1001 C 94.8324 2.66482 -2.09381 0
M  V30 1002 C 94.0054 2.74633 -3.40434 0
M  V30 1003 C 93.0644 3.9317 -3.49719 0
M  V30 1004 O 92.0904 3.812 -4.227 0
M  V30 1005 N 93.2924 5.07765 -2.81346 0
M  V30 1006 H 96.0574 1.00743 -2.82261 0
M  V30 1007 H 93.6184 0.40497 -1.56753 0
M  V30 1008 H 95.6104 3.44173 -2.12901 0
M  V30 1009 H 94.1804 2.87314 -1.23163 0
M  V30 1010 H 93.4004 1.83368 -3.48955 0
M  V30 1011 H 94.6884 2.77054 -4.26754 0
M  V30 1012 H 94.0864 5.20386 -2.21843 0
M  V30 1013 H 92.6434 5.83474 -2.90519 0
M  V30 1014 N 96.0765 1.50051 0.48192 0
M  V30 1015 C 97.3045 1.64237 1.25832 0
M  V30 1016 C 97.7195 0.321336 1.86045 0
M  V30 1017 O 97.0765 -0.695478 1.68729 0
M  V30 1018 C 97.1275 2.72548 2.37487 0
M  V30 1019 O 96.8485 3.99529 1.79745 0
M  V30 1020 C 98.3495 2.9761 3.28547 0
M  V30 1021 H 95.5695 0.55237 0.380957 0
M  V30 1022 H 98.1135 1.96207 0.576467 0
M  V30 1023 H 96.2685 2.43303 3.01467 0
M  V30 1024 H 96.6825 4.59342 2.5319 0
M  V30 1025 H 98.1565 3.77084 4.03127 0
M  V30 1026 H 98.6335 2.0826 3.86684 0
M  V30 1027 H 99.2395 3.28345 2.70314 0
M  V30 1028 N 97.5546 -0.734337 1.39446 0
M  V30 1029 C 98.8026 -1.49096 1.36436 0
M  V30 1030 C 99.1236 -1.94961 -0.0388255 0
M  V30 1031 O 98.3936 -1.69033 -0.990191 0
M  V30 1032 H 96.9736 -0.5531 0.502085 0
M  V30 1033 H 99.6356 -0.871725 1.74319 0
M  V30 1034 H 98.7316 -2.37276 2.02747 0
M  V30 1035 N 99.0327 -1.24633 -0.964593 0
M  V30 1036 C 100.449 -1.01239 -1.2338 0
M  V30 1037 C 100.649 0.2769 -1.99588 0
M  V30 1038 O 99.7047 0.992241 -2.32187 0
M  V30 1039 C 101.018 -2.22937 -2.01791 0
M  V30 1040 C 102.566 -2.27594 -2.14872 0
M  V30 1041 C 103.041 -3.48921 -2.96678 0
M  V30 1042 N 104.532 -3.49257 -3.04259 0
M  V30 1043 C 105.267 -4.39795 -3.67924 0
M  V30 1044 N 104.763 -5.40591 -4.33281 0
M  V30 1045 N 106.556 -4.275 -3.64966 0
M  V30 1046 H 98.7067 -2.0748 -0.454502 0
M  V30 1047 H 100.97 -0.910647 -0.26349 0
M  V30 1048 H 100.676 -3.16587 -1.53184 0
M  V30 1049 H 100.55 -2.25306 -3.02518 0
M  V30 1050 H 102.937 -1.34473 -2.6268 0
M  V30 1051 H 103.018 -2.2925 -1.13482 0
M  V30 1052 H 102.662 -4.42359 -2.49562 0
M  V30 1053 H 102.592 -3.4451 -3.98272 0
M  V30 1054 H 105.083 -2.76337 -2.57771 0
M  V30 1055 H 105.396 -6.05904 -4.79687 0
M  V30 1056 H 103.741 -5.44475 -4.3194 0
M  V30 1057 H 106.932 -3.47987 -3.13086 0
M  V30 1058 H 107.105 -4.98258 -4.14298 0
M  V30 1059 N 100.511 1.16574 -1.06058 0
M  V30 1060 C 101.759 1.86677 -0.77434 0
M  V30 1061 C 102.08 1.81959 0.701147 0
M  V30 1062 O 101.35 1.2515 1.50713 0
M  V30 1063 H 99.9298 0.691134 -0.283449 0
M  V30 1064 H 102.592 1.41378 -1.34158 0
M  V30 1065 H 101.688 2.92181 -1.09711 0
M  V30 1066 N 101.989 0.842826 1.3317 0
M  V30 1067 C 102.899 0.281444 2.32906 0
M  V30 1068 C 103.915 -0.594587 1.63526 0
M  V30 1069 O 105.091 -0.49777 1.95152 0
M  V30 1070 C 102.156 -0.530929 3.42611 0
M  V30 1071 C 101.217 0.369843 4.27704 0
M  V30 1072 C 100.45 -0.403853 5.3217 0
M  V30 1073 O 100.673 -1.63513 5.46461 0
M  V30 1074 O 99.6069 0.224199 6.01482 0
M  V30 1075 H 103.433 1.10744 2.82789 0
M  V30 1076 H 101.018 0.60545 1.36582 0
M  V30 1077 H 102.9 -0.992437 4.09547 0
M  V30 1078 H 101.575 -1.33392 2.94938 0
M  V30 1079 H 100.482 0.879275 3.6362 0
M  V30 1080 H 101.815 1.13771 4.78871 0
M  V30 1081 N 103.467 -1.45747 0.599634 0
M  V30 1082 C 104.883 -1.57424 0.26264 0
M  V30 1083 C 105.083 -1.59222 -1.23493 0
M  V30 1084 O 104.139 -1.51825 -2.01756 0
M  V30 1085 C 105.452 -2.86061 0.926795 0
M  V30 1086 C 107 -2.99722 0.901967 0
M  V30 1087 C 107.475 -4.31119 1.54598 0
M  V30 1088 N 108.966 -4.37858 1.5111 0
M  V30 1089 C 109.701 -5.3818 1.97863 0
M  V30 1090 N 109.197 -6.45083 2.52666 0
M  V30 1091 N 110.99 -5.29487 1.88679 0
M  V30 1092 H 103.141 -1.42823 1.57211 0
M  V30 1093 H 105.404 -0.68235 0.658105 0
M  V30 1094 H 105.11 -2.90605 1.98095 0
M  V30 1095 H 104.984 -3.74563 0.445238 0
M  V30 1096 H 107.371 -2.9475 -0.143617 0
M  V30 1097 H 107.452 -2.12652 1.42171 0
M  V30 1098 H 107.096 -4.36849 2.59085 0
M  V30 1099 H 107.026 -5.16992 1.00132 0
M  V30 1100 H 109.517 -3.61209 1.11068 0
M  V30 1101 H 109.83 -7.17869 2.86155 0
M  V30 1102 H 108.175 -6.45856 2.56701 0
M  V30 1103 H 111.366 -4.44877 1.4561 0
M  V30 1104 H 111.539 -6.07524 2.25429 0
M  V30 1105 N 104.945 -0.338344 -1.53925 0
M  V30 1106 C 105.908 0.508299 -2.23493 0
M  V30 1107 C 106.908 1.03175 -1.23335 0
M  V30 1108 O 108.098 0.921826 -1.47811 0
M  V30 1109 C 105.23 1.70754 -2.95052 0
M  V30 1110 H 106.423 -0.100058 -2.99733 0
M  V30 1111 H 103.976 -0.0896198 -1.56043 0
M  V30 1112 H 104.711 2.35474 -2.22986 0
M  V30 1113 H 104.496 1.33946 -3.68512 0
M  V30 1114 H 105.986 2.30818 -3.48013 0
M  V30 1115 N 106.423 1.57458 -0.0668435 0
M  V30 1116 C 107.653 1.97337 0.611677 0
M  V30 1117 C 108.061 0.943744 1.63982 0
M  V30 1118 O 107.404 -0.0785584 1.83532 0
M  V30 1119 C 107.466 3.33511 1.34205 0
M  V30 1120 C 107.13 4.54598 0.467941 0
M  V30 1121 C 108.127 5.19186 -0.272439 0
M  V30 1122 C 105.812 5.0075 0.39427 0
M  V30 1123 C 107.806 6.28274 -1.07476 0
M  V30 1124 C 105.493 6.09711 -0.411729 0
M  V30 1125 C 106.491 6.73335 -1.14492 0
M  V30 1126 O 106.179 7.80199 -1.93763 0
M  V30 1127 H 105.911 0.654042 0.170893 0
M  V30 1128 H 108.465 2.04961 -0.134289 0
M  V30 1129 H 106.695 3.22487 2.13398 0
M  V30 1130 H 108.384 3.58029 1.91233 0
M  V30 1131 H 109.15 4.84477 -0.225086 0
M  V30 1132 H 105.029 4.51009 0.954569 0
M  V30 1133 H 108.573 6.77866 -1.64755 0
M  V30 1134 H 104.47 6.43854 -0.460664 0
M  V30 1135 H 105.238 7.97053 -1.86142 0
M  V30 1136 N 107.901 -0.206675 1.56239 0
M  V30 1137 C 109.178 -0.954051 1.70755 0
M  V30 1138 C 109.558 -2.01841 0.618353 0
M  V30 1139 O 108.906 -2.25444 -0.372434 0
M  V30 1140 C 109.116 -1.551 3.12642 0
M  V30 1141 C 110.464 -2.03757 3.72516 0
M  V30 1142 O 111.488 -1.64965 3.15698 0
M  V30 1143 O 110.347 -2.75103 4.72208 0
M  V30 1144 H 107.441 -0.446636 0.696021 0
M  V30 1145 H 109.987 -0.197283 1.68549 0
M  V30 1146 H 108.759 -0.783212 3.83382 0
M  V30 1147 H 108.382 -2.37291 3.19028 0
M  V30 1148 N 109.379 -1.50304 -0.473955 0
M  V30 1149 C 110.628 -1.60392 -1.22301 0
M  V30 1150 C 110.941 -0.308411 -1.93153 0
M  V30 1151 O 112.147 -0.288156 -2.69966 0
M  V30 1152 C 110.603 -2.83109 -2.2221 0
M  V30 1153 C 110.211 -4.19524 -1.57173 0
M  V30 1154 C 111.955 -3.0254 -2.97775 0
M  V30 1155 C 109.862 -5.33431 -2.55353 0
M  V30 1156 H 108.792 -0.597286 -0.460179 0
M  V30 1157 H 111.443 -1.76731 -0.493803 0
M  V30 1158 H 109.825 -2.60322 -2.9841 0
M  V30 1159 H 110.999 -4.52554 -0.867824 0
M  V30 1160 H 109.314 -4.05674 -0.939002 0
M  V30 1161 H 111.911 -3.84811 -3.71248 0
M  V30 1162 H 112.254 -2.14154 -3.56992 0
M  V30 1163 H 112.787 -3.25494 -2.28688 0
M  V30 1164 H 109.526 -6.23962 -2.00878 0
M  V30 1165 H 109.046 -5.04823 -3.23904 0
M  V30 1166 H 110.725 -5.63887 -3.17239 0
M  V30 1167 N 110.857 0.726932 -1.39834 0
M  V30 1168 C 112.087 1.51393 -1.40583 0
M  V30 1169 C 112.495 1.892 -0.000740625 0
M  V30 1170 O 111.838 1.55189 0.982951 0
M  V30 1171 C 111.9 2.82588 -2.22226 0
M  V30 1172 C 111.564 2.67169 -3.70769 0
M  V30 1173 C 112.561 2.3518 -4.63666 0
M  V30 1174 C 110.246 2.83788 -4.14451 0
M  V30 1175 C 112.24 2.20002 -5.98229 0
M  V30 1176 C 109.927 2.68229 -5.49087 0
M  V30 1177 C 110.925 2.36382 -6.4079 0
M  V30 1178 O 110.613 2.2093 -7.72946 0
M  V30 1179 H 110.345 0.474168 -0.48181 0
M  V30 1180 H 112.899 0.905247 -1.84376 0
M  V30 1181 H 111.129 3.45746 -1.73195 0
M  V30 1182 H 112.818 3.44247 -2.15055 0
M  V30 1183 H 113.584 2.21984 -4.31217 0
M  V30 1184 H 109.463 3.07566 -3.43401 0
M  V30 1185 H 113.007 1.95067 -6.69772 0
M  V30 1186 H 108.904 2.81006 -5.81125 0
M  V30 1187 H 109.672 2.35937 -7.83757 0
M  V30 1188 N 112.336 1.25143 0.95797 0
M  V30 1189 C 113.561 1.12521 1.74223 0
M  V30 1190 C 113.986 -0.317402 1.85403 0
M  V30 1191 O 113.344 -1.2299 1.33204 0
M  V30 1192 C 113.392 1.78062 3.1357 0
M  V30 1193 O 112.496 1.058 3.98598 0
M  V30 1194 H 111.837 0.39304 0.535178 0
M  V30 1195 H 114.367 1.65641 1.201 0
M  V30 1196 H 114.377 1.84213 3.64046 0
M  V30 1197 H 113.052 2.83021 3.04749 0
M  V30 1198 H 111.629 1.07506 3.57067 0
M  V30 1199 N 113.814 -1.1601 1.06675 0
M  V30 1200 C 115.23 -1.38622 0.790948 0
M  V30 1201 C 115.43 -1.92109 -0.607965 0
M  V30 1202 O 114.486 -2.12239 -1.36787 0
M  V30 1203 C 115.799 -2.36347 1.85905 0
M  V30 1204 C 117.347 -2.50023 1.88301 0
M  V30 1205 C 117.822 -3.51033 2.94176 0
M  V30 1206 N 119.313 -3.58563 2.93235 0
M  V30 1207 C 120.048 -4.36521 3.71803 0
M  V30 1208 N 119.544 -5.17869 4.602 0
M  V30 1209 N 121.337 -4.31541 3.60178 0
M  V30 1210 H 113.488 -0.796294 1.96908 0
M  V30 1211 H 115.751 -0.412597 0.853503 0
M  V30 1212 H 115.457 -2.04147 2.86386 0
M  V30 1213 H 115.331 -3.36042 1.71334 0
M  V30 1214 H 117.718 -2.81524 0.884769 0
M  V30 1215 H 117.799 -1.5035 2.06951 0
M  V30 1216 H 117.443 -3.20268 3.94196 0
M  V30 1217 H 117.373 -4.50445 2.72776 0
M  V30 1218 H 119.864 -3.00496 2.29152 0
M  V30 1219 H 120.177 -5.74578 5.16797 0
M  V30 1220 H 118.522 -5.17199 4.64253 0
M  V30 1221 H 121.713 -3.67051 2.90502 0
M  V30 1222 H 121.886 -4.9205 4.21653 0
M  V30 1223 N 115.292 -0.849877 -1.32721 0
M  V30 1224 C 116.222 -0.306308 -2.31482 0
M  V30 1225 C 117.203 0.591952 -1.59468 0
M  V30 1226 O 118.388 0.513199 -1.87296 0
M  V30 1227 C 115.518 0.510204 -3.43532 0
M  V30 1228 C 114.472 -0.293209 -4.26994 0
M  V30 1229 C 113.798 0.647743 -5.30762 0
M  V30 1230 C 115.098 -1.51634 -4.99804 0
M  V30 1231 H 116.792 -1.13153 -2.77195 0
M  V30 1232 H 114.338 -0.545553 -1.33266 0
M  V30 1233 H 116.291 0.900856 -4.11658 0
M  V30 1234 H 115.015 1.36874 -2.96535 0
M  V30 1235 H 113.674 -0.665555 -3.60508 0
M  V30 1236 H 113.322 1.50299 -4.8002 0
M  V30 1237 H 113.022 0.11422 -5.87489 0
M  V30 1238 H 114.546 1.03567 -6.01753 0
M  V30 1239 H 115.96 -1.19824 -5.60638 0
M  V30 1240 H 114.357 -1.98745 -5.66234 0
M  V30 1241 H 115.427 -2.28018 -4.27943 0
M  V30 1242 N 116.77 1.45427 -0.607355 0
M  V30 1243 C 117.7 2.3329 0.0989352 0
M  V30 1244 C 118.681 1.46816 0.859007 0
M  V30 1245 O 119.866 1.75588 0.829604 0
M  V30 1246 C 116.996 3.29518 1.09705 0
M  V30 1247 C 115.95 4.25626 0.450206 0
M  V30 1248 C 115.276 5.11542 1.55655 0
M  V30 1249 C 116.576 5.18505 -0.628455 0
M  V30 1250 H 118.27 2.92595 -0.634716 0
M  V30 1251 H 115.816 1.40696 -0.306681 0
M  V30 1252 H 117.769 3.89855 1.59971 0
M  V30 1253 H 116.493 2.68372 1.86129 0
M  V30 1254 H 115.152 3.66586 -0.0315886 0
M  V30 1255 H 114.8 4.46765 2.31107 0
M  V30 1256 H 114.5 5.76647 1.12925 0
M  V30 1257 H 116.024 5.74748 2.06148 0
M  V30 1258 H 117.438 5.72916 -0.209877 0
M  V30 1259 H 115.835 5.92085 -0.977489 0
M  V30 1260 H 116.905 4.60948 -1.50514 0
M  V30 1261 N 118.248 0.346503 1.53744 0
M  V30 1262 C 119.664 -0.00530975 1.59599 0
M  V30 1263 C 119.864 -1.48465 1.36236 0
M  V30 1264 O 118.92 -2.24376 1.15808 0
M  V30 1265 C 120.233 0.433516 2.97559 0
M  V30 1266 C 121.781 0.386111 3.10609 0
M  V30 1267 C 122.256 0.800451 4.50951 0
M  V30 1268 N 123.747 0.754753 4.5701 0
M  V30 1269 C 124.482 1.04727 5.63755 0
M  V30 1270 N 123.978 1.4081 6.7834 0
M  V30 1271 N 125.771 0.971316 5.53644 0
M  V30 1272 H 117.922 1.31009 1.67184 0
M  V30 1273 H 120.185 0.534242 0.783128 0
M  V30 1274 H 119.891 1.46509 3.19731 0
M  V30 1275 H 119.765 -0.189753 3.76722 0
M  V30 1276 H 122.152 -0.636295 2.88158 0
M  V30 1277 H 122.233 1.04462 2.33498 0
M  V30 1278 H 121.877 1.82088 4.74137 0
M  V30 1279 H 121.807 0.119386 5.26465 0
M  V30 1280 H 124.298 0.488662 3.74727 0
M  V30 1281 H 124.611 1.61607 7.55714 0
M  V30 1282 H 122.956 1.44657 6.79779 0
M  V30 1283 H 126.147 0.688748 4.63005 0
M  V30 1284 H 126.32 1.20263 6.36742 0
M  V30 1285 N 119.726 -1.57421 0.075193 0
M  V30 1286 C 120.636 -2.1642 -0.905511 0
M  V30 1287 C 121.652 -1.12828 -1.32461 0
M  V30 1288 O 122.828 -1.45109 -1.39661 0
M  V30 1289 C 119.893 -2.71693 -2.15369 0
M  V30 1290 C 118.954 -3.90171 -1.79068 0
M  V30 1291 C 118.187 -4.42798 -2.97936 0
M  V30 1292 O 118.41 -3.94416 -4.12058 0
M  V30 1293 O 117.344 -5.34085 -2.77555 0
M  V30 1294 H 121.17 -3.00588 -0.433626 0
M  V30 1295 H 118.755 -1.48664 -0.148067 0
M  V30 1296 H 120.637 -3.07104 -2.88557 0
M  V30 1297 H 119.312 -1.90582 -2.61649 0
M  V30 1298 H 118.219 -3.59606 -1.03122 0
M  V30 1299 H 119.552 -4.72584 -1.37569 0
M  V30 1300 N 121.204 0.198386 -1.56346 0
M  V30 1301 C 122.62 0.549085 -1.49857 0
M  V30 1302 C 122.82 1.86016 -0.774611 0
M  V30 1303 O 121.876 2.50416 -0.323776 0
M  V30 1304 C 123.189 0.606868 -2.94512 0
M  V30 1305 C 124.737 0.695925 -3.05165 0
M  V30 1306 C 125.212 0.784848 -4.51225 0
M  V30 1307 N 126.703 0.848463 -4.55363 0
M  V30 1308 C 127.438 0.937378 -5.65686 0
M  V30 1309 N 126.934 0.9888 -6.85707 0
M  V30 1310 N 128.727 0.974312 -5.53592 0
M  V30 1311 H 120.878 -0.661655 -2.01831 0
M  V30 1312 H 123.141 -0.235261 -0.918344 0
M  V30 1313 H 122.847 -0.28732 -3.50524 0
M  V30 1314 H 122.721 1.46268 -3.47686 0
M  V30 1315 H 125.108 1.58055 -2.49204 0
M  V30 1316 H 125.189 -0.186022 -2.55123 0
M  V30 1317 H 124.833 -0.0954072 -5.0781 0
M  V30 1318 H 124.763 1.68255 -4.98997 0
M  V30 1319 H 127.254 0.818103 -3.68938 0
M  V30 1320 H 127.567 1.05707 -7.65536 0
M  V30 1321 H 125.912 0.957534 -6.88372 0
M  V30 1322 H 129.103 0.930954 -4.58749 0
M  V30 1323 H 129.276 1.04015 -6.39597 0
M  V30 1324 N 122.682 1.50554 0.465978 0
M  V30 1325 C 123.931 1.61038 1.21448 0
M  V30 1326 C 124.244 0.31865 1.92987 0
M  V30 1327 O 125.45 0.302469 2.6981 0
M  V30 1328 C 123.906 2.84283 2.20706 0
M  V30 1329 C 123.514 4.20352 1.54946 0
M  V30 1330 C 125.258 3.04115 2.96166 0
M  V30 1331 C 123.165 5.34778 2.5252 0
M  V30 1332 H 122.095 0.599718 0.457005 0
M  V30 1333 H 124.746 1.7699 0.484424 0
M  V30 1334 H 123.128 2.61901 2.97025 0
M  V30 1335 H 124.302 4.53008 0.843811 0
M  V30 1336 H 122.617 4.06167 0.917475 0
M  V30 1337 H 125.214 3.86774 3.69202 0
M  V30 1338 H 125.557 2.16045 3.55852 0
M  V30 1339 H 126.09 3.26702 2.26959 0
M  V30 1340 H 122.829 6.25018 1.97566 0
M  V30 1341 H 122.349 5.06534 3.21222 0
M  V30 1342 H 124.028 5.65561 3.14245 0
M  V30 1343 N 124.16 -0.719506 1.40217 0
M  V30 1344 C 125.406 -1.48152 1.38488 0
M  V30 1345 C 125.739 -1.94195 -0.0141867 0
M  V30 1346 O 125.014 -1.67884 -0.982096 0
M  V30 1347 C 125.297 -2.71035 2.37091 0
M  V30 1348 C 125.15 -2.30912 3.86005 0
M  V30 1349 C 126.469 -3.73182 2.33288 0
M  V30 1350 H 123.588 -0.537395 0.504357 0
M  V30 1351 H 126.23 -0.821472 1.71324 0
M  V30 1352 H 124.38 -3.27352 2.0922 0
M  V30 1353 H 126.052 -1.80107 4.24687 0
M  V30 1354 H 124.295 -1.62958 4.02029 0
M  V30 1355 H 124.966 -3.18978 4.50508 0
M  V30 1356 H 127.442 -3.26485 2.57966 0
M  V30 1357 H 126.318 -4.56806 3.04334 0
M  V30 1358 H 126.579 -4.21202 1.34317 0
M  V30 1359 N 125.638 -1.25649 -0.95132 0
M  V30 1360 C 126.878 -1.11802 -1.71113 0
M  V30 1361 C 127.242 0.334758 -1.89059 0
M  V30 1362 O 128.443 0.595121 -2.62129 0
M  V30 1363 C 126.714 -1.85512 -3.05483 0
M  V30 1364 S 128.273 -1.87597 -3.96677 0
M  V30 1365 H 125.091 -0.399552 -0.588115 0
M  V30 1366 H 127.693 -1.59222 -1.1344 0
M  V30 1367 H 126.397 -2.90299 -2.90094 0
M  V30 1368 H 125.928 -1.38493 -3.68216 0
M  V30 1369 H 127.943 -0.955389 -4.86916 0
M  V30 1370 N 127.117 1.15442 -1.07289 0
M  V30 1371 C 128.363 1.86489 -0.796846 0
M  V30 1372 C 128.696 1.82078 0.675371 0
M  V30 1373 O 127.971 1.24346 1.4956 0
M  V30 1374 C 128.254 3.35626 -1.30489 0
M  V30 1375 C 128.107 3.48673 -2.84161 0
M  V30 1376 C 129.426 4.30357 -0.920907 0
M  V30 1377 H 126.545 0.677144 -0.290939 0
M  V30 1378 H 129.187 1.35633 -1.33056 0
M  V30 1379 H 127.337 3.79068 -0.850883 0
M  V30 1380 H 129.009 3.14099 -3.37846 0
M  V30 1381 H 127.252 2.90253 -3.22391 0
M  V30 1382 H 127.923 4.53453 -3.14777 0
M  V30 1383 H 130.399 3.94871 -1.3121 0
M  V30 1384 H 129.275 5.33193 -1.30372 0
M  V30 1385 H 129.536 4.4176 0.173226 0
M  V30 1386 N 128.595 0.856903 1.32268 0
M  V30 1387 C 129.528 0.247937 2.26849 0
M  V30 1388 C 130.506 -0.615382 1.50505 0
M  V30 1389 O 131.69 -0.571689 1.79622 0
M  V30 1390 C 128.817 -0.650093 3.32403 0
M  V30 1391 C 127.863 0.140138 4.2627 0
M  V30 1392 S 128.696 1.51004 5.13769 0
M  V30 1393 C 129.852 0.61778 6.22844 0
M  V30 1394 H 130.085 1.04971 2.78152 0
M  V30 1395 H 127.618 0.654665 1.39834 0
M  V30 1396 H 129.576 -1.16256 3.93694 0
M  V30 1397 H 128.237 -1.4257 2.7988 0
M  V30 1398 H 127.43 -0.543945 5.01056 0
M  V30 1399 H 127.032 0.584267 3.69408 0
M  V30 1400 H 129.324 -0.177053 6.77269 0
M  V30 1401 H 130.267 1.33636 6.95375 0
M  V30 1402 H 130.675 0.191124 5.64176 0
M  V30 1403 N 130.073 -1.45103 0.615059 0
M  V30 1404 C 131.321 -2.01784 0.112955 0
M  V30 1405 C 131.642 -1.48504 -1.26378 0
M  V30 1406 O 130.912 -0.682245 -1.83636 0
M  V30 1407 H 129.492 -0.745993 0.0387668 0
M  V30 1408 H 132.154 -1.77808 0.798141 0
M  V30 1409 H 131.25 -3.12025 0.0684069 0
M  V30 1410 N 131.551 -0.354651 -1.53558 0
M  V30 1411 C 132.962 0.126902 -1.86268 0
M  V30 1412 C 133.313 1.49075 -1.27558 0
M  V30 1413 O 132.438 2.08105 -0.5934 0
M  V30 1414 C 133.033 0.237046 -3.3797 0
M  V30 1415 C 131.592 0.662842 -3.70518 0
M  V30 1416 C 130.739 -0.196652 -2.76602 0
M  V30 1417 H 133.69 -0.573849 -1.47962 0
M  V30 1418 H 133.711 1.06259 -3.65362 0
M  V30 1419 H 133.223 -0.755725 -3.80671 0
M  V30 1420 H 131.324 1.66424 -3.33367 0
M  V30 1421 H 131.437 0.445034 -4.77029 0
M  V30 1422 H 129.801 0.332763 -2.52517 0
M  V30 1423 H 130.584 -1.18676 -3.22135 0
M  V30 1424 N 133.029 1.57378 -0.0835403 0
M  V30 1425 C 134.278 1.93106 0.582498 0
M  V30 1426 C 134.591 0.96651 1.70053 0
M  V30 1427 O 135.797 1.21705 2.42693 0
M  V30 1428 C 134.253 3.43076 1.08751 0
M  V30 1429 C 133.861 4.48 -0.000146404 0
M  V30 1430 C 135.605 3.87785 1.72694 0
M  V30 1431 C 133.512 5.89113 0.519568 0
M  V30 1432 H 132.442 0.720775 0.221358 0
M  V30 1433 H 135.093 1.82821 -0.157675 0
M  V30 1434 H 133.475 3.48474 1.88101 0
M  V30 1435 H 134.649 4.54233 -0.775199 0
M  V30 1436 H 132.964 4.1283 -0.54406 0
M  V30 1437 H 135.561 4.90604 2.1263 0
M  V30 1438 H 135.904 3.25796 2.59158 0
M  V30 1439 H 136.437 3.8504 0.999457 0
M  V30 1440 H 133.176 6.54775 -0.308186 0
M  V30 1441 H 132.696 5.86376 1.26188 0
M  V30 1442 H 134.375 6.39346 0.992237 0
M  V30 1443 N 134.507 -0.190092 1.56449 0
M  V30 1444 C 135.784 -0.935886 1.71757 0
M  V30 1445 C 136.164 -2.01173 0.639726 0
M  V30 1446 O 135.512 -2.25827 -0.348502 0
M  V30 1447 C 135.722 -1.51775 3.1427 0
M  V30 1448 C 137.07 -1.99794 3.74656 0
M  V30 1449 O 138.094 -1.61607 3.1743 0
M  V30 1450 O 136.953 -2.70079 4.751 0
M  V30 1451 H 134.047 -0.439229 0.700719 0
M  V30 1452 H 136.593 -0.179395 1.68749 0
M  V30 1453 H 135.365 -0.742505 3.84191 0
M  V30 1454 H 134.988 -2.33894 3.21527 0
M  V30 1455 N 135.985 -1.50799 -0.457987 0
M  V30 1456 C 137.262 -1.52968 -1.21902 0
M  V30 1457 C 137.642 -0.281906 -2.09209 0
M  V30 1458 O 136.99 0.734076 -2.16388 0
M  V30 1459 C 137.2 -2.8326 -2.03875 0
M  V30 1460 C 138.548 -3.34425 -2.6162 0
M  V30 1461 O 139.572 -2.8467 -2.14106 0
M  V30 1462 O 138.431 -4.21188 -3.48228 0
M  V30 1463 H 135.525 -0.614129 -0.553873 0
M  V30 1464 H 138.071 -1.63098 -0.468739 0
M  V30 1465 H 136.843 -3.65543 -1.39621 0
M  V30 1466 H 136.466 -2.76195 -2.8601 0
M  V30 1467 N 137.463 0.71206 -1.40597 0
M  V30 1468 C 138.688 1.50617 -1.42581 0
M  V30 1469 C 139.113 1.88079 -0.0282102 0
M  V30 1470 O 138.471 1.53511 0.964579 0
M  V30 1471 C 138.519 2.7557 -2.3258 0
M  V30 1472 O 137.623 3.72414 -1.77148 0
M  V30 1473 H 136.964 0.453966 -0.484573 0
M  V30 1474 H 139.494 0.876649 -1.84868 0
M  V30 1475 H 139.504 3.2406 -2.47889 0
M  V30 1476 H 138.179 2.47639 -3.34138 0
M  V30 1477 H 136.756 3.31276 -1.71204 0
M  V30 1478 N 138.941 1.26152 0.944643 0
M  V30 1479 C 140.187 1.11657 1.69294 0
M  V30 1480 C 140.52 -0.339926 1.91202 0
M  V30 1481 O 139.795 -1.24994 1.49019 0
M  V30 1482 C 140.078 1.88236 3.06984 0
M  V30 1483 C 139.931 3.41772 2.92424 0
M  V30 1484 C 141.25 1.67343 4.07043 0
M  V30 1485 H 138.369 0.407004 0.614424 0
M  V30 1486 H 141.011 1.55106 1.09737 0
M  V30 1487 H 139.161 1.51308 3.57824 0
M  V30 1488 H 140.833 3.88433 2.48832 0
M  V30 1489 H 139.076 3.68974 2.28124 0
M  V30 1490 H 139.747 3.90579 3.90067 0
M  V30 1491 H 142.223 1.99509 3.65151 0
M  V30 1492 H 141.099 2.23346 5.01406 0
M  V30 1493 H 141.36 0.617158 4.37771 0
M  V30 1494 N 140.419 -1.14872 1.07899 0
M  V30 1495 C 141.382 -2.17986 0.708161 0
M  V30 1496 C 142.382 -1.58775 -0.25442 0
M  V30 1497 O 143.572 -1.74166 -0.034645 0
M  V30 1498 C 140.704 -3.40871 0.0446929 0
M  V30 1499 H 141.897 -2.52306 1.62116 0
M  V30 1500 H 139.45 -1.2943 0.876218 0
M  V30 1501 H 140.185 -3.12124 -0.880281 0
M  V30 1502 H 139.97 -3.8511 0.737091 0
M  V30 1503 H 141.46 -4.17121 -0.19991 0
M  V30 1504 N 141.898 -0.863906 -1.31812 0
M  V30 1505 C 143.123 -0.48527 -2.01643 0
M  V30 1506 C 143.548 0.913058 -1.64453 0
M  V30 1507 O 142.906 1.6014 -0.849985 0
M  V30 1508 C 142.954 -0.642625 -3.54828 0
M  V30 1509 O 142.058 0.320659 -4.11151 0
M  V30 1510 H 141.399 -0.193793 -0.635091 0
M  V30 1511 H 143.929 -1.16565 -1.68148 0
M  V30 1512 H 143.939 -0.533628 -4.04495 0
M  V30 1513 H 142.614 -1.66227 -3.81237 0
M  V30 1514 H 141.191 0.167126 -3.72525 0
M  V30 1515 N 143.376 1.44774 -0.622745 0
M  V30 1516 C 144.306 2.33382 0.0741861 0
M  V30 1517 C 145.287 1.47719 0.843387 0
M  V30 1518 O 146.472 1.76458 0.810934 0
M  V30 1519 C 143.602 3.30663 1.06204 0
M  V30 1520 C 142.556 4.26079 0.405037 0
M  V30 1521 C 141.882 5.13165 1.5022 0
M  V30 1522 C 143.182 5.1781 -0.683414 0
M  V30 1523 H 144.876 2.91905 -0.665713 0
M  V30 1524 H 142.422 1.40363 -0.321587 0
M  V30 1525 H 144.375 3.9153 1.55827 0
M  V30 1526 H 143.099 2.70331 1.83272 0
M  V30 1527 H 141.758 3.66532 -0.0704683 0
M  V30 1528 H 141.406 4.49191 2.26355 0
M  V30 1529 H 141.106 5.77812 1.06803 0
M  V30 1530 H 142.63 5.76902 2.00041 0
M  V30 1531 H 144.044 5.72661 -0.270631 0
M  V30 1532 H 142.441 5.91015 -1.04023 0
M  V30 1533 H 143.511 4.59326 -1.55395 0
M  V30 1534 N 144.854 0.36279 1.53368 0
M  V30 1535 C 146.1 -0.228113 2.01513 0
M  V30 1536 C 146.433 -1.48648 1.2497 0
M  V30 1537 O 145.708 -1.91459 0.342616 0
M  V30 1538 C 145.991 -0.522884 3.56284 0
M  V30 1539 C 145.844 0.74892 4.43521 0
M  V30 1540 C 147.163 -1.32461 4.19693 0
M  V30 1541 H 144.282 -0.0814343 0.732487 0
M  V30 1542 H 146.924 0.48713 1.83649 0
M  V30 1543 H 145.074 -1.1322 3.71636 0
M  V30 1544 H 146.746 1.38648 4.39971 0
M  V30 1545 H 144.989 1.36986 4.11603 0
M  V30 1546 H 145.66 0.497667 5.49752 0
M  V30 1547 H 148.136 -0.809203 4.08156 0
M  V30 1548 H 147.012 -1.49961 5.28018 0
M  V30 1549 H 147.273 -2.33232 3.75573 0
M  V30 1550 N 146.332 -1.57332 0.0918853 0
M  V30 1551 C 147.581 -1.93412 -0.572249 0
M  V30 1552 C 147.894 -0.975515 -1.69538 0
M  V30 1553 O 149.1 -1.22991 -2.42045 0
M  V30 1554 C 147.556 -3.43648 -1.0693 0
M  V30 1555 C 147.164 -4.47994 0.0239049 0
M  V30 1556 C 148.908 -3.88695 -1.70635 0
M  V30 1557 C 146.815 -5.89381 -0.488319 0
M  V30 1558 H 145.745 -0.721939 -0.217532 0
M  V30 1559 H 148.396 -1.82735 0.167369 0
M  V30 1560 H 146.778 -3.49466 -1.8625 0
M  V30 1561 H 147.952 -4.53815 0.799277 0
M  V30 1562 H 146.267 -4.12536 0.565946 0
M  V30 1563 H 148.864 -4.91725 -2.10025 0
M  V30 1564 H 149.207 -3.27166 -2.57426 0
M  V30 1565 H 149.74 -3.85564 -0.979023 0
M  V30 1566 H 146.479 -6.54602 0.342906 0
M  V30 1567 H 145.999 -5.87037 -1.23077 0
M  V30 1568 H 147.678 -6.39863 -0.958317 0
M  V30 1569 N 147.81 0.181792 -1.56548 0
M  V30 1570 C 148.773 1.20894 -1.94724 0
M  V30 1571 C 149.773 1.37738 -0.829747 0
M  V30 1572 O 150.963 1.35323 -1.09697 0
M  V30 1573 C 148.095 2.57593 -2.23291 0
M  V30 1574 H 149.288 0.882275 -2.86629 0
M  V30 1575 H 146.841 0.423838 -1.50444 0
M  V30 1576 H 147.576 2.95291 -1.34067 0
M  V30 1577 H 147.361 2.46735 -3.04736 0
M  V30 1578 H 148.851 3.31637 -2.53785 0
M  V30 1579 N 149.288 1.51039 0.449983 0
M  V30 1580 C 150.22 1.67617 1.56324 0
M  V30 1581 C 151.233 0.557083 1.52972 0
M  V30 1582 O 152.422 0.830989 1.57977 0
M  V30 1583 C 149.522 1.66402 2.95235 0
M  V30 1584 C 148.695 2.9469 3.23229 0
M  V30 1585 C 147.754 2.85832 4.41799 0
M  V30 1586 O 146.78 3.59785 4.41071 0
M  V30 1587 N 147.982 2.00821 5.44657 0
M  V30 1588 H 150.747 2.63648 1.42512 0
M  V30 1589 H 148.308 1.48767 0.638737 0
M  V30 1590 H 150.3 1.58062 3.72557 0
M  V30 1591 H 148.87 0.780182 3.02708 0
M  V30 1592 H 148.09 3.16996 2.34323 0
M  V30 1593 H 149.378 3.79636 3.38754 0
M  V30 1594 H 148.776 1.40091 5.48079 0
M  V30 1595 H 147.333 1.98368 6.20881 0
M  V30 1596 N 150.766 -0.704594 1.40972 0
M  V30 1597 C 151.696 -1.83124 1.44872 0
M  V30 1598 C 152.677 -1.67281 0.30838 0
M  V30 1599 O 153.862 -1.87149 0.518556 0
M  V30 1600 C 150.992 -3.21181 1.32136 0
M  V30 1601 C 149.946 -3.51714 2.43888 0
M  V30 1602 C 149.272 -4.89032 2.16222 0
M  V30 1603 C 150.572 -3.516 3.86232 0
M  V30 1604 H 152.266 -1.80117 2.39161 0
M  V30 1605 H 149.812 -0.865145 1.15114 0
M  V30 1606 H 151.765 -3.99702 1.33479 0
M  V30 1607 H 150.489 -3.24791 0.343279 0
M  V30 1608 H 149.148 -2.75539 2.41813 0
M  V30 1609 H 148.796 -4.89256 1.16778 0
M  V30 1610 H 148.496 -5.10426 2.911 0
M  V30 1611 H 150.02 -5.69873 2.19265 0
M  V30 1612 H 151.434 -4.2014 3.9007 0
M  V30 1613 H 149.831 -3.84523 4.60719 0
M  V30 1614 H 150.901 -2.50757 4.15029 0
M  V30 1615 N 152.244 -1.26651 -0.937939 0
M  V30 1616 C 153.174 -1.10993 -2.05433 0
M  V30 1617 C 154.155 -0.0142161 -1.70094 0
M  V30 1618 O 155.34 -0.186837 -1.93299 0
M  V30 1619 C 152.47 -0.745561 -3.39203 0
M  V30 1620 C 151.424 -1.79337 -3.88616 0
M  V30 1621 C 150.75 -1.28324 -5.19073 0
M  V30 1622 C 152.05 -3.19553 -4.13138 0
M  V30 1623 H 153.744 -2.0438 -2.1879 0
M  V30 1624 H 151.29 -0.984041 -1.05131 0
M  V30 1625 H 153.243 -0.622888 -4.16771 0
M  V30 1626 H 151.967 0.22401 -3.25831 0
M  V30 1627 H 150.626 -1.90477 -3.13231 0
M  V30 1628 H 150.274 -0.303414 -5.02084 0
M  V30 1629 H 149.974 -1.98369 -5.53103 0
M  V30 1630 H 151.498 -1.1733 -5.99221 0
M  V30 1631 H 152.912 -3.11471 -4.81309 0
M  V30 1632 H 151.309 -3.87218 -4.58457 0
M  V30 1633 H 152.379 -3.65368 -3.18801 0
M  V30 1634 N 153.722 1.14298 -1.08507 0
M  V30 1635 C 154.969 1.85359 -0.815373 0
M  V30 1636 C 155.297 1.83001 0.658865 0
M  V30 1637 O 154.552 1.25655 1.50031 0
M  V30 1638 C 154.851 3.33547 -1.28379 0
M  V30 1639 C 154.517 3.56093 -2.76602 0
M  V30 1640 C 153.179 3.61955 -3.17084 0
M  V30 1641 C 155.531 3.64834 -3.72217 0
M  V30 1642 C 152.859 3.74082 -4.51973 0
M  V30 1643 C 155.211 3.78487 -5.06883 0
M  V30 1644 C 153.875 3.82598 -5.46969 0
M  V30 1645 H 153.145 0.678276 -0.298366 0
M  V30 1646 H 155.792 1.35002 -1.35819 0
M  V30 1647 H 154.097 3.86191 -0.660593 0
M  V30 1648 H 155.794 3.86959 -1.05186 0
M  V30 1649 H 152.384 3.52179 -2.4427 0
M  V30 1650 H 156.568 3.59595 -3.42061 0
M  V30 1651 H 151.824 3.75527 -4.82483 0
M  V30 1652 H 155.998 3.84193 -5.80834 0
M  V30 1653 H 153.625 3.91747 -6.51489 0
M  V30 1654 N 155.201 0.870884 1.31352 0
M  V30 1655 C 156.131 0.343096 2.30966 0
M  V30 1656 C 157.112 -0.566507 1.60389 0
M  V30 1657 O 158.297 -0.483336 1.88089 0
M  V30 1658 C 155.427 -0.455487 3.443 0
M  V30 1659 C 154.381 0.361103 4.26474 0
M  V30 1660 C 153.707 -0.563221 5.31725 0
M  V30 1661 C 155.007 1.59566 4.97329 0
M  V30 1662 H 156.701 1.17548 2.75359 0
M  V30 1663 H 154.247 0.566686 1.32381 0
M  V30 1664 H 156.2 -0.83525 4.13039 0
M  V30 1665 H 154.924 -1.32139 2.98675 0
M  V30 1666 H 153.583 0.722825 3.59403 0
M  V30 1667 H 153.231 -1.42643 4.82351 0
M  V30 1668 H 152.931 -0.0207409 5.87596 0
M  V30 1669 H 154.455 -0.939808 6.03324 0
M  V30 1670 H 155.869 1.28728 5.58661 0
M  V30 1671 H 154.266 2.07728 5.63 0
M  V30 1672 H 155.336 2.34798 4.24262 0
M  V30 1673 N 156.679 -1.44442 0.630414 0
M  V30 1674 C 157.611 -2.2892 -0.113347 0
M  V30 1675 C 158.624 -1.41243 -0.80959 0
M  V30 1676 O 159.813 -1.65402 -0.671156 0
M  V30 1677 C 156.913 -3.17594 -1.18266 0
M  V30 1678 C 156.086 -4.33682 -0.569073 0
M  V30 1679 C 155.145 -5.03397 -1.53226 0
M  V30 1680 O 154.171 -5.59438 -1.04967 0
M  V30 1681 N 155.373 -5.04783 -2.86661 0
M  V30 1682 H 158.138 -2.93392 0.611636 0
M  V30 1683 H 155.699 -1.54881 0.471523 0
M  V30 1684 H 157.691 -3.61097 -1.82732 0
M  V30 1685 H 156.261 -2.54876 -1.80988 0
M  V30 1686 H 155.481 -3.9338 0.254187 0
M  V30 1687 H 156.769 -5.08608 -0.139767 0
M  V30 1688 H 156.167 -4.60584 -3.28449 0
M  V30 1689 H 154.724 -5.52077 -3.46489 0
M  V30 1690 N 158.157 -0.370918 -1.53173 0
M  V30 1691 C 159.382 0.220293 -2.06227 0
M  V30 1692 C 159.807 1.41243 -1.24225 0
M  V30 1693 O 159.165 1.79387 -0.262645 0
M  V30 1694 C 159.213 0.586663 -3.55796 0
M  V30 1695 O 158.317 1.68317 -3.76488 0
M  V30 1696 H 157.658 0.0308099 -0.663285 0
M  V30 1697 H 160.188 -0.533068 -1.97534 0
M  V30 1698 H 160.198 0.85617 -3.98916 0
M  V30 1699 H 158.873 -0.285013 -4.14922 0
M  V30 1700 H 157.45 1.40881 -3.45264 0
M  V30 1701 N 159.635 1.57281 -0.100228 0
M  V30 1702 C 160.545 2.17833 0.870965 0
M  V30 1703 C 161.561 1.14921 1.30649 0
M  V30 1704 O 162.737 1.47313 1.37335 0
M  V30 1705 C 159.802 2.75085 2.1102 0
M  V30 1706 C 158.863 3.9297 1.72838 0
M  V30 1707 C 158.096 4.47482 2.90854 0
M  V30 1708 O 158.319 4.00922 4.05731 0
M  V30 1709 O 157.253 5.38433 2.69023 0
M  V30 1710 H 161.079 3.0124 0.38575 0
M  V30 1711 H 158.664 1.48881 0.124397 0
M  V30 1712 H 160.546 3.11656 2.83634 0
M  V30 1713 H 159.221 1.94721 2.58584 0
M  V30 1714 H 158.128 3.61201 0.973883 0
M  V30 1715 H 159.461 4.74713 1.30033 0
M  V30 1716 N 161.113 -0.173488 1.56642 0
M  V30 1717 C 162.338 -0.910149 1.86363 0
M  V30 1718 C 162.763 -1.75132 0.686318 0
M  V30 1719 O 162.121 -1.77595 -0.364643 0
M  V30 1720 C 162.169 -1.76447 3.14482 0
M  V30 1721 O 161.273 -2.86584 2.96553 0
M  V30 1722 H 160.614 -0.255086 0.613047 0
M  V30 1723 H 163.144 -0.172283 2.03873 0
M  V30 1724 H 163.154 -2.16483 3.45831 0
M  V30 1725 H 161.829 -1.14658 3.99783 0
M  V30 1726 H 160.406 -2.50146 2.76553 0
M  V30 1727 N 162.591 -1.51276 -0.441967 0
M  V30 1728 C 163.539 -1.72823 -1.55676 0
M  V30 1729 C 164.533 -0.59445 -1.58627 0
M  V30 1730 O 165.739 -0.775715 -1.62427 0
M  V30 1731 H 162.114 -0.545983 -0.517113 0
M  V30 1732 H 164.085 -2.6628 -1.34675 0
M  V30 1733 C 162.834 -1.86619 -2.93375 0
M  V30 1734 H 162.157 -2.73264 -2.91834 0
M  V30 1735 H 163.597 -2.05709 -3.70756 0
M  V30 1736 C 162.056 -0.624842 -3.31055 0
M  V30 1737 O 162.586 0.222636 -4.01083 0
M  V30 1738 N 160.792 -0.470288 -2.86769 0
M  V30 1739 H 160.339 -1.161 -2.29953 0
M  V30 1740 H 160.297 0.359051 -3.12343 0
M  V30 1741 N 164.069 0.697108 -1.41344 0
M  V30 1742 C 165.016 1.81106 -1.43071 0
M  V30 1743 C 165.986 1.63632 -0.285275 0
M  V30 1744 O 167.171 1.84504 -0.486091 0
M  V30 1745 C 164.311 3.18975 -1.31715 0
M  V30 1746 C 163.424 3.47892 -2.56115 0
M  V30 1747 C 162.559 4.75367 -2.37064 0
M  V30 1748 C 161.598 4.97247 -3.56948 0
M  V30 1749 N 160.735 6.15947 -3.36977 0
M  V30 1750 H 165.575 1.78965 -2.38276 0
M  V30 1751 H 163.112 0.873975 -1.18322 0
M  V30 1752 H 165.07 3.98615 -1.23133 0
M  V30 1753 H 163.7 3.20297 -0.401183 0
M  V30 1754 H 162.752 2.62669 -2.75153 0
M  V30 1755 H 164.064 3.59962 -3.45295 0
M  V30 1756 H 163.218 5.63059 -2.25941 0
M  V30 1757 H 161.957 4.65541 -1.45338 0
M  V30 1758 H 160.962 4.08004 -3.68527 0
M  V30 1759 H 162.187 5.08934 -4.49626 0
M  V30 1760 H 160.133 6.07336 -2.47949 0
M  V30 1761 H 160.05 6.28777 -4.19732 0
M  V30 1762 H 161.318 7.06377 -3.29623 0
M  V30 1763 N 165.547 1.27147 0.931209 0
M  V30 1764 C 166.494 1.09568 2.03134 0
M  V30 1765 C 167.464 -0.00222433 1.661 0
M  V30 1766 O 168.649 0.159439 1.90133 0
M  V30 1767 C 165.789 0.745231 3.36957 0
M  V30 1768 C 164.902 1.92041 3.86968 0
M  V30 1769 C 164.037 1.51216 5.09222 0
M  V30 1770 C 163.076 2.65504 5.5152 0
M  V30 1771 N 162.213 2.25291 6.64972 0
M  V30 1772 H 167.053 2.03708 2.17502 0
M  V30 1773 H 164.59 1.01411 1.06556 0
M  V30 1774 H 166.548 0.522878 4.1391 0
M  V30 1775 H 165.178 -0.159202 3.22407 0
M  V30 1776 H 164.23 2.25541 3.06326 0
M  V30 1777 H 165.542 2.77787 4.1429 0
M  V30 1778 H 164.696 1.25084 5.93666 0
M  V30 1779 H 163.435 0.625749 4.83669 0
M  V30 1780 H 162.44 2.92354 4.65628 0
M  V30 1781 H 163.665 3.54761 5.7907 0
M  V30 1782 H 161.611 1.39098 6.41083 0
M  V30 1783 H 161.528 3.04577 6.91931 0
M  V30 1784 H 162.796 2.02398 7.52765 0
M  V30 1785 N 167.025 -1.13721 1.09112 0
M  V30 1786 C 168.436 -1.6648 0.845068 0
M  V30 1787 C 168.787 -1.85911 -0.62701 0
M  V30 1788 O 167.912 -1.57556 -1.48341 0
M  V30 1789 C 168.507 -3.02413 1.52748 0
M  V30 1790 C 167.066 -3.52176 1.32849 0
M  V30 1791 C 166.213 -2.27492 1.58564 0
M  V30 1792 H 169.164 -0.976872 1.25072 0
M  V30 1793 H 169.185 -3.68223 0.958752 0
M  V30 1794 H 168.697 -2.88238 2.59885 0
M  V30 1795 H 166.798 -3.7156 0.278137 0
M  V30 1796 H 166.911 -4.32499 2.0611 0
M  V30 1797 H 165.275 -2.33923 1.00758 0
M  V30 1798 H 166.058 -2.15886 2.66924 0
M  V30 1799 N 168.503 -0.877838 -1.30888 0
M  V30 1800 C 169.752 -0.488793 -1.95688 0
M  V30 1801 C 170.065 0.965485 -1.70111 0
M  V30 1802 O 171.271 1.46104 -2.28836 0
M  V30 1803 C 169.727 -0.823201 -3.50359 0
M  V30 1804 C 169.335 -2.29477 -3.84765 0
M  V30 1805 C 171.079 -0.503009 -4.21509 0
M  V30 1806 C 168.986 -2.57118 -5.32583 0
M  V30 1807 H 167.916 -0.179062 -0.732429 0
M  V30 1808 H 170.567 -1.07183 -1.48943 0
M  V30 1809 H 168.949 -0.169331 -3.95638 0
M  V30 1810 H 170.123 -2.99236 -3.5042 0
M  V30 1811 H 168.438 -2.58178 -3.267 0
M  V30 1812 H 171.035 -0.68665 -5.30273 0
M  V30 1813 H 171.378 0.557109 -4.12555 0
M  V30 1814 H 171.911 -1.11376 -3.8189 0
M  V30 1815 H 168.65 -3.61843 -5.4658 0
M  V30 1816 H 168.17 -1.91961 -5.68253 0
M  V30 1817 H 169.849 -2.42251 -5.99936 0
M  V30 1818 N 169.982 1.44106 -0.638065 0
M  V30 1819 C 170.932 2.27843 0.0847285 0
M  V30 1820 C 171.916 1.39055 0.809471 0
M  V30 1821 O 173.108 1.62808 0.694435 0
M  V30 1822 C 170.237 3.26497 1.06089 0
M  V30 1823 C 169.323 4.22772 0.33541 0
M  V30 1824 N 169.714 5.01737 -0.639787 0
M  V30 1825 C 168.012 4.42227 0.578921 0
M  V30 1826 C 168.713 5.71792 -1.06904 0
M  V30 1827 N 167.689 5.42079 -0.406395 0
M  V30 1828 H 171.491 2.86305 -0.663814 0
M  V30 1829 H 169.005 1.55627 -0.464122 0
M  V30 1830 H 171.002 3.8525 1.59337 0
M  V30 1831 H 169.662 2.69595 1.80966 0
M  V30 1832 H 170.673 5.07799 -1.01789 0
M  V30 1833 H 167.35 3.96415 1.31003 0
M  V30 1834 H 168.74 6.45205 -1.8751 0
M  V30 1835 N 171.46 0.379036 1.52974 0
M  V30 1836 C 172.393 -0.504932 2.22544 0
M  V30 1837 C 173.371 -1.0723 1.22231 0
M  V30 1838 O 174.555 -1.12589 1.51182 0
M  V30 1839 C 171.682 -1.69794 2.93066 0
M  V30 1840 C 170.728 -1.25678 4.07563 0
M  V30 1841 S 171.561 -0.246852 5.34931 0
M  V30 1842 C 172.717 -1.44588 6.08971 0
M  V30 1843 H 172.95 0.0858666 2.97176 0
M  V30 1844 H 170.483 0.163183 1.53535 0
M  V30 1845 H 172.441 -2.38219 3.34308 0
M  V30 1846 H 171.102 -2.26002 2.18133 0
M  V30 1847 H 170.295 -2.14725 4.5597 0
M  V30 1848 H 169.897 -0.651584 3.6828 0
M  V30 1849 H 172.189 -2.37469 6.34519 0
M  V30 1850 H 173.132 -1.00292 7.00962 0
M  V30 1851 H 173.54 -1.65804 5.39601 0
M  V30 1852 N 172.938 -1.57226 0.108567 0
M  V30 1853 C 174.168 -1.9889 -0.559142 0
M  V30 1854 C 174.576 -0.986889 -1.61422 0
M  V30 1855 O 173.919 0.0298705 -1.83676 0
M  V30 1856 C 173.981 -3.36952 -1.25315 0
M  V30 1857 C 173.645 -4.55679 -0.347248 0
M  V30 1858 C 174.642 -5.18281 0.409996 0
M  V30 1859 C 172.327 -5.0162 -0.261367 0
M  V30 1860 C 174.321 -6.25203 1.24096 0
M  V30 1861 C 172.008 -6.08405 0.573238 0
M  V30 1862 C 173.006 -6.70063 1.32304 0
M  V30 1863 O 172.694 -7.74788 2.14381 0
M  V30 1864 H 172.426 -0.658343 -0.153492 0
M  V30 1865 H 174.98 -2.04532 0.188584 0
M  V30 1866 H 173.21 -3.28032 -2.04773 0
M  V30 1867 H 174.899 -3.62974 -1.81673 0
M  V30 1868 H 175.665 -4.8371 0.353457 0
M  V30 1869 H 171.544 -4.53381 -0.834656 0
M  V30 1870 H 175.088 -6.73259 1.82669 0
M  V30 1871 H 170.985 -6.42406 0.631208 0
M  V30 1872 H 171.753 -7.91837 2.07209 0
M  V30 1873 N 174.416 0.165178 -1.56732 0
M  V30 1874 C 175.665 0.879143 -1.81532 0
M  V30 1875 C 175.978 1.83144 -0.686842 0
M  V30 1876 O 177.184 2.58823 -0.819944 0
M  V30 1877 C 175.64 1.61388 -3.21686 0
M  V30 1878 C 175.248 0.704904 -4.4242 0
M  V30 1879 C 176.992 2.3157 -3.55774 0
M  V30 1880 C 174.899 1.44022 -5.73595 0
M  V30 1881 H 173.829 0.332033 -0.676957 0
M  V30 1882 H 176.48 0.132008 -1.83025 0
M  V30 1883 H 174.862 2.40599 -3.14529 0
M  V30 1884 H 176.036 -0.0506815 -4.60772 0
M  V30 1885 H 174.351 0.112419 -4.16248 0
M  V30 1886 H 176.948 2.8719 -4.51028 0
M  V30 1887 H 177.291 3.07201 -2.8095 0
M  V30 1888 H 177.824 1.59297 -3.64513 0
M  V30 1889 H 174.563 0.72612 -6.51466 0
M  V30 1890 H 174.083 2.16898 -5.5921 0
M  V30 1891 H 175.762 1.98606 -6.15764 0
M  V30 1892 N 175.894 1.51508 0.433938 0
M  V30 1893 C 176.842 1.73646 1.54757 0
M  V30 1894 C 177.836 0.602854 1.5831 0
M  V30 1895 O 179.042 0.784318 1.62014 0
M  V30 1896 H 175.417 0.548718 0.51421 0
M  V30 1897 H 177.388 2.66991 1.33261 0
M  V30 1898 C 176.137 1.88172 2.92381 0
M  V30 1899 H 175.46 2.74808 2.90381 0
M  V30 1900 H 176.9 2.07672 3.6966 0
M  V30 1901 C 175.359 0.64239 3.30719 0
M  V30 1902 O 175.889 -0.201362 4.01195 0
M  V30 1903 N 174.095 0.485489 2.86516 0
M  V30 1904 H 173.642 1.17318 2.29334 0
M  V30 1905 H 173.6 -0.342482 3.12529 0
M  V30 1906 N 177.372 -0.689602 1.41712 0
M  V30 1907 C 178.597 -1.48329 1.44959 0
M  V30 1908 C 179.022 -1.8801 0.0581283 0
M  V30 1909 O 178.38 -1.55026 -0.940035 0
M  V30 1910 C 178.428 -2.71835 2.36935 0
M  V30 1911 O 177.532 -3.69549 1.8305 0
M  V30 1912 H 176.873 -0.446199 0.491734 0
M  V30 1913 H 179.403 -0.847127 1.86239 0
M  V30 1914 H 179.413 -3.20076 2.53013 0
M  V30 1915 H 178.088 -2.42291 3.38035 0
M  V30 1916 H 176.665 -3.2851 1.76452 0
M  V30 1917 N 178.85 -1.27639 -0.924453 0
M  V30 1918 C 180.261 -1.12834 -1.48746 0
M  V30 1919 C 180.612 0.285505 -1.94112 0
M  V30 1920 O 179.737 1.17874 -1.81479 0
M  V30 1921 C 180.332 -2.04217 -2.70334 0
M  V30 1922 C 178.891 -1.93509 -3.22848 0
M  V30 1923 C 178.038 -1.96583 -1.95577 0
M  V30 1924 H 180.989 -1.40484 -0.738233 0
M  V30 1925 H 181.01 -1.59989 -3.4523 0
M  V30 1926 H 180.522 -3.07111 -2.37285 0
M  V30 1927 H 178.623 -0.936131 -3.60649 0
M  V30 1928 H 178.736 -2.79917 -3.88823 0
M  V30 1929 H 177.1 -1.4085 -2.12211 0
M  V30 1930 H 177.883 -3.01137 -1.64837 0
M  V30 1931 N 180.328 1.1314 -1.09713 0
M  V30 1932 C 181.576 1.84119 -0.833338 0
M  V30 1933 C 181.897 1.84097 0.642904 0
M  V30 1934 O 181.167 1.29881 1.46655 0
M  V30 1935 H 179.747 0.681766 -0.305293 0
M  V30 1936 H 182.409 1.37038 -1.38588 0
M  V30 1937 H 181.505 2.88543 -1.18951 0
M  V30 1938 N 181.806 0.884767 1.30421 0
M  V30 1939 C 183.054 0.502112 1.95763 0
M  V30 1940 C 183.375 -0.951815 1.70192 0
M  V30 1941 O 182.645 -1.6692 1.0254 0
M  V30 1942 H 181.225 0.182694 0.724315 0
M  V30 1943 H 183.887 1.1278 1.58955 0
M  V30 1944 H 182.983 0.672188 3.04775 0
M  V30 1945 N 183.284 -1.43765 0.645699 0
M  V30 1946 C 184.53 -2.02197 0.156271 0
M  V30 1947 C 184.863 -1.50776 -1.22393 0
M  V30 1948 O 184.138 -0.697771 -1.81553 0
M  V30 1949 C 184.421 -3.59749 0.158872 0
M  V30 1950 C 184.274 -4.21419 1.57245 0
M  V30 1951 C 185.593 -4.37149 -0.50879 0
M  V30 1952 H 182.712 -0.734694 0.0582602 0
M  V30 1953 H 185.354 -1.71157 0.824951 0
M  V30 1954 H 183.504 -3.86325 -0.410525 0
M  V30 1955 H 185.176 -4.059 2.19186 0
M  V30 1956 H 183.419 -3.78356 2.122 0
M  V30 1957 H 184.09 -5.30482 1.52619 0
M  V30 1958 H 186.566 -4.16093 -0.024412 0
M  V30 1959 H 185.442 -5.4683 -0.476213 0
M  V30 1960 H 185.703 -4.12839 -1.58165 0
M  V30 1961 N 184.763 -0.387143 -1.52771 0
M  V30 1962 C 186.009 0.196025 -2.0185 0
M  V30 1963 C 186.342 1.46641 -1.27319 0
M  V30 1964 O 185.617 1.90889 -0.373032 0
M  V30 1965 C 185.9 0.466136 -3.5707 0
M  V30 1966 C 185.753 -0.819385 -4.42274 0
M  V30 1967 C 187.072 1.25768 -4.21747 0
M  V30 1968 H 184.191 0.0697708 -0.73369 0
M  V30 1969 H 186.833 -0.516286 -1.82851 0
M  V30 1970 H 184.983 1.07293 -3.7339 0
M  V30 1971 H 186.655 -1.4563 -4.37709 0
M  V30 1972 H 184.898 -1.43517 -4.09372 0
M  V30 1973 H 185.569 -0.585065 -5.48891 0
M  V30 1974 H 188.045 0.744167 -4.09391 0
M  V30 1975 H 186.921 1.41541 -5.30337 0
M  V30 1976 H 187.182 2.27228 -3.79236 0
M  V30 1977 N 186.241 1.57166 -0.116904 0
M  V30 1978 C 187.469 1.99473 0.549383 0
M  V30 1979 C 187.884 0.996541 1.60357 0
M  V30 1980 O 187.241 -0.0108731 1.82497 0
M  V30 1981 C 187.292 3.41788 1.17741 0
M  V30 1982 O 187.013 4.37788 0.165362 0
M  V30 1983 C 188.514 3.99216 1.92722 0
M  V30 1984 H 185.734 0.655009 0.145616 0
M  V30 1985 H 188.278 2.03494 -0.202625 0
M  V30 1986 H 186.433 3.38713 1.88021 0
M  V30 1987 H 186.847 5.20806 0.621403 0
M  V30 1988 H 188.321 5.00882 2.31995 0
M  V30 1989 H 188.798 3.3824 2.80161 0
M  V30 1990 H 189.404 4.0583 1.27209 0
M  V30 1991 N 187.719 -0.156864 1.56817 0
M  V30 1992 C 188.682 -1.17781 1.96622 0
M  V30 1993 C 189.682 -1.36401 0.851555 0
M  V30 1994 O 190.872 -1.33561 1.11836 0
M  V30 1995 C 188.004 -2.54008 2.27361 0
M  V30 1996 H 189.197 -0.836564 2.87996 0
M  V30 1997 H 186.75 -0.39985 1.51099 0
M  V30 1998 H 187.485 -2.9312 1.38748 0
M  V30 1999 H 187.27 -2.41856 3.08623 0
M  V30 2000 H 188.76 -3.27558 2.59029 0
M  V30 2001 N 189.197 -1.51736 -0.425897 0
M  V30 2002 C 190.445 -1.64644 -1.17204 0
M  V30 2003 C 190.766 -0.370486 -1.91448 0
M  V30 2004 O 190.036 0.614088 -1.86026 0
M  V30 2005 H 188.616 -0.606819 -0.435638 0
M  V30 2006 H 191.278 -1.88713 -0.487177 0
M  V30 2007 H 190.374 -2.47958 -1.89534 0
M  V30 2008 N 190.675 0.682077 -1.42076 0
M  V30 2009 C 191.605 1.80796 -1.47767 0
M  V30 2010 C 192.586 1.6677 -0.334954 0
M  V30 2011 O 193.771 1.863 -0.548264 0
M  V30 2012 C 190.901 3.19038 -1.37229 0
M  V30 2013 C 189.855 3.47789 -2.49453 0
M  V30 2014 C 189.181 4.8553 -2.23975 0
M  V30 2015 C 190.481 3.45411 -3.91776 0
M  V30 2016 H 192.175 1.7629 -2.41997 0
M  V30 2017 H 189.721 0.846721 -1.16476 0
M  V30 2018 H 191.674 3.97528 -1.39821 0
M  V30 2019 H 190.398 3.24204 -0.394907 0
M  V30 2020 H 189.057 2.71657 -2.46166 0
M  V30 2021 H 188.705 4.87337 -1.24547 0
M  V30 2022 H 188.405 5.0573 -2.99184 0
M  V30 2023 H 189.929 5.66312 -2.28304 0
M  V30 2024 H 191.343 4.13882 -3.96705 0
M  V30 2025 H 189.74 3.77145 -4.66778 0
M  V30 2026 H 190.81 2.44122 -4.18966 0
M  V30 2027 N 192.153 1.28127 0.917671 0
M  V30 2028 C 193.116 1.11744 2.00115 0
M  V30 2029 C 194.116 0.0583052 1.60694 0
M  V30 2030 O 195.306 0.303755 1.71531 0
M  V30 2031 C 192.438 0.704862 3.33533 0
M  V30 2032 H 193.631 2.07966 2.16079 0
M  V30 2033 H 191.184 1.11058 1.09981 0
M  V30 2034 H 191.919 -0.258299 3.2327 0
M  V30 2035 H 191.704 1.4699 3.63505 0
M  V30 2036 H 193.194 0.612768 4.1308 0
M  V30 2037 N 193.631 -1.12557 1.10312 0
M  V30 2038 C 194.88 -1.83395 0.839588 0
M  V30 2039 C 195.193 -1.84939 -0.636929 0
M  V30 2040 O 196.399 -2.51761 -1.01631 0
M  V30 2041 C 194.855 -3.29303 1.45215 0
M  V30 2042 C 194.463 -3.36122 2.96186 0
M  V30 2043 C 196.207 -4.05121 1.26796 0
M  V30 2044 C 194.114 -4.76357 3.50483 0
M  V30 2045 H 193.044 -0.687133 0.310425 0
M  V30 2046 H 195.695 -1.26746 1.32694 0
M  V30 2047 H 194.077 -3.85812 0.892469 0
M  V30 2048 H 195.251 -2.89559 3.58458 0
M  V30 2049 H 193.566 -2.73776 3.13745 0
M  V30 2050 H 196.163 -5.08668 1.64806 0
M  V30 2051 H 196.506 -4.15773 0.209409 0
M  V30 2052 H 197.039 -3.54967 1.79563 0
M  V30 2053 H 193.778 -4.70899 4.55998 0
M  V30 2054 H 193.298 -5.23377 2.92978 0
M  V30 2055 H 194.977 -5.45294 3.48228 0
M  V30 2056 N 195.109 -0.891671 -1.2995 0
M  V30 2057 C 196.339 -0.527893 -1.99742 0
M  V30 2058 C 196.747 0.88979 -1.66971 0
M  V30 2059 O 196.09 1.59766 -0.906667 0
M  V30 2060 C 196.152 -0.630804 -3.53922 0
M  V30 2061 C 195.816 -2.01401 -4.10228 0
M  V30 2062 C 196.813 -2.98422 -4.25724 0
M  V30 2063 C 194.498 -2.32121 -4.45449 0
M  V30 2064 C 196.492 -4.24293 -4.75662 0
M  V30 2065 C 194.179 -3.58237 -4.95086 0
M  V30 2066 C 195.177 -4.54137 -5.10146 0
M  V30 2067 O 194.865 -5.78014 -5.58708 0
M  V30 2068 H 194.597 -0.201953 -0.645129 0
M  V30 2069 H 197.151 -1.20076 -1.66646 0
M  V30 2070 H 195.381 0.0990616 -3.86573 0
M  V30 2071 H 197.07 -0.277338 -4.04951 0
M  V30 2072 H 197.836 -2.76001 -3.98809 0
M  V30 2073 H 193.715 -1.5824 -4.32991 0
M  V30 2074 H 197.259 -4.99153 -4.87332 0
M  V30 2075 H 193.156 -3.80491 -5.21437 0
M  V30 2076 H 193.924 -5.8049 -5.77039 0
M  V30 2077 N 196.587 1.43421 -0.653314 0
M  V30 2078 C 197.864 1.95361 -0.0966581 0
M  V30 2079 C 198.244 1.59461 1.38331 0
M  V30 2080 O 197.592 0.879777 2.10884 0
M  V30 2081 C 197.802 3.47311 -0.342988 0
M  V30 2082 C 199.15 4.23875 -0.24798 0
M  V30 2083 O 200.174 3.55133 -0.275553 0
M  V30 2084 O 199.033 5.4623 -0.171771 0
M  V30 2085 H 196.127 0.826945 0.00956291 0
M  V30 2086 H 198.673 1.5336 -0.726558 0
M  V30 2087 H 197.445 3.66569 -1.36906 0
M  V30 2088 H 197.068 3.9631 0.319975 0
M  V30 2089 N 198.065 0.39524 1.52563 0
M  V30 2090 C 199.293 -0.184943 2.06072 0
M  V30 2091 C 199.708 -1.40021 1.26647 0
M  V30 2092 O 199.065 -1.79767 0.314672 0
M  V30 2093 C 199.116 -0.549179 3.57304 0
M  V30 2094 O 198.837 0.617813 4.33722 0
M  V30 2095 C 200.338 -1.18459 4.2718 0
M  V30 2096 H 197.558 -0.0265025 0.670476 0
M  V30 2097 H 200.102 0.562184 1.96621 0
M  V30 2098 H 198.257 -1.2462 3.66809 0
M  V30 2099 H 198.671 0.317091 5.23541 0
M  V30 2100 H 200.145 -1.38976 5.34219 0
M  V30 2101 H 200.622 -2.15368 3.82771 0
M  V30 2102 H 201.228 -0.528163 4.22008 0
M  V30 2103 N 199.544 -1.57102 0.125237 0
M  V30 2104 C 200.477 -2.11371 -0.860094 0
M  V30 2105 C 201.455 -1.03168 -1.25679 0
M  V30 2106 O 202.639 -1.30862 -1.35674 0
M  V30 2107 C 199.766 -2.61555 -2.1519 0
M  V30 2108 C 198.812 -3.81701 -1.9028 0
M  V30 2109 S 199.645 -5.23797 -1.11343 0
M  V30 2110 C 200.801 -5.77353 -2.41689 0
M  V30 2111 H 201.034 -2.94617 -0.39852 0
M  V30 2112 H 198.567 -1.54145 -0.0886555 0
M  V30 2113 H 200.525 -2.91122 -2.89411 0
M  V30 2114 H 199.186 -1.78479 -2.58465 0
M  V30 2115 H 198.379 -4.14985 -2.86014 0
M  V30 2116 H 197.981 -3.52783 -1.24178 0
M  V30 2117 H 200.273 -5.87458 -3.37489 0
M  V30 2118 H 201.216 -6.75323 -2.12942 0
M  V30 2119 H 201.624 -5.05457 -2.51342 0
M  V30 2120 N 201.022 0.148545 -1.56898 0
M  V30 2121 C 201.954 1.20852 -1.9475 0
M  V30 2122 C 202.967 1.39265 -0.843152 0
M  V30 2123 O 204.156 1.38864 -1.12156 0
M  V30 2124 C 201.256 2.57362 -2.20495 0
M  V30 2125 C 200.429 2.59947 -3.51776 0
M  V30 2126 C 199.488 3.77984 -3.6608 0
M  V30 2127 O 198.514 3.62929 -4.38487 0
M  V30 2128 N 199.716 4.95375 -3.02629 0
M  V30 2129 H 202.481 0.886804 -2.86279 0
M  V30 2130 H 200.042 0.338121 -1.5833 0
M  V30 2131 H 202.034 3.34833 -2.27307 0
M  V30 2132 H 200.604 2.81832 -1.35238 0
M  V30 2133 H 199.824 1.68403 -3.56419 0
M  V30 2134 H 201.112 2.58704 -4.38121 0
M  V30 2135 H 200.51 5.10509 -2.43715 0
M  V30 2136 H 199.067 5.70627 -3.15004 0
M  V30 2137 N 202.5 1.5196 0.417844 0
M  V30 2138 C 203.73 1.69181 1.18581 0
M  V30 2139 C 204.138 0.397104 1.84986 0
M  V30 2140 O 203.481 -0.636011 1.72339 0
M  V30 2141 C 203.543 2.76497 2.29759 0
M  V30 2142 C 203.207 4.18514 1.83563 0
M  V30 2143 C 204.204 5.02648 1.32821 0
M  V30 2144 C 201.889 4.64708 1.90661 0
M  V30 2145 C 203.883 6.31044 0.897894 0
M  V30 2146 C 201.57 5.93096 1.47241 0
M  V30 2147 C 202.568 6.76093 0.968891 0
M  V30 2148 O 202.256 8.02078 0.540924 0
M  V30 2149 H 201.988 0.570457 0.362705 0
M  V30 2150 H 204.542 1.99249 0.498885 0
M  V30 2151 H 202.772 2.41786 3.01789 0
M  V30 2152 H 204.461 2.82403 2.91553 0
M  V30 2153 H 205.227 4.68154 1.26716 0
M  V30 2154 H 201.106 4.00216 2.28797 0
M  V30 2155 H 204.65 6.95776 0.504192 0
M  V30 2156 H 200.547 6.271 1.53022 0
M  V30 2157 H 201.315 8.15794 0.66502 0
M  V30 2158 N 203.978 -0.674533 1.42435 0
M  V30 2159 C 205.227 -1.43034 1.42212 0
M  V30 2160 C 205.54 -1.95555 0.0420788 0
M  V30 2161 O 206.746 -2.71374 -0.0827558 0
M  V30 2162 C 205.202 -2.58748 2.50155 0
M  V30 2163 C 204.81 -2.12925 3.94166 0
M  V30 2164 C 206.554 -3.36257 2.59098 0
M  V30 2165 C 204.461 -3.25723 4.93618 0
M  V30 2166 H 203.391 -0.537345 0.528939 0
M  V30 2167 H 206.042 -0.73024 1.68344 0
M  V30 2168 H 204.424 -3.31128 2.17188 0
M  V30 2169 H 205.598 -1.47697 4.36488 0
M  V30 2170 H 203.913 -1.48354 3.89076 0
M  V30 2171 H 206.51 -4.20264 3.30578 0
M  V30 2172 H 206.853 -3.82866 1.63461 0
M  V30 2173 H 207.386 -2.70947 2.9126 0
M  V30 2174 H 204.125 -2.84105 5.90732 0
M  V30 2175 H 203.645 -3.89732 4.55926 0
M  V30 2176 H 205.324 -3.91186 5.15347 0
M  V30 2177 N 205.456 -1.28612 -0.910864 0
M  V30 2178 C 206.386 -1.15326 -2.03032 0
M  V30 2179 C 207.367 -0.0502924 -1.70026 0
M  V30 2180 O 208.552 -0.227797 -1.92859 0
M  V30 2181 C 205.682 -0.817343 -3.37545 0
M  V30 2182 C 204.636 -1.8754 -3.84724 0
M  V30 2183 C 203.962 -1.39305 -5.16235 0
M  V30 2184 C 205.262 -3.28244 -4.06267 0
M  V30 2185 H 206.956 -2.08975 -2.14406 0
M  V30 2186 H 204.502 -1.00612 -1.03021 0
M  V30 2187 H 206.455 -0.711151 -4.15356 0
M  V30 2188 H 205.179 0.154846 -3.26233 0
M  V30 2189 H 203.838 -1.97079 -3.09121 0
M  V30 2190 H 203.486 -0.409846 -5.01328 0
M  V30 2191 H 203.186 -2.10057 -5.48771 0
M  V30 2192 H 204.71 -1.30014 -5.96598 0
M  V30 2193 H 206.124 -3.21611 -4.74594 0
M  V30 2194 H 204.521 -3.96855 -4.5014 0
M  V30 2195 H 205.591 -3.72048 -3.10979 0
M  V30 2196 N 206.934 1.1197 -1.10907 0
M  V30 2197 C 207.882 2.19927 -0.757303 0
M  V30 2198 C 208.876 1.67564 0.248747 0
M  V30 2199 O 210.082 1.79672 0.108605 0
M  V30 2200 H 206.457 0.716925 -0.226987 0
M  V30 2201 H 208.428 2.46847 -1.67658 0
M  V30 2202 C 207.177 3.47061 -0.210671 0
M  V30 2203 H 206.5 3.87703 -0.976049 0
M  V30 2204 H 207.94 4.24 -0.0026584 0
M  V30 2205 C 206.399 3.19864 1.05777 0
M  V30 2206 O 206.929 3.40049 2.13845 0
M  V30 2207 N 205.135 2.73636 0.978349 0
M  V30 2208 H 204.682 2.5741 0.0988246 0
M  V30 2209 H 204.64 2.55815 1.82773 0
M  V30 2210 N 208.412 0.89855 1.29475 0
M  V30 2211 C 209.823 0.572537 1.77705 0
M  V30 2212 C 210.174 -0.911778 1.73727 0
M  V30 2213 O 209.299 -1.71288 1.32247 0
M  V30 2214 C 209.894 1.03252 3.22683 0
M  V30 2215 C 208.453 0.757687 3.68695 0
M  V30 2216 C 207.6 1.20787 2.49612 0
M  V30 2217 H 210.551 1.08139 1.16153 0
M  V30 2218 H 210.572 0.367307 3.78723 0
M  V30 2219 H 210.084 2.11285 3.25546 0
M  V30 2220 H 208.185 -0.310079 3.71308 0
M  V30 2221 H 208.298 1.35476 4.59547 0
M  V30 2222 H 206.662 0.626888 2.46865 0
M  V30 2223 H 207.445 2.29622 2.55203 0
M  V30 2224 N 209.89 -1.43072 0.660911 0
M  V30 2225 C 211.139 -2.00942 0.174735 0
M  V30 2226 C 211.452 -1.52797 -1.22117 0
M  V30 2227 O 212.658 -2.02991 -1.80297 0
M  V30 2228 C 211.114 -3.58948 0.261559 0
M  V30 2229 C 210.722 -4.16085 1.66064 0
M  V30 2230 C 212.466 -4.24173 -0.166617 0
M  V30 2231 C 210.373 -5.6641 1.70098 0
M  V30 2232 H 209.303 -0.751483 0.0615631 0
M  V30 2233 H 211.954 -1.63955 0.824069 0
M  V30 2234 H 210.336 -3.93372 -0.455421 0
M  V30 2235 H 211.51 -3.93147 2.40359 0
M  V30 2236 H 209.825 -3.6326 2.03546 0
M  V30 2237 H 212.422 -5.34471 -0.156433 0
M  V30 2238 H 212.765 -3.98647 -1.19943 0
M  V30 2239 H 213.298 -3.94659 0.498875 0
M  V30 2240 H 210.037 -5.96715 2.71315 0
M  V30 2241 H 209.557 -5.91382 1.00139 0
M  V30 2242 H 211.236 -6.30585 1.44816 0
M  V30 2243 N 211.368 -0.403325 -1.52352 0
M  V30 2244 C 212.608 0.173946 -2.03659 0
M  V30 2245 C 212.972 1.42869 -1.28267 0
M  V30 2246 O 214.173 2.08403 -1.69769 0
M  V30 2247 C 212.444 0.421478 -3.54906 0
M  V30 2248 S 214.003 0.967027 -4.28012 0
M  V30 2249 H 210.821 0.0477461 -0.709395 0
M  V30 2250 H 213.423 -0.554906 -1.87459 0
M  V30 2251 H 212.127 -0.498616 -4.0736 0
M  V30 2252 H 211.658 1.17837 -3.75337 0
M  V30 2253 H 213.673 2.24812 -4.4235 0
M  V30 2254 N 212.846 1.57033 -0.133567 0
M  V30 2255 C 214.074 2.00044 0.528195 0
M  V30 2256 C 214.489 1.01349 1.59291 0
M  V30 2257 O 213.846 0.00848369 1.82498 0
M  V30 2258 C 213.897 3.43018 1.1411 0
M  V30 2259 O 213.618 4.37939 0.11892 0
M  V30 2260 C 215.119 4.01237 1.88477 0
M  V30 2261 H 212.339 0.656517 0.138661 0
M  V30 2262 H 214.883 2.03267 -0.224196 0
M  V30 2263 H 213.038 3.40688 1.84418 0
M  V30 2264 H 213.452 5.21436 0.56613 0
M  V30 2265 H 214.926 5.03314 2.26669 0
M  V30 2266 H 215.403 3.41193 2.76558 0
M  V30 2267 H 216.009 4.07156 1.22898 0
M  V30 2268 N 214.325 -0.140222 1.56975 0
M  V30 2269 C 215.571 -0.848084 1.84876 0
M  V30 2270 C 215.926 -1.78481 0.718481 0
M  V30 2271 O 215.219 -1.89497 -0.283093 0
M  V30 2272 C 215.413 -1.65386 3.16832 0
M  V30 2273 C 215.242 -0.79665 4.42587 0
M  V30 2274 C 214.012 -0.459648 5.03205 0
M  V30 2275 C 216.21 -0.12389 5.14151 0
M  V30 2276 N 214.192 0.410446 6.12526 0
M  V30 2277 C 215.563 0.606064 6.17031 0
M  V30 2278 C 217.618 -0.0452654 4.97879 0
M  V30 2279 C 216.321 1.40723 7.054 0
M  V30 2280 C 218.347 0.742658 5.86718 0
M  V30 2281 C 217.709 1.46087 6.89085 0
M  V30 2282 H 213.808 -0.287946 0.727056 0
M  V30 2283 H 216.392 -0.11304 1.94372 0
M  V30 2284 H 214.563 -2.36009 3.08471 0
M  V30 2285 H 216.295 -2.30541 3.32615 0
M  V30 2286 H 213.05 -0.797006 4.66846 0
M  V30 2287 H 213.474 0.836716 6.7181 0
M  V30 2288 H 218.116 -0.586184 4.18717 0
M  V30 2289 H 215.834 1.95938 7.83986 0
M  V30 2290 H 219.42 0.805574 5.76196 0
M  V30 2291 H 218.3 2.06077 7.56639 0
M  V30 2292 N 215.803 -1.52179 -0.40978 0
M  V30 2293 C 217.043 -1.67882 -1.16597 0
M  V30 2294 C 217.407 -0.399795 -1.87791 0
M  V30 2295 O 218.608 -0.43292 -2.65291 0
M  V30 2296 C 216.879 -2.86662 -2.13448 0
M  V30 2297 S 218.438 -3.22843 -2.97183 0
M  V30 2298 H 215.256 -0.59118 -0.395002 0
M  V30 2299 H 217.858 -1.9017 -0.453373 0
M  V30 2300 H 216.562 -3.77998 -1.59831 0
M  V30 2301 H 216.093 -2.66645 -2.89247 0
M  V30 2302 H 218.108 -2.71415 -4.15389 0
M  V30 2303 N 217.281 0.66697 -1.42791 0
M  V30 2304 C 218.527 1.4291 -1.43891 0
M  V30 2305 C 218.86 1.94114 -0.0578972 0
M  V30 2306 O 218.135 1.71414 0.91911 0
M  V30 2307 C 218.418 2.62049 -2.46987 0
M  V30 2308 C 218.271 2.16426 -3.94309 0
M  V30 2309 C 219.59 3.64266 -2.46978 0
M  V30 2310 H 216.709 0.518306 -0.523954 0
M  V30 2311 H 219.351 0.757321 -1.74255 0
M  V30 2312 H 217.501 3.19361 -2.21225 0
M  V30 2313 H 219.173 1.64221 -4.31079 0
M  V30 2314 H 217.416 1.47925 -4.078 0
M  V30 2315 H 218.087 3.02038 -4.62036 0
M  V30 2316 H 220.563 3.16686 -2.69906 0
M  V30 2317 H 219.439 4.45196 -3.21079 0
M  V30 2318 H 219.7 4.15927 -1.49857 0
M  V30 2319 N 218.759 1.29093 0.90403 0
M  V30 2320 C 220.007 1.16583 1.65085 0
M  V30 2321 C 220.328 -0.283933 1.92922 0
M  V30 2322 O 219.598 -1.19509 1.55224 0
M  V30 2323 H 218.178 0.428467 0.611903 0
M  V30 2324 H 220.84 1.61959 1.08422 0
M  V30 2325 H 219.936 1.71266 2.6091 0
M  V30 2326 N 220.237 -1.11381 1.11499 0
M  V30 2327 C 221.169 -2.17207 0.731704 0
M  V30 2328 C 222.182 -1.61066 -0.236957 0
M  V30 2329 O 223.371 -1.78489 -0.0197591 0
M  V30 2330 C 220.471 -3.38846 0.0607624 0
M  V30 2331 C 219.644 -4.24451 1.0564 0
M  V30 2332 C 218.703 -5.24562 0.4149 0
M  V30 2333 O 217.729 -5.59071 1.069 0
M  V30 2334 N 218.931 -5.74651 -0.821943 0
M  V30 2335 H 221.696 -2.50699 1.64225 0
M  V30 2336 H 219.257 -1.26908 1.00529 0
M  V30 2337 H 221.249 -4.02911 -0.380139 0
M  V30 2338 H 219.819 -3.03411 -0.752376 0
M  V30 2339 H 219.039 -3.56833 1.67524 0
M  V30 2340 H 220.327 -4.78486 1.72998 0
M  V30 2341 H 219.725 -5.48797 -1.37252 0
M  V30 2342 H 218.282 -6.40549 -1.20582 0
M  V30 2343 N 221.715 -0.905404 -1.28997 0
M  V30 2344 C 222.678 -0.392253 -2.25819 0
M  V30 2345 C 223.678 0.476753 -1.5357 0
M  V30 2346 O 224.868 0.280994 -1.71919 0
M  V30 2347 C 222 0.438588 -3.38067 0
M  V30 2348 H 223.193 -1.24743 -2.72725 0
M  V30 2349 H 220.746 -0.684051 -1.40536 0
M  V30 2350 H 221.481 1.31352 -2.96508 0
M  V30 2351 H 221.266 -0.184167 -3.91667 0
M  V30 2352 H 222.756 0.78873 -4.10084 0
M  V30 2353 N 223.193 1.4272 -0.668489 0
M  V30 2354 C 224.156 2.292 0.00448567 0
M  V30 2355 C 225.156 1.43001 0.735339 0
M  V30 2356 O 226.346 1.64461 0.57429 0
M  V30 2357 C 223.478 3.25375 1.01705 0
M  V30 2358 H 224.671 2.90199 -0.756608 0
M  V30 2359 H 222.224 1.50254 -0.430506 0
M  V30 2360 H 222.959 2.69301 1.80686 0
M  V30 2361 H 222.744 3.88944 0.496463 0
M  V30 2362 H 224.234 3.90245 1.48655 0
M  V30 2363 N 224.671 0.411399 1.52136 0
M  V30 2364 C 225.896 -0.165538 2.06738 0
M  V30 2365 C 226.321 -1.379 1.27926 0
M  V30 2366 O 225.679 -1.78628 0.310114 0
M  V30 2367 C 225.727 -0.492124 3.57226 0
M  V30 2368 O 224.831 -1.58276 3.80818 0
M  V30 2369 H 224.172 -0.0132132 0.663869 0
M  V30 2370 H 226.702 0.585253 1.96051 0
M  V30 2371 H 226.712 -0.750104 4.01045 0
M  V30 2372 H 225.387 0.394922 4.14021 0
M  V30 2373 H 223.964 -1.31677 3.48877 0
M  V30 2374 N 226.149 -1.5696 0.141893 0
M  V30 2375 C 227.082 -2.12271 -0.837627 0
M  V30 2376 C 228.06 -1.04495 -1.24578 0
M  V30 2377 O 229.244 -1.32293 -1.34278 0
M  V30 2378 C 226.371 -2.63822 -2.12404 0
M  V30 2379 C 225.417 -3.83698 -1.86221 0
M  V30 2380 S 226.25 -5.24948 -1.05781 0
M  V30 2381 C 227.406 -5.79884 -2.35552 0
M  V30 2382 H 227.639 -2.95023 -0.367249 0
M  V30 2383 H 225.172 -1.54231 -0.0723014 0
M  V30 2384 H 227.13 -2.94175 -2.86307 0
M  V30 2385 H 225.791 -1.8121 -2.56557 0
M  V30 2386 H 224.984 -4.17995 -2.81596 0
M  V30 2387 H 224.586 -3.5408 -1.20429 0
M  V30 2388 H 226.878 -5.91005 -3.31239 0
M  V30 2389 H 227.821 -6.77544 -2.05767 0
M  V30 2390 H 228.229 -5.08095 -2.45967 0
M  V30 2391 N 227.627 0.131896 -1.57047 0
M  V30 2392 C 228.875 0.840269 -1.83804 0
M  V30 2393 C 229.196 1.81017 -0.72512 0
M  V30 2394 O 228.466 1.94272 0.251995 0
M  V30 2395 H 227.046 0.313294 -0.678127 0
M  V30 2396 H 229.708 0.122294 -1.94516 0
M  V30 2397 H 228.804 1.39335 -2.79271 0
M  V30 2398 N 229.106 1.52395 0.401703 0
M  V30 2399 C 230.331 1.70972 1.17403 0
M  V30 2400 C 230.756 0.421615 1.83314 0
M  V30 2401 O 230.114 -0.621564 1.70312 0
M  V30 2402 C 230.162 2.85151 2.20728 0
M  V30 2403 O 229.266 2.51238 3.27037 0
M  V30 2404 H 228.607 0.568927 0.342372 0
M  V30 2405 H 231.137 1.99131 0.469891 0
M  V30 2406 H 231.147 3.10279 2.64936 0
M  V30 2407 H 229.822 3.78603 1.7214 0
M  V30 2408 H 228.399 2.36808 2.88057 0
M  V30 2409 N 230.584 -0.659388 1.43143 0
M  V30 2410 C 231.514 -1.78422 1.50625 0
M  V30 2411 C 232.495 -1.66216 0.361443 0
M  V30 2412 O 233.68 -1.85404 0.577834 0
M  V30 2413 C 230.81 -3.16815 1.42287 0
M  V30 2414 C 229.764 -3.43777 2.54954 0
M  V30 2415 C 229.09 -4.81905 2.31671 0
M  V30 2416 C 230.39 -3.39134 3.97222 0
M  V30 2417 H 232.084 -1.72417 2.44771 0
M  V30 2418 H 229.63 -0.828084 1.17808 0
M  V30 2419 H 231.583 -3.95253 1.46127 0
M  V30 2420 H 230.307 -3.23534 0.446435 0
M  V30 2421 H 228.966 -2.67707 2.50457 0
M  V30 2422 H 228.614 -4.85294 1.32284 0
M  V30 2423 H 228.314 -5.00906 3.07192 0
M  V30 2424 H 229.838 -5.62609 2.37284 0
M  V30 2425 H 231.252 -4.07518 4.03239 0
M  V30 2426 H 229.649 -3.69671 4.72719 0
M  V30 2427 H 230.719 -2.37426 4.22797 0
M  V30 2428 N 232.062 -1.29571 -0.897171 0
M  V30 2429 C 232.992 -1.17473 -2.01798 0
M  V30 2430 C 233.973 -0.068323 -1.69963 0
M  V30 2431 O 235.158 -0.248239 -1.92607 0
M  V30 2432 C 232.288 -0.853099 -3.36659 0
M  V30 2433 C 231.242 -1.9161 -3.82713 0
M  V30 2434 C 230.568 -1.44773 -5.14728 0
M  V30 2435 C 231.868 -3.32535 -4.02763 0
M  V30 2436 H 233.562 -2.11237 -2.12177 0
M  V30 2437 H 231.108 -1.01699 -1.01948 0
M  V30 2438 H 233.061 -0.755165 -4.14578 0
M  V30 2439 H 231.785 0.120236 -3.26379 0
M  V30 2440 H 230.444 -2.00346 -3.07013 0
M  V30 2441 H 230.092 -0.462995 -5.00865 0
M  V30 2442 H 229.792 -2.15865 -5.46513 0
M  V30 2443 H 231.316 -1.36334 -5.95185 0
M  V30 2444 H 232.73 -3.26626 -4.71156 0
M  V30 2445 H 231.127 -4.01607 -4.45905 0
M  V30 2446 H 232.197 -3.75326 -3.07016 0
M  V30 2447 N 233.54 1.10788 -1.12088 0
M  V30 2448 C 234.47 2.19083 -0.807755 0
M  V30 2449 C 235.451 1.6858 0.226859 0
M  V30 2450 O 236.636 1.93997 0.0888475 0
M  V30 2451 C 233.766 3.46344 -0.257576 0
M  V30 2452 C 232.72 4.101 -1.22483 0
M  V30 2453 C 232.046 5.32016 -0.535052 0
M  V30 2454 C 233.346 4.54236 -2.57811 0
M  V30 2455 H 235.04 2.45534 -1.71328 0
M  V30 2456 H 232.586 1.1801 -0.825205 0
M  V30 2457 H 234.539 4.21392 -0.0262679 0
M  V30 2458 H 233.263 3.19373 0.683278 0
M  V30 2459 H 231.922 3.37054 -1.44189 0
M  V30 2460 H 231.57 5.01319 0.410827 0
M  V30 2461 H 231.27 5.75625 -1.18024 0
M  V30 2462 H 232.794 6.09799 -0.312695 0
M  V30 2463 H 234.208 5.20575 -2.40155 0
M  V30 2464 H 232.605 5.08682 -3.18375 0
M  V30 2465 H 233.675 3.6734 -3.16528 0
M  V30 2466 N 235.018 0.912232 1.28515 0
M  V30 2467 C 235.981 0.404223 2.25607 0
M  V30 2468 C 236.981 -0.468602 1.53821 0
M  V30 2469 O 238.171 -0.271873 1.72065 0
M  V30 2470 C 235.303 -0.420653 3.38295 0
M  V30 2471 H 236.496 1.26188 2.7206 0
M  V30 2472 H 234.049 0.691495 1.40171 0
M  V30 2473 H 234.784 -1.29777 2.97201 0
M  V30 2474 H 234.569 0.204935 3.91564 0
M  V30 2475 H 236.059 -0.766971 4.10496 0
M  V30 2476 N 236.496 -1.42363 0.676048 0
M  V30 2477 C 237.459 -2.29199 0.00766941 0
M  V30 2478 C 238.459 -1.43389 -0.727745 0
M  V30 2479 O 239.649 -1.64764 -0.56556 0
M  V30 2480 C 236.781 -3.2591 -0.999785 0
M  V30 2481 H 237.974 -2.89794 0.771988 0
M  V30 2482 H 235.527 -1.50024 0.438468 0
M  V30 2483 H 236.262 -2.70256 -1.79255 0
M  V30 2484 H 236.047 -3.89202 -0.475829 0
M  V30 2485 H 237.537 -3.91028 -1.46583 0
M  V30 2486 N 237.974 -0.419461 -1.51915 0
M  V30 2487 C 239.222 0.152637 -2.01523 0
M  V30 2488 C 239.543 1.44762 -1.30649 0
M  V30 2489 O 238.813 1.90997 -0.435535 0
M  V30 2490 H 237.393 0.0593966 -0.744635 0
M  V30 2491 H 240.055 -0.558073 -1.86739 0
M  V30 2492 H 239.151 0.341369 -3.10227 0
M  V30 2493 N 239.452 1.56882 -0.150215 0
M  V30 2494 C 240.68 2.00593 0.506948 0
M  V30 2495 C 241.095 1.03033 1.58208 0
M  V30 2496 O 240.452 0.0278396 1.82479 0
M  V30 2497 C 240.503 3.44209 1.10465 0
M  V30 2498 O 240.224 4.3804 0.0724636 0
M  V30 2499 C 241.725 4.03214 1.84211 0
M  V30 2500 H 238.945 0.65795 0.13169 0
M  V30 2501 H 241.489 2.03018 -0.245743 0
M  V30 2502 H 239.644 3.42625 1.80795 0
M  V30 2503 H 240.058 5.22007 0.510793 0
M  V30 2504 H 241.532 5.0569 2.21318 0
M  V30 2505 H 242.009 3.44107 2.72923 0
M  V30 2506 H 242.615 4.08437 1.18572 0
M  V30 2507 N 240.93 -0.123565 1.57115 0
M  V30 2508 C 242.341 -0.681198 1.73829 0
M  V30 2509 C 242.692 -1.80535 0.768214 0
M  V30 2510 O 241.817 -2.16317 -0.0599103 0
M  V30 2511 C 242.412 -1.24246 3.15196 0
M  V30 2512 C 240.971 -1.74643 3.33432 0
M  V30 2513 C 240.118 -0.644284 2.69711 0
M  V30 2514 H 243.069 0.102315 1.5837 0
M  V30 2515 H 243.09 -2.11216 3.16493 0
M  V30 2516 H 242.602 -0.424062 3.85776 0
M  V30 2517 H 240.703 -2.58974 2.67886 0
M  V30 2518 H 240.816 -1.85902 4.41562 0
M  V30 2519 H 239.18 -1.07676 2.3082 0
M  V30 2520 H 239.963 0.163058 3.42913 0
M  V30 2521 N 242.408 -1.52605 -0.393616 0
M  V30 2522 C 243.656 -1.67093 -1.13685 0
M  V30 2523 C 243.977 -0.411011 -1.90619 0
M  V30 2524 O 243.247 0.574491 -1.87287 0
M  V30 2525 H 241.827 -0.615923 -0.422668 0
M  V30 2526 H 244.489 -1.89704 -0.447039 0
M  V30 2527 H 243.585 -2.51922 -1.84232 0
M  V30 2528 N 243.887 0.651787 -1.4349 0
M  V30 2529 C 244.82 1.77668 -1.43211 0
M  V30 2530 C 245.798 1.59931 -0.29338 0
M  V30 2531 O 246.982 1.82095 -0.487191 0
M  V30 2532 C 244.109 3.14986 -1.24505 0
M  V30 2533 C 243.155 3.51421 -2.41673 0
M  V30 2534 S 243.988 3.51234 -4.04222 0
M  V30 2535 C 245.144 4.91206 -3.87902 0
M  V30 2536 H 245.377 1.77635 -2.38397 0
M  V30 2537 H 242.91 0.824558 -1.30539 0
M  V30 2538 H 244.868 3.94237 -1.144 0
M  V30 2539 H 243.529 3.1258 -0.308651 0
M  V30 2540 H 242.722 4.51291 -2.24393 0
M  V30 2541 H 242.324 2.79585 -2.48411 0
M  V30 2542 H 244.616 5.79902 -3.50315 0
M  V30 2543 H 245.559 5.13537 -4.8753 0
M  V30 2544 H 245.967 4.64808 -3.20334 0
M  V30 2545 N 245.365 1.30045 0.890287 0
M  V30 2546 C 246.781 1.08261 1.17268 0
M  V30 2547 C 246.981 -0.160063 2.00863 0
M  V30 2548 O 246.037 -0.855181 2.37577 0
M  V30 2549 C 247.35 2.34323 1.8845 0
M  V30 2550 C 248.898 2.39735 2.01237 0
M  V30 2551 C 249.373 3.65625 2.7583 0
M  V30 2552 N 250.864 3.66402 2.83379 0
M  V30 2553 C 251.599 4.60498 3.41657 0
M  V30 2554 N 251.095 5.64933 4.01026 0
M  V30 2555 N 252.888 4.48051 3.39421 0
M  V30 2556 H 245.039 2.09777 0.332762 0
M  V30 2557 H 247.302 0.92446 0.209948 0
M  V30 2558 H 247.008 3.2498 1.34465 0
M  V30 2559 H 246.882 2.4256 2.88867 0
M  V30 2560 H 249.269 1.4956 2.54393 0
M  V30 2561 H 249.35 2.35476 0.999232 0
M  V30 2562 H 248.994 4.56156 2.23347 0
M  V30 2563 H 248.924 3.67144 3.77509 0
M  V30 2564 H 251.415 2.90896 2.41222 0
M  V30 2565 H 251.728 6.32841 4.43545 0
M  V30 2566 H 250.073 5.68732 3.99461 0
M  V30 2567 H 253.264 3.65649 2.92264 0
M  V30 2568 H 253.437 5.21565 3.84544 0
M  V30 2569 N 246.843 -1.10192 1.12674 0
M  V30 2570 C 247.793 -2.14754 0.765801 0
M  V30 2571 C 248.777 -1.59154 -0.236409 0
M  V30 2572 O 249.969 -1.76951 -0.0415261 0
M  V30 2573 C 247.098 -3.42563 0.224827 0
M  V30 2574 C 246.184 -4.05091 1.25548 0
M  V30 2575 N 246.575 -4.42287 2.4539 0
M  V30 2576 C 244.873 -4.32186 1.10142 0
M  V30 2577 C 245.574 -4.91441 3.11224 0
M  V30 2578 N 244.55 -4.88405 2.38666 0
M  V30 2579 H 248.352 -2.41309 1.67772 0
M  V30 2580 H 245.866 -1.27339 1.00789 0
M  V30 2581 H 247.863 -4.16868 -0.0519578 0
M  V30 2582 H 246.523 -3.17467 -0.681515 0
M  V30 2583 H 247.534 -4.33902 2.82754 0
M  V30 2584 H 244.211 -4.16735 0.252587 0
M  V30 2585 H 245.601 -5.29749 4.13298 0
M  V30 2586 N 248.321 -0.919034 -1.28029 0
M  V30 2587 C 249.546 -0.570357 -1.99403 0
M  V30 2588 C 249.971 0.842486 -1.68178 0
M  V30 2589 O 249.329 1.56391 -0.917141 0
M  V30 2590 C 249.377 -0.792541 -3.51783 0
M  V30 2591 O 248.481 0.145988 -4.12142 0
M  V30 2592 H 247.822 -0.220555 -0.6263 0
M  V30 2593 H 250.352 -1.23592 -1.63053 0
M  V30 2594 H 250.362 -0.704708 -4.01868 0
M  V30 2595 H 249.037 -1.82247 -3.73844 0
M  V30 2596 H 247.614 0.00897528 -3.72899 0
M  V30 2597 N 249.799 1.42003 -0.683588 0
M  V30 2598 C 250.729 2.33487 -0.024866 0
M  V30 2599 C 251.71 1.51163 0.779975 0
M  V30 2600 O 252.895 1.79739 0.735362 0
M  V30 2601 C 250.025 3.3487 0.920836 0
M  V30 2602 C 248.979 4.27414 0.223958 0
M  V30 2603 C 248.305 5.19074 1.2832 0
M  V30 2604 C 249.605 5.14445 -0.90242 0
M  V30 2605 H 251.299 2.88819 -0.788921 0
M  V30 2606 H 248.845 1.38873 -0.38083 0
M  V30 2607 H 250.798 3.97787 1.39081 0
M  V30 2608 H 249.522 2.77861 1.71642 0
M  V30 2609 H 248.181 3.65904 -0.225864 0
M  V30 2610 H 247.829 4.58387 2.071 0
M  V30 2611 H 247.529 5.81822 0.821995 0
M  V30 2612 H 249.053 5.84867 1.75392 0
M  V30 2613 H 250.467 5.70998 -0.513272 0
M  V30 2614 H 248.864 5.86072 -1.28997 0
M  V30 2615 H 249.934 4.52322 -1.74737 0
M  V30 2616 N 251.277 0.427512 1.51691 0
M  V30 2617 C 252.688 -0.0378867 1.86662 0
M  V30 2618 C 253.039 -1.42819 1.34525 0
M  V30 2619 O 252.164 -2.05037 0.692014 0
M  V30 2620 C 252.759 -0.0755266 3.38716 0
M  V30 2621 C 251.318 -0.485309 3.73258 0
M  V30 2622 C 250.465 0.328399 2.75349 0
M  V30 2623 H 253.416 0.64379 1.45055 0
M  V30 2624 H 253.437 -0.887056 3.70016 0
M  V30 2625 H 252.949 0.936487 3.76632 0
M  V30 2626 H 251.05 -1.50329 3.40928 0
M  V30 2627 H 251.163 -0.21693 4.78609 0
M  V30 2628 H 249.527 -0.211905 2.53817 0
M  V30 2629 H 250.31 1.3391 3.16106 0
M  V30 2630 N 252.755 -1.56801 0.158532 0
M  V30 2631 C 253.703 -2.18638 -0.793729 0
M  V30 2632 C 254.697 -1.14669 -1.24689 0
M  V30 2633 O 255.903 -1.32895 -1.21403 0
M  V30 2634 H 252.278 -0.700226 -0.274204 0
M  V30 2635 H 254.249 -2.97367 -0.248095 0
M  V30 2636 C 252.998 -2.83139 -2.0181 0
M  V30 2637 H 252.321 -3.62863 -1.67841 0
M  V30 2638 H 253.761 -3.29894 -2.66357 0
M  V30 2639 C 252.22 -1.82244 -2.83353 0
M  V30 2640 O 252.75 -1.3 -3.80083 0
M  V30 2641 N 250.956 -1.51288 -2.48114 0
M  V30 2642 H 250.503 -1.93964 -1.69516 0
M  V30 2643 H 250.461 -0.840296 -3.02963 0
M  V30 2644 N 254.233 0.115231 -1.57178 0
M  V30 2645 C 255.458 0.840354 -1.89612 0
M  V30 2646 C 255.883 1.72464 -0.750845 0
M  V30 2647 O 255.241 1.78826 0.298478 0
M  V30 2648 C 255.289 1.64654 -3.20814 0
M  V30 2649 O 254.393 2.7538 -3.06985 0
M  V30 2650 H 253.734 0.232158 -0.622092 0
M  V30 2651 H 256.264 0.0964977 -2.04372 0
M  V30 2652 H 256.274 2.03499 -3.53627 0
M  V30 2653 H 254.949 0.997416 -4.03763 0
M  V30 2654 H 253.526 2.3971 -2.85646 0
M  V30 2655 N 255.711 1.52812 0.385517 0
M  V30 2656 C 257.127 1.4214 0.725829 0
M  V30 2657 C 257.327 0.544589 1.94001 0
M  V30 2658 O 256.383 0.0193693 2.52493 0
M  V30 2659 C 257.696 2.85042 0.957668 0
M  V30 2660 C 259.244 2.94543 1.05892 0
M  V30 2661 C 259.719 4.38464 1.32337 0
M  V30 2662 N 261.21 4.41804 1.39151 0
M  V30 2663 C 261.945 5.5025 1.61285 0
M  V30 2664 N 261.441 6.68775 1.80866 0
M  V30 2665 N 263.234 5.37798 1.63492 0
M  V30 2666 H 255.385 2.08338 -0.413383 0
M  V30 2667 H 257.648 0.940016 -0.122775 0
M  V30 2668 H 257.354 3.51431 0.137568 0
M  V30 2669 H 257.228 3.27505 1.87137 0
M  V30 2670 H 259.615 2.28321 1.86959 0
M  V30 2671 H 259.696 2.55504 0.123057 0
M  V30 2672 H 259.34 5.05254 0.517793 0
M  V30 2673 H 259.27 4.75059 2.27214 0
M  V30 2674 H 261.761 3.56377 1.25713 0
M  V30 2675 H 262.074 7.47197 1.97271 0
M  V30 2676 H 260.419 6.71797 1.78083 0
M  V30 2677 H 263.61 4.44171 1.47749 0
M  V30 2678 H 263.783 6.22382 1.80402 0
M  V30 2679 N 257.189 -0.644168 1.43834 0
M  V30 2680 C 258.438 -1.39985 1.45214 0
M  V30 2681 C 258.751 -1.95421 0.0835494 0
M  V30 2682 O 259.957 -2.71488 -0.0251748 0
M  V30 2683 C 258.413 -2.53384 2.55587 0
M  V30 2684 C 258.021 -2.04517 3.98594 0
M  V30 2685 C 259.765 -3.30685 2.66172 0
M  V30 2686 C 257.672 -3.1518 5.00416 0
M  V30 2687 H 256.602 -0.526005 0.540218 0
M  V30 2688 H 259.253 -0.694367 1.69855 0
M  V30 2689 H 257.635 -3.26446 2.24163 0
M  V30 2690 H 258.809 -1.38405 4.39523 0
M  V30 2691 H 257.124 -1.40068 3.92135 0
M  V30 2692 H 259.721 -4.13158 3.39418 0
M  V30 2693 H 260.064 -3.79312 1.71546 0
M  V30 2694 H 260.597 -2.64708 2.96942 0
M  V30 2695 H 257.336 -2.71511 5.96625 0
M  V30 2696 H 256.856 -3.79974 4.64091 0
M  V30 2697 H 258.535 -3.80166 5.23529 0
M  V30 2698 N 258.668 -1.30515 -0.883378 0
M  V30 2699 C 259.601 -1.11359 -1.99184 0
M  V30 2700 C 260.579 -0.0207858 -1.62587 0
M  V30 2701 O 261.763 -0.174646 -1.87689 0
M  V30 2702 C 258.89 -0.69871 -3.31415 0
M  V30 2703 C 257.936 -1.79261 -3.86998 0
M  V30 2704 S 258.769 -3.39536 -4.14096 0
M  V30 2705 C 259.925 -2.99954 -5.49344 0
M  V30 2706 H 260.158 -2.052 -2.15128 0
M  V30 2707 H 257.691 -1.14847 -1.03196 0
M  V30 2708 H 259.649 -0.466075 -4.07846 0
M  V30 2709 H 258.31 0.220368 -3.13326 0
M  V30 2710 H 257.503 -1.45464 -4.82552 0
M  V30 2711 H 257.105 -1.97961 -3.17313 0
M  V30 2712 H 259.397 -2.48013 -6.30473 0
M  V30 2713 H 260.34 -3.9442 -5.8808 0
M  V30 2714 H 260.748 -2.37775 -5.1198 0
M  V30 2715 N 260.146 1.09593 -1.13257 0
M  V30 2716 C 261.395 1.81105 -0.887917 0
M  V30 2717 C 261.708 1.86563 0.587672 0
M  V30 2718 O 262.914 2.54367 0.949204 0
M  V30 2719 C 261.37 3.25338 -1.53895 0
M  V30 2720 C 260.978 3.28151 -3.04994 0
M  V30 2721 C 262.722 4.01617 -1.37492 0
M  V30 2722 C 260.629 4.66897 -3.6299 0
M  V30 2723 H 259.559 0.678661 -0.328534 0
M  V30 2724 H 262.21 1.23183 -1.36008 0
M  V30 2725 H 260.592 3.8331 -0.994446 0
M  V30 2726 H 261.766 2.79953 -3.66009 0
M  V30 2727 H 260.081 2.65361 -3.20893 0
M  V30 2728 H 262.678 5.04119 -1.78235 0
M  V30 2729 H 263.021 4.15072 -0.31957 0
M  V30 2730 H 263.554 3.50082 -1.88912 0
M  V30 2731 H 260.293 4.58643 -4.68323 0
M  V30 2732 H 259.813 5.15426 -3.06752 0
M  V30 2733 H 261.492 5.3587 -3.62563 0
M  V30 2734 N 261.624 0.925811 1.2754 0
M  V30 2735 C 262.574 0.394488 2.24561 0
M  V30 2736 C 263.558 -0.500183 1.52928 0
M  V30 2737 O 264.75 -0.337936 1.73744 0
M  V30 2738 C 261.879 -0.353328 3.41477 0
M  V30 2739 C 260.965 0.557752 4.20416 0
M  V30 2740 N 261.356 1.67674 4.77199 0
M  V30 2741 C 259.654 0.360404 4.44541 0
M  V30 2742 C 260.355 2.24324 5.36706 0
M  V30 2743 N 259.331 1.53305 5.21535 0
M  V30 2744 H 263.133 1.2489 2.66045 0
M  V30 2745 H 260.647 0.779864 1.4245 0
M  V30 2746 H 262.644 -0.7509 4.10082 0
M  V30 2747 H 261.304 -1.20469 3.01525 0
M  V30 2748 H 262.315 2.05915 4.75204 0
M  V30 2749 H 258.992 -0.450454 4.15063 0
M  V30 2750 H 260.382 3.18521 5.91603 0
M  V30 2751 N 263.102 -1.41638 0.69111 0
M  V30 2752 C 264.034 -2.29194 -0.0161523 0
M  V30 2753 C 265.047 -1.44549 -0.748955 0
M  V30 2754 O 266.236 -1.681 -0.6004 0
M  V30 2755 C 263.336 -3.22325 -1.0469 0
M  V30 2756 C 262.509 -4.35706 -0.384621 0
M  V30 2757 C 261.568 -5.09443 -1.31737 0
M  V30 2758 O 260.594 -5.63386 -0.811451 0
M  V30 2759 N 261.796 -5.16487 -2.64993 0
M  V30 2760 H 264.561 -2.90534 0.735523 0
M  V30 2761 H 262.122 -1.52742 0.53679 0
M  V30 2762 H 264.114 -3.68522 -1.67252 0
M  V30 2763 H 262.684 -2.62323 -1.70015 0
M  V30 2764 H 261.904 -3.91948 0.420804 0
M  V30 2765 H 263.192 -5.08743 0.0760765 0
M  V30 2766 H 262.59 -4.741 -3.08619 0
M  V30 2767 H 261.147 -5.66276 -3.22761 0
M  V30 2768 N 264.58 -0.43555 -1.51462 0
M  V30 2769 C 265.991 0.0279871 -1.86679 0
M  V30 2770 C 266.342 1.42104 -1.35281 0
M  V30 2771 O 265.467 2.04667 -0.702878 0
M  V30 2772 C 266.062 0.0575626 -3.38751 0
M  V30 2773 C 264.621 0.465507 -3.7351 0
M  V30 2774 C 263.768 -0.342996 -2.75171 0
M  V30 2775 H 266.719 -0.651473 -1.44712 0
M  V30 2776 H 266.74 0.867421 -3.70481 0
M  V30 2777 H 266.252 -0.956448 -3.7613 0
M  V30 2778 H 264.353 1.48519 -3.41721 0
M  V30 2779 H 264.466 0.191546 -4.78717 0
M  V30 2780 H 262.83 0.198442 -2.53926 0
M  V30 2781 H 263.613 -1.35585 -3.15391 0
M  V30 2782 N 266.058 1.56714 -0.166846 0
M  V30 2783 C 267.283 2.01557 0.488833 0
M  V30 2784 C 267.708 1.0463 1.56314 0
M  V30 2785 O 267.066 0.0251304 1.81283 0
M  V30 2786 C 267.114 3.4503 1.04818 0
M  V30 2787 O 266.218 3.51163 2.16236 0
M  V30 2788 H 265.559 0.653516 0.117526 0
M  V30 2789 H 268.089 2.02818 -0.269421 0
M  V30 2790 H 268.099 3.84243 1.37191 0
M  V30 2791 H 266.774 4.15077 0.261572 0
M  V30 2792 H 265.351 3.23807 1.84942 0
M  V30 2793 N 267.536 -0.106894 1.57237 0
M  V30 2794 C 268.784 -0.810921 1.85117 0
M  V30 2795 C 269.105 -1.7984 0.753827 0
M  V30 2796 O 268.375 -1.94649 -0.221056 0
M  V30 2797 H 266.955 -0.302466 0.683025 0
M  V30 2798 H 269.617 -0.0913324 1.94686 0
M  V30 2799 H 268.713 -1.34875 2.81452 0
M  V30 2800 N 269.014 -1.53014 -0.377408 0
M  V30 2801 C 270.262 -1.6829 -1.11906 0
M  V30 2802 C 270.583 -0.431206 -1.90173 0
M  V30 2803 O 269.853 0.554595 -1.87886 0
M  V30 2804 H 268.433 -0.620371 -0.416112 0
M  V30 2805 H 271.095 -1.90167 -0.426893 0
M  V30 2806 H 270.191 -2.53862 -1.8155 0
M  V30 2807 N 270.492 0.636531 -1.44174 0
M  V30 2808 C 271.455 1.73063 -1.50273 0
M  V30 2809 C 272.455 1.56113 -0.385397 0
M  V30 2810 O 273.645 1.61707 -0.64781 0
M  V30 2811 C 270.777 3.12096 -1.37145 0
M  V30 2812 H 271.97 1.69031 -2.47727 0
M  V30 2813 H 269.523 0.849706 -1.31186 0
M  V30 2814 H 270.258 3.21728 -0.407636 0
M  V30 2815 H 270.043 3.25805 -2.18159 0
M  V30 2816 H 271.533 3.91846 -1.44382 0
M  V30 2817 N 271.97 1.30982 0.876444 0
M  V30 2818 C 273.386 1.09498 1.16113 0
M  V30 2819 C 273.586 -0.13875 2.01022 0
M  V30 2820 O 272.642 -0.829935 2.38471 0
M  V30 2821 C 273.955 2.36308 1.85954 0
M  V30 2822 C 275.503 2.41856 1.98683 0
M  V30 2823 C 275.978 3.6853 2.71937 0
M  V30 2824 N 277.469 3.69387 2.79477 0
M  V30 2825 C 278.204 4.64096 3.36753 0
M  V30 2826 N 277.7 5.69155 3.95012 0
M  V30 2827 N 279.493 4.51626 3.3465 0
M  V30 2828 H 271.644 2.10118 0.310494 0
M  V30 2829 H 273.907 0.926634 0.200131 0
M  V30 2830 H 273.613 3.26388 1.31011 0
M  V30 2831 H 273.487 2.4561 2.86278 0
M  V30 2832 H 275.874 1.52249 2.52793 0
M  V30 2833 H 275.955 2.36523 0.9742 0
M  V30 2834 H 275.599 4.58499 2.18496 0
M  V30 2835 H 275.529 3.71127 3.73593 0
M  V30 2836 H 278.02 2.93438 2.38123 0
M  V30 2837 H 278.333 6.3751 4.36808 0
M  V30 2838 H 276.678 5.72937 3.93406 0
M  V30 2839 H 279.869 3.68728 2.8837 0
M  V30 2840 H 280.042 5.25614 3.7899 0
M  V30 2841 N 273.449 -1.08991 1.13837 0
M  V30 2842 C 274.697 -1.80899 0.901098 0
M  V30 2843 C 275.018 -1.86356 -0.574134 0
M  V30 2844 O 274.288 -1.35235 -1.41733 0
M  V30 2845 H 272.868 -0.669966 0.330386 0
M  V30 2846 H 275.53 -1.318 1.43578 0
M  V30 2847 H 274.626 -2.83929 1.29578 0
M  V30 2848 N 274.927 -0.932562 -1.27047 0
M  V30 2849 C 275.859 -0.392734 -2.2581 0
M  V30 2850 C 276.872 0.479241 -1.55586 0
M  V30 2851 O 278.061 0.291078 -1.76111 0
M  V30 2852 C 275.161 0.455456 -3.35826 0
M  V30 2853 C 274.334 -0.398355 -4.35582 0
M  V30 2854 C 273.393 0.387985 -5.24768 0
M  V30 2855 O 272.419 -0.206003 -5.68827 0
M  V30 2856 N 273.621 1.68664 -5.55457 0
M  V30 2857 H 276.386 -1.24173 -2.72766 0
M  V30 2858 H 273.947 -0.800511 -1.40725 0
M  V30 2859 H 275.939 0.988692 -3.92437 0
M  V30 2860 H 274.509 1.20522 -2.88432 0
M  V30 2861 H 273.729 -1.11286 -3.78165 0
M  V30 2862 H 275.017 -0.981889 -4.99236 0
M  V30 2863 H 274.415 2.19147 -5.21528 0
M  V30 2864 H 272.972 2.1663 -6.14748 0
M  V30 2865 N 276.405 1.4127 -0.698611 0
M  V30 2866 C 277.368 2.29158 -0.044132 0
M  V30 2867 C 278.368 1.44529 0.704841 0
M  V30 2868 O 279.558 1.65643 0.539276 0
M  V30 2869 C 276.69 3.27459 0.947809 0
M  V30 2870 H 277.883 2.88529 -0.817994 0
M  V30 2871 H 275.436 1.49307 -0.46228 0
M  V30 2872 H 276.171 2.73073 1.74933 0
M  V30 2873 H 275.956 3.8991 0.41385 0
M  V30 2874 H 277.446 3.93311 1.40344 0
M  V30 2875 N 277.883 0.443576 1.51229 0
M  V30 2876 C 279.111 -0.11929 2.06556 0
M  V30 2877 C 279.526 -1.35921 1.31038 0
M  V30 2878 O 278.883 -1.78675 0.371704 0
M  V30 2879 C 278.934 -0.435228 3.5887 0
M  V30 2880 O 278.655 0.755486 4.31537 0
M  V30 2881 C 280.156 -1.04808 4.30732 0
M  V30 2882 H 277.376 -0.0051584 0.67098 0
M  V30 2883 H 279.92 0.624453 1.94733 0
M  V30 2884 H 278.075 -1.12887 3.70588 0
M  V30 2885 H 278.489 0.483491 5.22267 0
M  V30 2886 H 279.963 -1.2191 5.3837 0
M  V30 2887 H 280.44 -2.03081 3.89429 0
M  V30 2888 H 281.046 -0.393637 4.23474 0
M  V30 2889 N 279.361 -1.56624 0.175154 0
M  V30 2890 C 280.638 -1.88688 -0.515373 0
M  V30 2891 C 281.018 -1.08564 -1.81044 0
M  V30 2892 O 280.366 -0.180703 -2.27784 0
M  V30 2893 C 280.576 -3.40768 -0.753552 0
M  V30 2894 C 281.924 -4.10587 -1.08184 0
M  V30 2895 O 282.948 -3.46106 -0.841961 0
M  V30 2896 O 281.807 -5.24512 -1.53459 0
M  V30 2897 H 278.901 -0.78301 -0.26613 0
M  V30 2898 H 281.447 -1.68347 0.213877 0
M  V30 2899 H 280.219 -3.90965 0.161829 0
M  V30 2900 H 279.842 -3.66733 -1.53598 0
M  V30 2901 N 280.839 0.0985539 -1.57292 0
M  V30 2902 C 282.088 0.801358 -1.85098 0
M  V30 2903 C 282.401 1.80066 -0.763902 0
M  V30 2904 O 283.607 2.55112 -0.928981 0
M  V30 2905 C 282.063 1.47599 -3.28242 0
M  V30 2906 C 281.671 0.516624 -4.45011 0
M  V30 2907 C 283.415 2.16272 -3.65276 0
M  V30 2908 C 281.322 1.19564 -5.79188 0
M  V30 2909 H 280.252 0.303022 -0.69043 0
M  V30 2910 H 282.903 0.0542623 -1.8342 0
M  V30 2911 H 281.285 2.27042 -3.2445 0
M  V30 2912 H 282.459 -0.246065 -4.60143 0
M  V30 2913 H 280.774 -0.064227 -4.1635 0
M  V30 2914 H 283.371 2.67802 -4.62803 0
M  V30 2915 H 283.714 2.95009 -2.93727 0
M  V30 2916 H 284.247 1.43693 -3.70941 0
M  V30 2917 H 280.986 0.449157 -6.53959 0
M  V30 2918 H 280.506 1.92984 -5.67906 0
M  V30 2919 H 282.185 1.7231 -6.23633 0
M  V30 2920 N 282.317 1.53212 0.369288 0
M  V30 2921 C 283.28 1.7872 1.43498 0
M  V30 2922 C 284.28 0.657554 1.46741 0
M  V30 2923 O 285.47 0.925736 1.47566 0
M  V30 2924 C 282.602 1.90591 2.82645 0
M  V30 2925 H 283.795 2.73894 1.22156 0
M  V30 2926 H 281.348 1.44233 0.602203 0
M  V30 2927 H 282.083 0.974709 3.09306 0
M  V30 2928 H 281.868 2.72751 2.8169 0
M  V30 2929 H 283.358 2.11931 3.59826 0
M  V30 2930 N 283.795 -0.628877 1.44509 0
M  V30 2931 C 285.044 -1.38437 1.4669 0
M  V30 2932 C 285.357 -1.95322 0.104272 0
M  V30 2933 O 286.563 -2.715 0.00362163 0
M  V30 2934 C 285.019 -2.50659 2.5826 0
M  V30 2935 C 284.627 -2.00277 4.0074 0
M  V30 2936 C 286.371 -3.27844 2.69664 0
M  V30 2937 C 284.278 -3.09854 5.0373 0
M  V30 2938 H 283.208 -0.520245 0.545766 0
M  V30 2939 H 285.859 -0.676313 1.70582 0
M  V30 2940 H 284.241 -3.2405 2.27612 0
M  V30 2941 H 285.415 -1.33736 4.40966 0
M  V30 2942 H 283.73 -1.35901 3.93599 0
M  V30 2943 H 286.327 -4.09534 3.43781 0
M  V30 2944 H 286.67 -3.77471 1.75559 0
M  V30 2945 H 287.203 -2.61543 2.99733 0
M  V30 2946 H 283.942 -2.65168 5.99472 0
M  V30 2947 H 283.462 -3.7503 4.68095 0
M  V30 2948 H 285.141 -3.74592 5.27532 0
M  V30 2949 N 285.273 -1.31445 -0.869486 0
M  V30 2950 C 286.205 -1.14955 -1.98287 0
M  V30 2951 C 287.218 -0.0885037 -1.62559 0
M  V30 2952 O 288.407 -0.336044 -1.75308 0
M  V30 2953 C 285.507 -0.734255 -3.3085 0
M  V30 2954 C 284.68 -1.88042 -3.94917 0
M  V30 2955 C 283.739 -1.4511 -5.05796 0
M  V30 2956 O 282.765 -2.16082 -5.2659 0
M  V30 2957 N 283.967 -0.338763 -5.79511 0
M  V30 2958 H 286.732 -2.10856 -2.12979 0
M  V30 2959 H 284.293 -1.23786 -1.04349 0
M  V30 2960 H 286.285 -0.42975 -4.02412 0
M  V30 2961 H 284.855 0.133158 -3.12316 0
M  V30 2962 H 284.075 -2.35222 -3.1633 0
M  V30 2963 H 285.363 -2.6481 -4.34457 0
M  V30 2964 H 284.761 0.252274 -5.65137 0
M  V30 2965 H 283.318 -0.0937925 -6.51733 0
M  V30 2966 N 286.751 1.08385 -1.14413 0
M  V30 2967 C 287.714 2.13486 -0.834048 0
M  V30 2968 C 288.714 1.59988 0.161418 0
M  V30 2969 O 289.904 1.74071 -0.0669575 0
M  V30 2970 C 287.036 3.4003 -0.243354 0
M  V30 2971 H 288.229 2.42425 -1.7655 0
M  V30 2972 H 285.782 1.24101 -0.950189 0
M  V30 2973 H 286.517 3.16726 0.696807 0
M  V30 2974 H 286.302 3.80157 -0.960367 0
M  V30 2975 H 287.792 4.17577 -0.0436242 0
M  V30 2976 N 288.23 0.939286 1.26551 0
M  V30 2977 C 289.14 0.453432 2.30176 0
M  V30 2978 C 290.156 -0.471649 1.67486 0
M  V30 2979 O 291.332 -0.35164 1.98306 0
M  V30 2980 C 288.397 -0.275326 3.45605 0
M  V30 2981 C 287.458 0.686084 4.23782 0
M  V30 2982 C 286.691 -0.00798994 5.33699 0
M  V30 2983 O 286.914 -1.22528 5.57085 0
M  V30 2984 O 285.848 0.669746 5.98162 0
M  V30 2985 H 289.674 1.31416 2.73795 0
M  V30 2986 H 287.259 0.705095 1.31715 0
M  V30 2987 H 289.141 -0.685911 4.1578 0
M  V30 2988 H 287.816 -1.11147 3.0402 0
M  V30 2989 H 286.723 1.14658 3.56096 0
M  V30 2990 H 288.056 1.48979 4.69112 0
M  V30 2991 N 289.708 -1.40897 0.706093 0
M  V30 2992 C 290.618 -2.3455 0.0482286 0
M  V30 2993 C 291.634 -1.56796 -0.754396 0
M  V30 2994 O 292.81 -1.89228 -0.689538 0
M  V30 2995 C 289.875 -3.35625 -0.869303 0
M  V30 2996 C 288.936 -4.29261 -0.0576994 0
M  V30 2997 C 288.169 -5.25508 -0.931531 0
M  V30 2998 O 288.392 -5.27472 -2.17092 0
M  V30 2999 O 287.326 -6.00727 -0.375587 0
M  V30 3000 H 291.152 -2.92407 0.820476 0
M  V30 3001 H 288.737 -1.4193 0.4665 0
M  V30 3002 H 290.619 -3.97635 -1.39514 0
M  V30 3003 H 289.294 -2.80196 -1.62086 0
M  V30 3004 H 288.201 -3.70566 0.512988 0
M  V30 3005 H 289.534 -4.87817 0.655426 0
M  V30 3006 N 291.186 -0.45159 -1.50991 0
M  V30 3007 C 292.435 0.111653 -2.01391 0
M  V30 3008 C 292.748 1.42529 -1.33959 0
M  V30 3009 O 293.954 2.07232 -1.75405 0
M  V30 3010 C 292.41 0.249514 -3.59034 0
M  V30 3011 C 292.018 -1.05453 -4.35412 0
M  V30 3012 C 293.762 0.765762 -4.17536 0
M  V30 3013 C 291.669 -0.881529 -5.84793 0
M  V30 3014 H 290.599 0.0455022 -0.752626 0
M  V30 3015 H 293.25 -0.583524 -1.73975 0
M  V30 3016 H 291.632 1.00803 -3.82955 0
M  V30 3017 H 292.806 -1.82248 -4.23229 0
M  V30 3018 H 291.121 -1.50039 -3.88429 0
M  V30 3019 H 293.718 0.911913 -5.26866 0
M  V30 3020 H 294.061 1.75201 -3.77638 0
M  V30 3021 H 294.594 0.0651744 -3.97747 0
M  V30 3022 H 291.333 -1.84057 -6.29129 0
M  V30 3023 H 290.853 -0.153625 -5.99603 0
M  V30 3024 H 292.532 -0.540363 -6.4474 0
M  V30 3025 N 292.664 1.56529 -0.183458 0
M  V30 3026 C 293.597 2.14417 0.781052 0
M  V30 3027 C 294.575 1.07761 1.21763 0
M  V30 3028 O 295.759 1.35807 1.30724 0
M  V30 3029 C 292.886 2.69361 2.05335 0
M  V30 3030 C 291.932 3.885 1.75982 0
M  V30 3031 S 292.765 5.27568 0.918256 0
M  V30 3032 C 293.921 5.85926 2.20095 0
M  V30 3033 H 294.154 2.95893 0.2889 0
M  V30 3034 H 291.687 1.54368 0.0313844 0
M  V30 3035 H 293.645 3.01662 2.78406 0
M  V30 3036 H 292.306 1.87949 2.51663 0
M  V30 3037 H 291.499 4.25314 2.70415 0
M  V30 3038 H 291.101 3.57149 1.10999 0
M  V30 3039 H 293.393 5.99579 3.15453 0
M  V30 3040 H 294.336 6.82761 1.87731 0
M  V30 3041 H 294.744 5.14438 2.32409 0
M  V30 3042 N 294.142 -0.090211 1.57342 0
M  V30 3043 C 295.089 -1.10909 2.02405 0
M  V30 3044 C 296.059 -1.39523 0.901252 0
M  V30 3045 O 297.244 -1.50903 1.1676 0
M  V30 3046 C 294.384 -2.42277 2.45755 0
M  V30 3047 C 293.497 -2.20352 3.71576 0
M  V30 3048 C 292.632 -3.45154 4.03785 0
M  V30 3049 C 291.671 -3.18512 5.22701 0
M  V30 3050 N 290.808 -4.35593 5.50639 0
M  V30 3051 H 295.648 -0.71782 2.89225 0
M  V30 3052 H 293.185 -0.342901 1.43048 0
M  V30 3053 H 295.143 -3.18951 2.68935 0
M  V30 3054 H 293.773 -2.79242 1.61938 0
M  V30 3055 H 292.825 -1.34458 3.55844 0
M  V30 3056 H 294.137 -1.96661 4.58395 0
M  V30 3057 H 293.291 -4.30233 4.27767 0
M  V30 3058 H 292.03 -3.71904 3.15498 0
M  V30 3059 H 291.035 -2.31827 4.98534 0
M  V30 3060 H 292.26 -2.93103 6.12591 0
M  V30 3061 H 290.206 -4.6241 4.6531 0
M  V30 3062 H 290.123 -4.1511 6.31838 0
M  V30 3063 H 291.391 -5.21723 5.7916 0
M  V30 3064 N 295.62 -1.53406 -0.361157 0
M  V30 3065 C 296.55 -1.83136 -1.44857 0
M  V30 3066 C 297.531 -0.685174 -1.5569 0
M  V30 3067 O 298.716 -0.93544 -1.70186 0
M  V30 3068 C 295.846 -2.02522 -2.82138 0
M  V30 3069 C 294.8 -3.18302 -2.86126 0
M  V30 3070 C 294.126 -3.22989 -4.26125 0
M  V30 3071 C 295.426 -4.56796 -2.53248 0
M  V30 3072 H 297.12 -2.74201 -1.20226 0
M  V30 3073 H 294.666 -1.31938 -0.576922 0
M  V30 3074 H 296.619 -2.21904 -3.58241 0
M  V30 3075 H 295.343 -1.08172 -3.08166 0
M  V30 3076 H 294.002 -2.98747 -2.12475 0
M  V30 3077 H 293.65 -2.26267 -4.49235 0
M  V30 3078 H 293.35 -4.00781 -4.29708 0
M  V30 3079 H 294.874 -3.44559 -5.04094 0
M  V30 3080 H 296.288 -4.7631 -3.19064 0
M  V30 3081 H 294.685 -5.36862 -2.68141 0
M  V30 3082 H 295.755 -4.61606 -1.48484 0
M  V30 3083 N 297.098 0.621204 -1.44841 0
M  V30 3084 C 298.045 1.73267 -1.5247 0
M  V30 3085 C 299.015 1.6189 -0.371611 0
M  V30 3086 O 300.2 1.81668 -0.58321 0
M  V30 3087 C 297.34 3.11545 -1.48438 0
M  V30 3088 C 296.453 3.33827 -2.74196 0
M  V30 3089 C 295.588 4.62133 -2.61929 0
M  V30 3090 C 294.627 4.77627 -3.82804 0
M  V30 3091 N 293.764 5.97219 -3.69153 0
M  V30 3092 H 298.604 1.66082 -2.47428 0
M  V30 3093 H 296.141 0.810026 -1.22788 0
M  V30 3094 H 298.099 3.91528 -1.4409 0
M  V30 3095 H 296.729 3.1772 -0.570402 0
M  V30 3096 H 295.781 2.47715 -2.88689 0
M  V30 3097 H 297.093 3.41153 -3.6389 0
M  V30 3098 H 296.247 5.50291 -2.5547 0
M  V30 3099 H 294.986 4.57182 -1.69811 0
M  V30 3100 H 293.991 3.87896 -3.89637 0
M  V30 3101 H 295.216 4.84385 -4.75971 0
M  V30 3102 H 293.162 5.93339 -2.79794 0
M  V30 3103 H 293.079 6.05644 -4.52472 0
M  V30 3104 H 294.347 6.87912 -3.66603 0
M  V30 3105 N 298.576 1.31904 0.862503 0
M  V30 3106 C 299.523 1.20182 1.9704 0
M  V30 3107 C 300.493 0.0858247 1.65878 0
M  V30 3108 O 301.678 0.26 1.8902 0
M  V30 3109 C 298.818 0.922797 3.32533 0
M  V30 3110 C 297.931 2.12284 3.76244 0
M  V30 3111 C 297.066 1.77996 5.00491 0
M  V30 3112 C 296.105 2.94366 5.36671 0
M  V30 3113 N 295.242 2.60223 6.52095 0
M  V30 3114 H 300.082 2.14951 2.06398 0
M  V30 3115 H 297.619 1.06917 1.01031 0
M  V30 3116 H 299.577 0.741548 4.10557 0
M  V30 3117 H 298.207 0.0119227 3.22798 0
M  V30 3118 H 297.259 2.41461 2.9394 0
M  V30 3119 H 298.571 2.99357 3.98982 0
M  V30 3120 H 297.725 1.56377 5.862 0
M  V30 3121 H 296.464 0.881252 4.79672 0
M  V30 3122 H 295.469 3.16625 4.49476 0
M  V30 3123 H 296.694 3.84957 5.59451 0
M  V30 3124 H 294.64 1.72884 6.32809 0
M  V30 3125 H 294.557 3.40827 6.74814 0
M  V30 3126 H 295.825 2.42016 7.40978 0
M  V30 3127 N 300.054 -1.07777 1.14986 0
M  V30 3128 C 300.986 -2.14769 0.800436 0
M  V30 3129 C 301.999 -1.61739 -0.185595 0
M  V30 3130 O 303.188 -1.78462 0.0370358 0
M  V30 3131 C 300.288 -3.38481 0.168533 0
M  V30 3132 C 299.461 -4.20876 1.1909 0
M  V30 3133 C 298.52 -5.22976 0.581575 0
M  V30 3134 O 297.546 -5.55388 1.24633 0
M  V30 3135 N 298.748 -5.76976 -0.638706 0
M  V30 3136 H 301.513 -2.45348 1.72118 0
M  V30 3137 H 299.074 -1.23645 1.04515 0
M  V30 3138 H 301.066 -4.03916 -0.251764 0
M  V30 3139 H 299.636 -3.05651 -0.655467 0
M  V30 3140 H 298.856 -3.51322 1.78791 0
M  V30 3141 H 300.144 -4.7274 1.88133 0
M  V30 3142 H 299.542 -5.52886 -1.19723 0
M  V30 3143 H 298.099 -6.44061 -1.00142 0
M  V30 3144 N 301.532 -0.945985 -1.26051 0
M  V30 3145 C 302.462 -0.477172 -2.28572 0
M  V30 3146 C 303.443 0.472032 -1.63419 0
M  V30 3147 O 304.628 0.372853 -1.90587 0
M  V30 3148 C 301.758 0.253975 -3.4637 0
M  V30 3149 C 300.712 -0.609135 -4.23643 0
M  V30 3150 C 300.038 0.252252 -5.34105 0
M  V30 3151 C 301.338 -1.8829 -4.8718 0
M  V30 3152 H 303.032 -1.33402 -2.68038 0
M  V30 3153 H 300.578 -0.642904 -1.28852 0
M  V30 3154 H 302.531 0.593016 -4.17207 0
M  V30 3155 H 301.255 1.145 -3.05871 0
M  V30 3156 H 299.914 -0.931138 -3.54578 0
M  V30 3157 H 299.562 1.14278 -4.89846 0
M  V30 3158 H 299.262 -0.32188 -5.86718 0
M  V30 3159 H 300.786 0.586454 -6.07777 0
M  V30 3160 H 302.2 -1.61081 -5.50205 0
M  V30 3161 H 300.597 -2.40199 -5.49931 0
M  V30 3162 H 301.667 -2.59134 -4.09851 0
M  V30 3163 N 303.011 1.40521 -0.713556 0
M  V30 3164 C 304.241 2.0494 -0.261395 0
M  V30 3165 C 304.649 1.53861 1.10107 0
M  V30 3166 O 303.992 0.689321 1.70276 0
M  V30 3167 C 304.054 3.59138 -0.161227 0
M  V30 3168 C 303.718 4.33096 -1.45865 0
M  V30 3169 C 304.715 4.61182 -2.40016 0
M  V30 3170 C 302.4 4.72043 -1.71701 0
M  V30 3171 C 304.394 5.27196 -3.58251 0
M  V30 3172 C 302.081 5.37789 -2.90218 0
M  V30 3173 C 303.079 5.65295 -3.83315 0
M  V30 3174 O 302.767 6.29683 -4.99754 0
M  V30 3175 H 302.499 0.666041 -0.115608 0
M  V30 3176 H 305.053 1.80954 -0.971849 0
M  V30 3177 H 303.283 3.81936 0.605153 0
M  V30 3178 H 304.972 4.05091 0.256105 0
M  V30 3179 H 305.738 4.31559 -2.21318 0
M  V30 3180 H 301.617 4.50003 -1.00092 0
M  V30 3181 H 305.161 5.48582 -4.30934 0
M  V30 3182 H 301.058 5.66831 -3.08825 0
M  V30 3183 H 301.826 6.4818 -4.99805 0
M  V30 3184 N 304.489 0.459591 1.5075 0
M  V30 3185 C 305.437 -0.354678 2.2988 0
M  V30 3186 C 306.431 -1.00086 1.36672 0
M  V30 3187 O 307.637 -0.933277 1.53915 0
M  V30 3188 H 304.012 -0.13321 0.740107 0
M  V30 3189 H 305.983 0.333269 2.96533 0
M  V30 3190 C 304.732 -1.43073 3.169 0
M  V30 3191 H 304.055 -0.942882 3.88523 0
M  V30 3192 H 305.495 -1.97328 3.75284 0
M  V30 3193 C 303.954 -2.42633 2.33732 0
M  V30 3194 O 304.484 -3.47658 2.01238 0
M  V30 3195 N 302.69 -2.14066 1.9653 0
M  V30 3196 H 302.237 -1.28685 2.23155 0
M  V30 3197 H 302.195 -2.80917 1.41185 0
M  V30 3198 N 305.967 -1.56429 0.191757 0
M  V30 3199 C 307.216 -1.9666 -0.448088 0
M  V30 3200 C 307.529 -1.08136 -1.62991 0
M  V30 3201 O 308.735 -1.38135 -2.33733 0
M  V30 3202 C 307.191 -3.49753 -0.848585 0
M  V30 3203 C 306.799 -4.46935 0.308764 0
M  V30 3204 C 308.543 -3.9876 -1.4557 0
M  V30 3205 C 306.45 -5.91293 -0.112506 0
M  V30 3206 H 305.38 -0.734312 -0.171179 0
M  V30 3207 H 308.031 -1.81301 0.283242 0
M  V30 3208 H 306.413 -3.60604 -1.63649 0
M  V30 3209 H 307.587 -4.47813 1.08627 0
M  V30 3210 H 305.902 -4.08102 0.827158 0
M  V30 3211 H 308.499 -5.04086 -1.78328 0
M  V30 3212 H 308.842 -3.42875 -2.36099 0
M  V30 3213 H 309.375 -3.9101 -0.731836 0
M  V30 3214 H 306.114 -6.51097 0.758514 0
M  V30 3215 H 305.634 -5.93676 -0.854941 0
M  V30 3216 H 307.313 -6.44663 -0.549448 0
M  V30 3217 N 307.445 0.0818655 -1.57387 0
M  V30 3218 C 308.675 0.794954 -1.90694 0
M  V30 3219 C 309.083 1.72147 -0.784982 0
M  V30 3220 O 308.426 1.81974 0.251196 0
M  V30 3221 C 308.488 1.65042 -3.19376 0
M  V30 3222 C 308.152 0.894337 -4.48164 0
M  V30 3223 C 309.149 0.21813 -5.19442 0
M  V30 3224 C 306.834 0.864495 -4.94805 0
M  V30 3225 C 308.828 -0.477802 -6.35607 0
M  V30 3226 C 306.515 0.164785 -6.10878 0
M  V30 3227 C 307.513 -0.505173 -6.81129 0
M  V30 3228 O 307.201 -1.19363 -7.94989 0
M  V30 3229 H 306.933 0.231779 -0.635023 0
M  V30 3230 H 309.487 0.059493 -2.05314 0
M  V30 3231 H 307.717 2.42844 -3.00938 0
M  V30 3232 H 309.406 2.24127 -3.38411 0
M  V30 3233 H 310.172 0.232558 -4.84442 0
M  V30 3234 H 306.051 1.37542 -4.40004 0
M  V30 3235 H 309.595 -1.00129 -6.90377 0
M  V30 3236 H 305.492 0.148249 -6.4533 0
M  V30 3237 H 306.26 -1.10188 -8.11049 0
M  V30 3238 N 308.923 1.53595 0.353017 0
M  V30 3239 C 309.886 1.80232 1.41594 0
M  V30 3240 C 310.886 0.673081 1.46035 0
M  V30 3241 O 312.076 0.941335 1.46576 0
M  V30 3242 C 309.208 1.93578 2.80607 0
M  V30 3243 H 310.401 2.75174 1.19244 0
M  V30 3244 H 307.954 1.44864 0.586872 0
M  V30 3245 H 308.689 1.00746 3.08254 0
M  V30 3246 H 308.474 2.75724 2.78781 0
M  V30 3247 H 309.964 2.15735 3.57558 0
M  V30 3248 N 310.401 -0.613514 1.45168 0
M  V30 3249 C 311.348 -1.72456 1.53387 0
M  V30 3250 C 312.318 -1.6169 0.380191 0
M  V30 3251 O 313.503 -1.81356 0.592836 0
M  V30 3252 C 310.643 -3.10753 1.50088 0
M  V30 3253 C 309.756 -3.32368 2.75963 0
M  V30 3254 C 308.891 -4.60737 2.64376 0
M  V30 3255 C 307.93 -4.7559 3.85332 0
M  V30 3256 N 307.067 -5.95253 3.72315 0
M  V30 3257 H 311.907 -1.64768 2.48305 0
M  V30 3258 H 309.444 -0.803503 1.23216 0
M  V30 3259 H 311.402 -3.90758 1.46164 0
M  V30 3260 H 310.032 -3.17413 0.587243 0
M  V30 3261 H 309.084 -2.4618 2.89999 0
M  V30 3262 H 310.396 -3.39218 3.65695 0
M  V30 3263 H 309.55 -5.48928 2.58385 0
M  V30 3264 H 308.289 -4.56275 1.72233 0
M  V30 3265 H 307.294 -3.85824 3.91688 0
M  V30 3266 H 308.519 -4.81854 4.78533 0
M  V30 3267 H 306.465 -5.91847 2.82937 0
M  V30 3268 H 306.382 -6.03236 4.55677 0
M  V30 3269 H 307.65 -6.85958 3.70246 0
M  V30 3270 N 311.879 -1.3236 -0.855495 0
M  V30 3271 C 312.829 -1.17809 -1.95205 0
M  V30 3272 C 313.813 -0.0852319 -1.60674 0
M  V30 3273 O 315.005 -0.311651 -1.74235 0
M  V30 3274 C 312.134 -0.902437 -3.31226 0
M  V30 3275 C 311.22 -2.03695 -3.7198 0
M  V30 3276 N 311.611 -3.28544 -3.84568 0
M  V30 3277 C 309.909 -1.93993 -4.016 0
M  V30 3278 C 310.61 -4.02847 -4.19629 0
M  V30 3279 N 309.586 -3.31138 -4.31102 0
M  V30 3280 H 313.388 -2.12462 -2.0307 0
M  V30 3281 H 310.902 -1.24127 -1.0472 0
M  V30 3282 H 312.899 -0.77915 -4.09554 0
M  V30 3283 H 311.559 0.0357267 -3.2468 0
M  V30 3284 H 312.57 -3.6349 -3.68911 0
M  V30 3285 H 309.247 -1.07733 -4.03361 0
M  V30 3286 H 310.637 -5.10506 -4.36845 0
M  V30 3287 N 313.357 1.07166 -1.15556 0
M  V30 3288 C 314.585 1.83514 -0.955519 0
M  V30 3289 C 315 1.82163 0.49621 0
M  V30 3290 O 314.357 1.23441 1.34419 0
M  V30 3291 C 314.408 3.30515 -1.46432 0
M  V30 3292 O 314.129 3.31937 -2.85918 0
M  V30 3293 C 315.63 4.23625 -1.30603 0
M  V30 3294 H 312.85 0.578926 -0.339244 0
M  V30 3295 H 315.394 1.35265 -1.53374 0
M  V30 3296 H 313.549 3.76106 -0.928584 0
M  V30 3297 H 313.963 4.23794 -3.09029 0
M  V30 3298 H 315.437 5.24831 -1.71047 0
M  V30 3299 H 315.914 4.38485 -0.250441 0
M  V30 3300 H 316.52 3.83871 -1.83094 0
M  V30 3301 N 314.835 0.952656 1.25548 0
M  V30 3302 C 315.782 0.47008 2.25962 0
M  V30 3303 C 316.752 -0.476384 1.59122 0
M  V30 3304 O 317.937 -0.39007 1.8677 0
M  V30 3305 C 315.077 -0.247881 3.44209 0
M  V30 3306 C 314.19 0.735591 4.25691 0
M  V30 3307 C 313.325 -0.0047306 5.312 0
M  V30 3308 C 312.364 0.969805 6.04368 0
M  V30 3309 N 311.501 0.260486 7.01617 0
M  V30 3310 H 316.341 1.33126 2.66611 0
M  V30 3311 H 313.878 0.66765 1.31076 0
M  V30 3312 H 315.836 -0.680695 4.1161 0
M  V30 3313 H 314.466 -1.07312 3.0444 0
M  V30 3314 H 313.518 1.28689 3.57971 0
M  V30 3315 H 314.83 1.47934 4.76358 0
M  V30 3316 H 313.984 -0.496275 6.04667 0
M  V30 3317 H 312.723 -0.781282 4.81401 0
M  V30 3318 H 311.728 1.47237 5.29718 0
M  V30 3319 H 312.953 1.74655 6.56256 0
M  V30 3320 H 310.899 -0.497364 6.54112 0
M  V30 3321 H 310.816 0.943362 7.50091 0
M  V30 3322 H 312.084 -0.209587 7.79218 0
M  V30 3323 N 316.313 -1.40141 0.720998 0
M  V30 3324 C 317.245 -2.29177 0.0324669 0
M  V30 3325 C 318.258 -1.46105 -0.718126 0
M  V30 3326 O 319.447 -1.69335 -0.564608 0
M  V30 3327 C 316.547 -3.24473 -0.978292 0
M  V30 3328 C 315.72 -4.36423 -0.292115 0
M  V30 3329 C 314.779 -5.12122 -1.20901 0
M  V30 3330 O 313.805 -5.64981 -0.691766 0
M  V30 3331 N 315.007 -5.21992 -2.53978 0
M  V30 3332 H 317.772 -2.88909 0.796984 0
M  V30 3333 H 315.333 -1.51569 0.569068 0
M  V30 3334 H 317.325 -3.71987 -1.59398 0
M  V30 3335 H 315.895 -2.65871 -1.64413 0
M  V30 3336 H 315.115 -3.90967 0.503847 0
M  V30 3337 H 316.403 -5.08467 0.183971 0
M  V30 3338 H 315.801 -4.8054 -2.98493 0
M  V30 3339 H 314.358 -5.72995 -3.10677 0
M  V30 3340 N 317.792 -0.46758 -1.50504 0
M  V30 3341 C 319.017 0.0886943 -2.0721 0
M  V30 3342 C 319.442 1.33057 -1.32956 0
M  V30 3343 O 318.8 1.77354 -0.376197 0
M  V30 3344 C 318.848 0.359202 -3.58806 0
M  V30 3345 O 317.952 1.44034 -3.8643 0
M  V30 3346 H 317.293 -0.0114349 -0.663902 0
M  V30 3347 H 319.823 -0.657613 -1.93744 0
M  V30 3348 H 319.833 0.600742 -4.03553 0
M  V30 3349 H 318.508 -0.548311 -4.1227 0
M  V30 3350 H 317.085 1.18638 -3.53524 0
M  V30 3351 N 319.27 1.56325 -0.20005 0
M  V30 3352 C 320.2 2.22318 0.713916 0
M  V30 3353 C 321.181 1.18788 1.21752 0
M  V30 3354 O 322.366 1.47309 1.26545 0
M  V30 3355 C 319.496 2.88639 1.93144 0
M  V30 3356 C 318.45 3.98457 1.56255 0
M  V30 3357 C 317.776 4.51967 2.85709 0
M  V30 3358 C 319.076 5.16612 0.768747 0
M  V30 3359 H 320.77 2.98952 0.163755 0
M  V30 3360 H 318.316 1.43792 0.0773219 0
M  V30 3361 H 320.269 3.33491 2.57608 0
M  V30 3362 H 318.993 2.09419 2.50621 0
M  V30 3363 H 317.652 3.54305 0.941471 0
M  V30 3364 H 317.3 3.69503 3.41287 0
M  V30 3365 H 317 5.26071 2.6177 0
M  V30 3366 H 318.524 4.99523 3.51154 0
M  V30 3367 H 319.938 5.57977 1.3166 0
M  V30 3368 H 318.335 5.96812 0.627286 0
M  V30 3369 H 319.405 4.84358 -0.229168 0
M  V30 3370 N 320.748 -0.0735177 1.57428 0
M  V30 3371 C 321.68 -1.11423 2.00294 0
M  V30 3372 C 322.693 -1.35084 0.908637 0
M  V30 3373 O 323.882 -1.33355 1.18654 0
M  V30 3374 C 320.982 -2.46548 2.32523 0
M  V30 3375 C 320.155 -2.42867 3.63778 0
M  V30 3376 C 319.214 -3.60087 3.83697 0
M  V30 3377 O 318.24 -3.41595 4.55304 0
M  V30 3378 N 319.442 -4.80372 3.25919 0
M  V30 3379 H 322.207 -0.749206 2.90184 0
M  V30 3380 H 319.768 -0.262195 1.59763 0
M  V30 3381 H 321.76 -3.23607 2.43024 0
M  V30 3382 H 320.33 -2.75059 1.48531 0
M  V30 3383 H 319.55 -1.51206 3.64047 0
M  V30 3384 H 320.838 -2.37506 4.49965 0
M  V30 3385 H 320.236 -4.983 2.67795 0
M  V30 3386 H 318.793 -5.54948 3.41871 0
M  V30 3387 N 322.226 -1.5378 -0.344866 0
M  V30 3388 C 323.472 -1.71216 -1.08687 0
M  V30 3389 C 323.805 -0.473281 -1.88345 0
M  V30 3390 O 323.08 0.52968 -1.87149 0
M  V30 3391 C 323.363 -2.97486 -2.02914 0
M  V30 3392 C 323.216 -4.31579 -1.26727 0
M  V30 3393 C 324.535 -3.19422 -3.0275 0
M  V30 3394 H 321.654 -0.62301 -0.393735 0
M  V30 3395 H 324.296 -1.8645 -0.365563 0
M  V30 3396 H 322.446 -2.84629 -2.64421 0
M  V30 3397 H 324.118 -4.56284 -0.67845 0
M  V30 3398 H 322.361 -4.30049 -0.569273 0
M  V30 3399 H 323.032 -5.16106 -1.95803 0
M  V30 3400 H 325.508 -3.316 -2.51357 0
M  V30 3401 H 324.384 -4.09169 -3.65885 0
M  V30 3402 H 324.645 -2.35656 -3.74057 0
M  V30 3403 N 323.704 0.605807 -1.45491 0
M  V30 3404 C 324.953 1.36086 -1.48874 0
M  V30 3405 C 325.266 1.95131 -0.135333 0
M  V30 3406 O 326.472 2.7146 -0.0468144 0
M  V30 3407 C 324.928 2.46518 -2.62215 0
M  V30 3408 C 324.536 1.93877 -4.03876 0
M  V30 3409 C 326.28 3.23512 -2.74846 0
M  V30 3410 C 324.187 3.01801 -5.08596 0
M  V30 3411 H 323.117 0.511497 -0.553974 0
M  V30 3412 H 325.768 0.649089 -1.71636 0
M  V30 3413 H 324.15 3.20388 -2.32739 0
M  V30 3414 H 325.324 1.26704 -4.43038 0
M  V30 3415 H 323.639 1.29622 -3.95711 0
M  V30 3416 H 326.236 4.04013 -3.50253 0
M  V30 3417 H 326.579 3.74631 -1.81542 0
M  V30 3418 H 327.112 2.56742 -3.03856 0
M  V30 3419 H 323.851 2.55597 -6.03614 0
M  V30 3420 H 323.371 3.67535 -4.74002 0
M  V30 3421 H 325.05 3.66152 -5.33424 0
M  V30 3422 N 325.182 1.32811 0.848464 0
M  V30 3423 C 326.092 1.24278 1.98978 0
M  V30 3424 C 327.108 0.155176 1.73307 0
M  V30 3425 O 328.284 0.376999 1.9784 0
M  V30 3426 C 325.349 0.972444 3.32783 0
M  V30 3427 C 324.41 2.14911 3.71634 0
M  V30 3428 C 323.643 1.89157 4.99054 0
M  V30 3429 O 323.866 0.837165 5.64223 0
M  V30 3430 O 322.8 2.75433 5.35183 0
M  V30 3431 H 326.626 2.20238 2.09115 0
M  V30 3432 H 324.211 1.12762 0.980052 0
M  V30 3433 H 326.093 0.838432 4.12975 0
M  V30 3434 H 324.768 0.043051 3.23671 0
M  V30 3435 H 323.675 2.33862 2.91992 0
M  V30 3436 H 325.008 3.06151 3.85399 0
M  V30 3437 N 326.66 -1.06551 1.16123 0
M  V30 3438 C 327.885 -1.83544 0.965735 0
M  V30 3439 C 328.31 -1.81843 -0.481102 0
M  V30 3440 O 327.668 -1.21732 -1.34354 0
M  V30 3441 C 327.716 -3.28169 1.49457 0
M  V30 3442 O 326.82 -4.0643 0.699157 0
M  V30 3443 H 326.161 -0.568026 0.343864 0
M  V30 3444 H 328.691 -1.34362 1.54299 0
M  V30 3445 H 328.701 -3.78992 1.51092 0
M  V30 3446 H 327.376 -3.28722 2.54784 0
M  V30 3447 H 325.953 -3.65216 0.7531 0
M  V30 3448 N 328.138 -0.959301 -1.25041 0
M  V30 3449 C 329.101 -0.487677 -2.23952 0
M  V30 3450 C 330.101 0.41119 -1.55454 0
M  V30 3451 O 331.291 0.207825 -1.72956 0
M  V30 3452 C 328.423 0.294807 -3.39623 0
M  V30 3453 H 329.616 -1.36198 -2.67189 0
M  V30 3454 H 327.169 -0.743042 -1.37508 0
M  V30 3455 H 327.904 1.18658 -3.01813 0
M  V30 3456 H 327.689 -0.35012 -3.90534 0
M  V30 3457 H 329.179 0.614089 -4.1306 0
M  V30 3458 N 329.616 1.39756 -0.72842 0
M  V30 3459 C 330.549 2.28176 -0.0330172 0
M  V30 3460 C 331.527 1.44035 0.754501 0
M  V30 3461 O 332.711 1.73434 0.738445 0
M  V30 3462 C 329.838 3.24795 0.960504 0
M  V30 3463 C 328.884 4.25693 0.262264 0
M  V30 3464 S 329.717 5.25714 -1.01906 0
M  V30 3465 C 330.873 6.25894 -0.0279717 0
M  V30 3466 H 331.106 2.86807 -0.78287 0
M  V30 3467 H 328.639 1.45382 -0.519951 0
M  V30 3468 H 330.597 3.80983 1.52846 0
M  V30 3469 H 329.258 2.65196 1.68315 0
M  V30 3470 H 328.451 4.93699 1.01379 0
M  V30 3471 H 328.053 3.7327 -0.233482 0
M  V30 3472 H 330.345 6.72585 0.814621 0
M  V30 3473 H 331.288 7.04876 -0.67499 0
M  V30 3474 H 331.696 5.63466 0.341489 0
M  V30 3475 N 331.094 0.475555 1.50254 0
M  V30 3476 C 332.004 -0.321501 2.32387 0
M  V30 3477 C 333.02 -0.991755 1.42969 0
M  V30 3478 O 334.196 -0.978747 1.76018 0
M  V30 3479 C 331.261 -1.38667 3.17762 0
M  V30 3480 C 330.322 -0.732538 4.23004 0
M  V30 3481 C 329.555 -1.74695 5.04299 0
M  V30 3482 O 329.778 -2.97399 4.86734 0
M  V30 3483 O 328.712 -1.31631 5.8733 0
M  V30 3484 H 332.538 0.350071 3.01676 0
M  V30 3485 H 330.123 0.237321 1.47503 0
M  V30 3486 H 332.005 -2.00354 3.70724 0
M  V30 3487 H 330.68 -2.04163 2.51196 0
M  V30 3488 H 329.587 -0.0765902 3.74022 0
M  V30 3489 H 330.92 -0.120452 4.92053 0
M  V30 3490 N 332.573 -1.56217 0.208337 0
M  V30 3491 C 333.989 -1.58919 -0.14729 0
M  V30 3492 C 334.189 -1.22486 -1.59998 0
M  V30 3493 O 333.245 -0.953849 -2.3379 0
M  V30 3494 C 334.558 -3.00236 0.167048 0
M  V30 3495 C 336.106 -3.12813 0.108219 0
M  V30 3496 C 336.581 -4.56284 0.396049 0
M  V30 3497 N 338.072 -4.61912 0.345142 0
M  V30 3498 C 338.807 -5.70837 0.541523 0
M  V30 3499 N 338.303 -6.88178 0.798968 0
M  V30 3500 N 340.096 -5.60091 0.474867 0
M  V30 3501 H 332.247 -1.78177 1.15614 0
M  V30 3502 H 334.51 -0.827555 0.462446 0
M  V30 3503 H 334.216 -3.31499 1.1748 0
M  V30 3504 H 334.09 -3.7354 -0.524184 0
M  V30 3505 H 336.477 -2.81354 -0.890157 0
M  V30 3506 H 336.558 -2.41866 0.832729 0
M  V30 3507 H 336.202 -4.88458 1.3918 0
M  V30 3508 H 336.132 -5.25439 -0.349502 0
M  V30 3509 H 338.623 -3.77589 0.153316 0
M  V30 3510 H 338.936 -7.67095 0.93727 0
M  V30 3511 H 337.281 -6.89953 0.836013 0
M  V30 3512 H 340.472 -4.67297 0.274064 0
M  V30 3513 H 340.645 -6.44917 0.631326 0
M  V30 3514 N 334.051 0.0651679 -1.57465 0
M  V30 3515 C 335.328 0.79644 -1.78651 0
M  V30 3516 C 335.708 1.95454 -0.797566 0
M  V30 3517 O 335.056 2.27882 0.167946 0
M  V30 3518 C 335.266 1.26322 -3.25337 0
M  V30 3519 C 336.614 1.6939 -3.89348 0
M  V30 3520 O 337.638 1.35872 -3.29268 0
M  V30 3521 O 336.497 2.31471 -4.95059 0
M  V30 3522 H 333.591 0.382157 -0.733407 0
M  V30 3523 H 336.137 0.0447311 -1.69641 0
M  V30 3524 H 334.909 0.434859 -3.88876 0
M  V30 3525 H 334.532 2.07604 -3.39096 0
M  V30 3526 N 335.529 1.53961 0.336706 0
M  V30 3527 C 336.945 1.44378 0.680241 0
M  V30 3528 C 337.145 0.606034 1.9217 0
M  V30 3529 O 336.201 0.099688 2.52303 0
M  V30 3530 C 337.514 2.87945 0.8665 0
M  V30 3531 C 339.062 2.97763 0.964682 0
M  V30 3532 C 339.537 4.42453 1.18321 0
M  V30 3533 N 341.028 4.46008 1.25025 0
M  V30 3534 C 341.763 5.55102 1.43697 0
M  V30 3535 N 341.259 6.7419 1.59498 0
M  V30 3536 N 343.052 5.42727 1.463 0
M  V30 3537 H 335.203 2.06918 -0.479455 0
M  V30 3538 H 337.466 0.935634 -0.152619 0
M  V30 3539 H 337.172 3.51691 0.0256937 0
M  V30 3540 H 337.046 3.33293 1.76623 0
M  V30 3541 H 339.433 2.34153 1.796 0
M  V30 3542 H 339.514 2.55766 0.041708 0
M  V30 3543 H 339.158 5.06645 0.356788 0
M  V30 3544 H 339.088 4.82048 2.11985 0
M  V30 3545 H 341.579 3.60196 1.14312 0
M  V30 3546 H 341.892 7.53095 1.734 0
M  V30 3547 H 340.237 6.77123 1.56621 0
M  V30 3548 H 343.428 4.48647 1.33543 0
M  V30 3549 H 343.601 6.27806 1.6051 0
M  V30 3550 N 337.007 -0.598083 1.45811 0
M  V30 3551 C 338.237 -1.38121 1.53643 0
M  V30 3552 C 338.645 -1.88425 0.171081 0
M  V30 3553 O 337.988 -1.63409 -0.839237 0
M  V30 3554 C 338.05 -2.61432 2.46766 0
M  V30 3555 C 337.714 -2.32702 3.93318 0
M  V30 3556 C 338.711 -1.92479 4.82957 0
M  V30 3557 C 336.396 -2.45321 4.38318 0
M  V30 3558 C 338.39 -1.65248 6.15607 0
M  V30 3559 C 336.077 -2.17703 5.71007 0
M  V30 3560 C 337.075 -1.7773 6.5947 0
M  V30 3561 O 336.763 -1.50441 7.89698 0
M  V30 3562 H 336.495 -0.428863 0.522544 0
M  V30 3563 H 339.049 -0.73557 1.91777 0
M  V30 3564 H 337.279 -3.28749 2.0362 0
M  V30 3565 H 338.968 -3.23487 2.45175 0
M  V30 3566 H 339.734 -1.82258 4.49452 0
M  V30 3567 H 335.613 -2.75399 3.69697 0
M  V30 3568 H 339.157 -1.33973 6.84614 0
M  V30 3569 H 335.054 -2.27544 6.04065 0
M  V30 3570 H 335.822 -1.64415 8.01817 0
M  V30 3571 N 338.485 -1.33259 -0.841409 0
M  V30 3572 C 339.418 -1.1764 -1.95541 0
M  V30 3573 C 340.396 -0.072501 -1.62438 0
M  V30 3574 O 341.58 -0.23427 -1.87039 0
M  V30 3575 C 338.707 -0.803794 -3.29024 0
M  V30 3576 C 337.753 -1.91482 -3.81099 0
M  V30 3577 S 338.586 -3.52538 -4.03085 0
M  V30 3578 C 339.742 -3.17279 -5.39523 0
M  V30 3579 H 339.975 -2.11941 -2.08491 0
M  V30 3580 H 337.508 -1.18072 -0.9949 0
M  V30 3581 H 339.466 -0.595592 -4.06156 0
M  V30 3582 H 338.127 0.120574 -3.13868 0
M  V30 3583 H 337.32 -1.60742 -4.7768 0
M  V30 3584 H 336.922 -2.07956 -3.10854 0
M  V30 3585 H 339.214 -2.67946 -6.22263 0
M  V30 3586 H 340.157 -4.1293 -5.75234 0
M  V30 3587 H 340.565 -2.53943 -5.04156 0
M  V30 3588 N 339.963 1.05934 -1.16686 0
M  V30 3589 C 341.188 1.83029 -0.975455 0
M  V30 3590 C 341.613 1.82096 0.471452 0
M  V30 3591 O 340.971 1.22443 1.33706 0
M  V30 3592 C 341.019 3.27372 -1.51195 0
M  V30 3593 O 340.123 4.06054 -0.720701 0
M  V30 3594 H 339.464 0.566194 -0.346872 0
M  V30 3595 H 341.994 1.33541 -1.55009 0
M  V30 3596 H 342.004 3.78186 -1.53099 0
M  V30 3597 H 340.679 3.27366 -2.56523 0
M  V30 3598 H 339.256 3.64812 -0.772458 0
M  V30 3599 N 341.441 0.965919 1.2453 0
M  V30 3600 C 342.852 0.665929 1.7442 0
M  V30 3601 C 343.203 -0.818407 1.78316 0
M  V30 3602 O 342.328 -1.64037 1.41141 0
M  V30 3603 C 342.923 1.20211 3.16757 0
M  V30 3604 C 341.482 0.952059 3.6416 0
M  V30 3605 C 340.629 1.33848 2.42858 0
M  V30 3606 H 343.58 1.14144 1.10258 0
M  V30 3607 H 343.601 0.567544 3.76244 0
M  V30 3608 H 343.113 2.28244 3.13889 0
M  V30 3609 H 341.214 -0.112821 3.72429 0
M  V30 3610 H 341.327 1.59645 4.51719 0
M  V30 3611 H 339.691 0.756864 2.43195 0
M  V30 3612 H 340.474 2.42827 2.42673 0
M  V30 3613 N 342.919 -1.39368 0.735821 0
M  V30 3614 C 343.852 -2.28155 0.0451175 0
M  V30 3615 C 344.83 -1.44433 -0.746852 0
M  V30 3616 O 346.014 -1.73823 -0.729237 0
M  V30 3617 C 343.141 -3.253 -0.943266 0
M  V30 3618 C 342.187 -4.25826 -0.239685 0
M  V30 3619 S 343.02 -5.25166 1.04693 0
M  V30 3620 C 344.176 -6.2587 0.0611639 0
M  V30 3621 H 344.409 -2.86388 0.79807 0
M  V30 3622 H 341.942 -1.45104 0.527653 0
M  V30 3623 H 343.9 -3.81789 -1.50824 0
M  V30 3624 H 342.561 -2.66085 -1.66906 0
M  V30 3625 H 341.754 -4.94229 -0.987596 0
M  V30 3626 H 341.356 -3.73141 0.253274 0
M  V30 3627 H 343.648 -6.73007 -0.778941 0
M  V30 3628 H 344.591 -7.04508 0.712362 0
M  V30 3629 H 344.999 -5.63639 -0.311602 0
M  V30 3630 N 344.397 -0.483516 -1.5 0
M  V30 3631 C 345.307 0.309172 -2.32554 0
M  V30 3632 C 346.323 0.984159 -1.43493 0
M  V30 3633 O 347.499 0.969399 -1.76535 0
M  V30 3634 C 344.564 1.36979 -3.18493 0
M  V30 3635 C 343.625 0.710095 -4.23387 0
M  V30 3636 C 342.858 1.72018 -5.05218 0
M  V30 3637 O 343.081 2.94813 -4.88305 0
M  V30 3638 O 342.015 1.28515 -5.8802 0
M  V30 3639 H 345.841 -0.366064 -3.01486 0
M  V30 3640 H 343.426 -0.24514 -1.47375 0
M  V30 3641 H 345.308 1.98385 -3.71781 0
M  V30 3642 H 343.983 2.02828 -2.52275 0
M  V30 3643 H 342.89 0.0567539 -3.74057 0
M  V30 3644 H 344.223 0.0943557 -4.9211 0
M  V30 3645 N 345.875 1.56104 -0.216619 0
M  V30 3646 C 346.838 2.18819 0.681962 0
M  V30 3647 C 347.838 1.14866 1.12528 0
M  V30 3648 O 349.028 1.40128 1.03488 0
M  V30 3649 C 346.16 2.80756 1.93362 0
M  V30 3650 H 347.353 2.99595 0.135254 0
M  V30 3651 H 344.906 1.56265 0.0330003 0
M  V30 3652 H 345.641 2.03837 2.52232 0
M  V30 3653 H 345.426 3.56876 1.62426 0
M  V30 3654 H 346.916 3.28844 2.57393 0
M  V30 3655 N 347.353 -0.0568162 1.57498 0
M  V30 3656 C 348.285 -1.09292 2.01464 0
M  V30 3657 C 349.298 -1.34112 0.922913 0
M  V30 3658 O 350.487 -1.32089 1.20062 0
M  V30 3659 C 347.587 -2.44068 2.35125 0
M  V30 3660 C 346.76 -2.38995 3.66333 0
M  V30 3661 C 345.819 -3.55997 3.87495 0
M  V30 3662 O 344.845 -3.36746 4.58901 0
M  V30 3663 N 346.047 -4.76888 3.30996 0
M  V30 3664 H 348.812 -0.718386 2.90963 0
M  V30 3665 H 346.373 -0.245235 1.60032 0
M  V30 3666 H 348.365 -3.21011 2.46443 0
M  V30 3667 H 346.935 -2.73468 1.5144 0
M  V30 3668 H 346.155 -1.47336 3.65631 0
M  V30 3669 H 347.443 -2.3272 4.52458 0
M  V30 3670 H 346.841 -4.95431 2.73065 0
M  V30 3671 H 345.398 -5.51291 3.47738 0
M  V30 3672 N 348.832 -1.54138 -0.328536 0
M  V30 3673 C 349.742 -1.86192 -1.42723 0
M  V30 3674 C 350.758 -0.753382 -1.56844 0
M  V30 3675 O 351.934 -1.04718 -1.72035 0
M  V30 3676 C 348.999 -2.07824 -2.77507 0
M  V30 3677 C 348.06 -3.31641 -2.72603 0
M  V30 3678 C 347.293 -3.52232 -4.00959 0
M  V30 3679 O 347.516 -2.7636 -4.9898 0
M  V30 3680 O 346.45 -4.45699 -4.0452 0
M  V30 3681 H 350.276 -2.79608 -1.18547 0
M  V30 3682 H 347.861 -1.3998 -0.522104 0
M  V30 3683 H 349.743 -2.23411 -3.57303 0
M  V30 3684 H 348.418 -1.17596 -3.01584 0
M  V30 3685 H 347.325 -3.21444 -1.91376 0
M  V30 3686 H 348.658 -4.2191 -2.53481 0
M  V30 3687 N 350.31 0.590341 -1.46126 0
M  V30 3688 C 351.557 1.34882 -1.5104 0
M  V30 3689 C 351.885 1.93849 -0.159021 0
M  V30 3690 O 351.14 1.76544 0.844436 0
M  V30 3691 C 351.439 2.5032 -2.55097 0
M  V30 3692 C 351.105 2.09394 -3.99331 0
M  V30 3693 C 349.767 1.97947 -4.38601 0
M  V30 3694 C 352.119 1.77712 -4.89967 0
M  V30 3695 C 349.447 1.53065 -5.66381 0
M  V30 3696 C 351.799 1.34312 -6.18177 0
M  V30 3697 C 350.463 1.21436 -6.56361 0
M  V30 3698 H 349.733 0.493568 -0.552695 0
M  V30 3699 H 352.38 0.665539 -1.79563 0
M  V30 3700 H 350.685 3.24062 -2.20207 0
M  V30 3701 H 352.382 3.08541 -2.56132 0
M  V30 3702 H 348.972 2.19235 -3.68285 0
M  V30 3703 H 353.156 1.85445 -4.60352 0
M  V30 3704 H 348.412 1.41733 -5.94745 0
M  V30 3705 H 352.586 1.08849 -6.87841 0
M  V30 3706 H 350.213 0.864345 -7.5527 0
M  V30 3707 N 351.788 1.33704 0.83433 0
M  V30 3708 C 353.036 1.25169 1.58673 0
M  V30 3709 C 353.357 -0.18127 1.94156 0
M  V30 3710 O 352.627 -1.11113 1.6134 0
M  V30 3711 H 351.207 0.4603 0.58833 0
M  V30 3712 H 353.869 1.67478 0.996847 0
M  V30 3713 H 352.965 1.84856 2.51465 0
M  V30 3714 N 353.266 -1.05314 1.17247 0
M  V30 3715 C 354.515 -1.77685 0.954521 0
M  V30 3716 C 354.828 -1.88616 -0.518025 0
M  V30 3717 O 356.034 -2.57714 -0.854144 0
M  V30 3718 C 354.49 -3.19402 1.65863 0
M  V30 3719 C 354.098 -3.16605 3.16963 0
M  V30 3720 C 355.842 -3.96237 1.52303 0
M  V30 3721 C 353.749 -4.53103 3.80068 0
M  V30 3722 H 352.679 -0.666 0.353496 0
M  V30 3723 H 355.33 -1.1805 1.40486 0
M  V30 3724 H 353.712 -3.79355 1.13602 0
M  V30 3725 H 354.886 -2.66176 3.76148 0
M  V30 3726 H 353.201 -2.53268 3.30521 0
M  V30 3727 H 355.798 -4.97157 1.96822 0
M  V30 3728 H 356.141 -4.136 0.473401 0
M  V30 3729 H 356.674 -3.42829 2.01775 0
M  V30 3730 H 353.413 -4.40946 4.85023 0
M  V30 3731 H 352.933 -5.03686 3.2567 0
M  V30 3732 H 354.612 -5.22045 3.82202 0
M  V30 3733 N 354.744 -0.972509 -1.24016 0
M  V30 3734 C 355.674 -0.525548 -2.27509 0
M  V30 3735 C 356.655 0.437262 -1.64384 0
M  V30 3736 O 357.84 0.332343 -1.91335 0
M  V30 3737 C 354.97 0.180448 -3.46831 0
M  V30 3738 C 353.924 -0.698859 -4.22256 0
M  V30 3739 C 353.25 0.138903 -5.3452 0
M  V30 3740 C 354.55 -1.98582 -4.83076 0
M  V30 3741 H 356.244 -1.39058 -2.65148 0
M  V30 3742 H 353.79 -0.67009 -1.27459 0
M  V30 3743 H 355.743 0.504387 -4.18371 0
M  V30 3744 H 354.467 1.07987 -3.08231 0
M  V30 3745 H 353.126 -1.00614 -3.52523 0
M  V30 3746 H 352.774 1.03862 -4.9216 0
M  V30 3747 H 352.474 -0.446259 -5.85903 0
M  V30 3748 H 353.998 0.457404 -6.08884 0
M  V30 3749 H 355.412 -1.72715 -5.46665 0
M  V30 3750 H 353.809 -2.5181 -5.44713 0
M  V30 3751 H 354.879 -2.67769 -4.04262 0
M  V30 3752 N 356.222 1.38976 -0.743202 0
M  V30 3753 C 357.499 1.94351 -0.220705 0
M  V30 3754 C 357.879 1.67935 1.2791 0
M  V30 3755 O 357.227 1.01211 2.04862 0
M  V30 3756 C 357.437 3.44426 -0.563171 0
M  V30 3757 C 358.785 4.2144 -0.517046 0
M  V30 3758 O 359.809 3.52661 -0.500846 0
M  V30 3759 O 358.668 5.44032 -0.518806 0
M  V30 3760 H 355.762 0.825879 -0.043047 0
M  V30 3761 H 358.308 1.48429 -0.822618 0
M  V30 3762 H 357.08 3.5712 -1.59941 0
M  V30 3763 H 356.703 3.97543 0.0672883 0
M  V30 3764 N 357.7 0.491464 1.49741 0
M  V30 3765 C 358.647 -0.292027 2.28945 0
M  V30 3766 C 359.617 -0.968973 1.34908 0
M  V30 3767 O 360.802 -0.97748 1.6386 0
M  V30 3768 C 357.942 -1.35617 3.17336 0
M  V30 3769 C 357.055 -0.691957 4.26422 0
M  V30 3770 C 356.19 -1.73572 5.02042 0
M  V30 3771 C 355.229 -1.05286 6.02977 0
M  V30 3772 N 354.366 -2.0404 6.71798 0
M  V30 3773 H 359.206 0.389654 2.95442 0
M  V30 3774 H 356.743 0.204003 1.45679 0
M  V30 3775 H 358.701 -1.98502 3.66951 0
M  V30 3776 H 357.331 -2.00674 2.52844 0
M  V30 3777 H 356.383 0.0499523 3.80367 0
M  V30 3778 H 357.695 -0.153946 4.98562 0
M  V30 3779 H 356.849 -2.43987 5.55478 0
M  V30 3780 H 355.588 -2.30757 4.29654 0
M  V30 3781 H 354.593 -0.334446 5.48782 0
M  V30 3782 H 355.818 -0.487636 6.77347 0
M  V30 3783 H 353.764 -2.60205 6.02187 0
M  V30 3784 H 353.681 -1.55279 7.39881 0
M  V30 3785 H 354.949 -2.73772 7.29842 0
M  V30 3786 N 359.178 -1.55987 0.224894 0
M  V30 3787 C 360.424 -1.98684 -0.406502 0
M  V30 3788 C 360.757 -1.11248 -1.59177 0
M  V30 3789 O 360.032 -0.170909 -1.93748 0
M  V30 3790 C 360.315 -3.50218 -0.837808 0
M  V30 3791 C 360.168 -4.48426 0.351332 0
M  V30 3792 C 361.487 -4.06243 -1.69278 0
M  V30 3793 H 358.606 -0.722337 -0.146283 0
M  V30 3794 H 361.248 -1.87255 0.321799 0
M  V30 3795 H 359.398 -3.60089 -1.45837 0
M  V30 3796 H 361.07 -4.50562 0.989526 0
M  V30 3797 H 359.313 -4.22159 0.998207 0
M  V30 3798 H 359.984 -5.52 0.00655905 0
M  V30 3799 H 362.46 -3.99337 -1.16914 0
M  V30 3800 H 361.336 -5.12581 -1.96346 0
M  V30 3801 H 361.597 -3.53332 -2.65723 0
M  V30 3802 N 360.656 0.0484629 -1.57525 0
M  V30 3803 C 361.586 1.0549 -2.08313 0
M  V30 3804 C 362.567 1.38929 -0.981463 0
M  V30 3805 O 363.752 1.48151 -1.25558 0
M  V30 3806 C 360.882 2.36162 -2.54646 0
M  V30 3807 C 359.836 2.17016 -3.68901 0
M  V30 3808 C 359.162 3.53278 -4.01371 0
M  V30 3809 C 360.462 1.57219 -4.98076 0
M  V30 3810 H 362.156 0.632195 -2.92649 0
M  V30 3811 H 359.702 0.302654 -1.40784 0
M  V30 3812 H 361.655 3.06882 -2.88793 0
M  V30 3813 H 360.379 2.80456 -1.67368 0
M  V30 3814 H 359.038 1.48733 -3.35073 0
M  V30 3815 H 358.686 3.95185 -3.11188 0
M  V30 3816 H 358.386 3.41299 -4.78318 0
M  V30 3817 H 359.91 4.25391 -4.38035 0
M  V30 3818 H 361.324 2.17832 -5.30304 0
M  V30 3819 H 359.721 1.55871 -5.79503 0
M  V30 3820 H 360.791 0.535956 -4.81929 0
M  V30 3821 N 362.134 1.5431 0.320358 0
M  V30 3822 C 363.38 1.72924 1.05949 0
M  V30 3823 C 363.713 0.503185 1.87568 0
M  V30 3824 O 362.988 -0.499839 1.87968 0
M  V30 3825 C 363.271 3.00676 1.98156 0
M  V30 3826 C 363.124 4.3354 1.19845 0
M  V30 3827 C 364.443 3.24198 2.9763 0
M  V30 3828 H 361.562 0.629195 0.383774 0
M  V30 3829 H 364.204 1.87008 0.335854 0
M  V30 3830 H 362.354 2.888 2.59859 0
M  V30 3831 H 364.026 4.57305 0.605773 0
M  V30 3832 H 362.269 4.309 0.500784 0
M  V30 3833 H 362.94 5.19156 1.87567 0
M  V30 3834 H 365.416 3.35557 2.4605 0
M  V30 3835 H 364.292 4.14938 3.59329 0
M  V30 3836 H 364.553 2.41577 3.7026 0
M  V30 3837 N 363.613 -0.582584 1.46437 0
M  V30 3838 C 364.563 -1.68654 1.53426 0
M  V30 3839 C 365.547 -1.55971 0.395194 0
M  V30 3840 O 366.739 -1.64884 0.643612 0
M  V30 3841 C 363.868 -3.07439 1.52762 0
M  V30 3842 C 362.954 -3.25418 2.71963 0
M  V30 3843 N 363.345 -3.13556 3.96883 0
M  V30 3844 C 361.643 -3.56357 2.68189 0
M  V30 3845 C 362.344 -3.33543 4.76575 0
M  V30 3846 N 361.32 -3.58704 4.08451 0
M  V30 3847 H 365.122 -1.58014 2.47808 0
M  V30 3848 H 362.636 -0.786617 1.42078 0
M  V30 3849 H 364.633 -3.86671 1.55857 0
M  V30 3850 H 363.293 -3.1921 0.594573 0
M  V30 3851 H 364.304 -2.9142 4.28129 0
M  V30 3852 H 360.981 -3.74812 1.83908 0
M  V30 3853 H 362.371 -3.29555 5.85528 0
M  V30 3854 N 365.091 -1.34144 -0.827227 0
M  V30 3855 C 366.502 -1.23557 -1.39966 0
M  V30 3856 C 366.853 0.140731 -1.95695 0
M  V30 3857 O 365.978 1.04087 -1.89723 0
M  V30 3858 C 366.573 -2.23708 -2.54441 0
M  V30 3859 C 365.132 -2.16924 -3.07605 0
M  V30 3860 C 364.279 -2.10549 -1.80456 0
M  V30 3861 H 367.23 -1.45573 -0.631991 0
M  V30 3862 H 367.251 -1.85157 -3.32411 0
M  V30 3863 H 366.763 -3.23866 -2.13851 0
M  V30 3864 H 364.864 -1.20107 -3.52711 0
M  V30 3865 H 364.977 -3.07988 -3.66988 0
M  V30 3866 H 363.341 -1.56203 -2.01178 0
M  V30 3867 H 364.124 -3.12535 -1.42046 0
M  V30 3868 N 366.569 1.04691 -1.17803 0
M  V30 3869 C 367.98 1.59238 -0.974689 0
M  V30 3870 C 368.331 1.90306 0.477292 0
M  V30 3871 O 367.456 1.68846 1.35352 0
M  V30 3872 C 368.051 2.89318 -1.76296 0
M  V30 3873 C 366.61 3.40506 -1.60414 0
M  V30 3874 C 365.757 2.14172 -1.76141 0
M  V30 3875 H 368.708 0.874395 -1.32439 0
M  V30 3876 H 368.729 3.5944 -1.24833 0
M  V30 3877 H 368.241 2.66675 -2.81968 0
M  V30 3878 H 366.342 3.68175 -0.572519 0
M  V30 3879 H 366.455 4.14753 -2.39827 0
M  V30 3880 H 364.819 2.25176 -1.19028 0
M  V30 3881 H 365.602 1.93992 -2.83235 0
M  V30 3882 N 368.047 0.979072 1.23499 0
M  V30 3883 C 368.979 0.476271 2.24197 0
M  V30 3884 C 369.992 -0.421166 1.57258 0
M  V30 3885 O 371.181 -0.225515 1.7707 0
M  V30 3886 C 368.281 -0.330503 3.37285 0
M  V30 3887 C 367.454 0.559744 4.33804 0
M  V30 3888 C 366.513 -0.192954 5.25846 0
M  V30 3889 O 365.539 0.416978 5.67671 0
M  V30 3890 N 366.741 -1.47932 5.61334 0
M  V30 3891 H 369.506 1.34211 2.67969 0
M  V30 3892 H 367.067 0.852189 1.37657 0
M  V30 3893 H 369.059 -0.842361 3.95836 0
M  V30 3894 H 367.629 -1.09734 2.92707 0
M  V30 3895 H 366.849 1.25245 3.73775 0
M  V30 3896 H 368.137 1.1665 4.95248 0
M  V30 3897 H 367.535 -1.9964 5.29302 0
M  V30 3898 H 366.092 -1.93664 6.22364 0
M  V30 3899 N 369.525 -1.3858 0.750561 0
M  V30 3900 C 370.802 -1.94231 0.231009 0
M  V30 3901 C 371.182 -1.68611 -1.27018 0
M  V30 3902 O 370.53 -1.02296 -2.04323 0
M  V30 3903 C 370.74 -3.44123 0.581428 0
M  V30 3904 C 372.088 -4.2116 0.539389 0
M  V30 3905 O 373.112 -3.52391 0.519541 0
M  V30 3906 O 371.971 -5.43749 0.54765 0
M  V30 3907 H 369.065 -0.825639 0.0474263 0
M  V30 3908 H 371.611 -1.4799 0.830478 0
M  V30 3909 H 370.383 -3.56267 1.61833 0
M  V30 3910 H 370.006 -3.97573 -0.0462047 0
M  V30 3911 N 371.003 -0.499398 -1.49478 0
M  V30 3912 C 372.251 0.0455996 -2.02049 0
M  V30 3913 C 372.572 1.37633 -1.38138 0
M  V30 3914 O 371.842 1.8842 -0.536166 0
M  V30 3915 H 370.422 0.0198416 -0.746736 0
M  V30 3916 H 373.084 -0.656274 -1.83519 0
M  V30 3917 H 372.18 0.176445 -3.11601 0
M  V30 3918 N 372.481 1.55866 -0.233164 0
M  V30 3919 C 373.391 2.24431 0.683217 0
M  V30 3920 C 374.407 1.2558 1.2044 0
M  V30 3921 O 375.583 1.58422 1.24356 0
M  V30 3922 C 372.648 2.91979 1.86947 0
M  V30 3923 C 371.709 4.06204 1.38912 0
M  V30 3924 C 370.942 4.70522 2.51883 0
M  V30 3925 O 371.165 4.33865 3.70293 0
M  V30 3926 O 370.099 5.59296 2.22423 0
M  V30 3927 H 373.925 3.03426 0.129059 0
M  V30 3928 H 371.51 1.494 -0.0022283 0
M  V30 3929 H 373.392 3.34573 2.56201 0
M  V30 3930 H 372.067 2.15935 2.41151 0
M  V30 3931 H 370.974 3.68155 0.664259 0
M  V30 3932 H 372.307 4.84025 0.893328 0
M  V30 3933 N 373.959 -0.0401083 1.57549 0
M  V30 3934 C 375.236 -0.767917 1.79896 0
M  V30 3935 C 375.616 -1.9416 0.82856 0
M  V30 3936 O 374.964 -2.2812 -0.131671 0
M  V30 3937 C 375.174 -1.2113 3.27305 0
M  V30 3938 C 376.522 -1.63175 3.91994 0
M  V30 3939 O 377.546 -1.30616 3.31388 0
M  V30 3940 O 376.405 -2.23565 4.98679 0
M  V30 3941 H 373.499 -0.370441 0.739393 0
M  V30 3942 H 376.045 -0.017737 1.69691 0
M  V30 3943 H 374.817 -0.372937 3.89519 0
M  V30 3944 H 374.44 -2.02183 3.42356 0
M  V30 3945 N 375.437 -1.54477 -0.31217 0
M  V30 3946 C 376.347 -1.87695 -1.4074 0
M  V30 3947 C 377.363 -0.769975 -1.56036 0
M  V30 3948 O 378.539 -1.06537 -1.70915 0
M  V30 3949 C 375.604 -2.10755 -2.75287 0
M  V30 3950 C 374.665 -3.34514 -2.69071 0
M  V30 3951 C 373.898 -3.56465 -3.97201 0
M  V30 3952 O 374.121 -2.81637 -4.96021 0
M  V30 3953 O 373.055 -4.49964 -3.9977 0
M  V30 3954 H 376.881 -2.80849 -1.15574 0
M  V30 3955 H 374.466 -1.40526 -0.507228 0
M  V30 3956 H 376.348 -2.27188 -3.54913 0
M  V30 3957 H 375.023 -1.20788 -3.0032 0
M  V30 3958 H 373.93 -3.23456 -1.87955 0
M  V30 3959 H 375.263 -4.24575 -2.48992 0
M  V30 3960 N 376.915 0.57481 -1.46744 0
M  V30 3961 C 378.326 1.15695 -1.46532 0
M  V30 3962 C 378.677 1.95068 -0.210425 0
M  V30 3963 O 377.802 2.05241 0.685944 0
M  V30 3964 C 378.397 2.1048 -2.65487 0
M  V30 3965 C 376.956 2.64002 -2.68291 0
M  V30 3966 C 376.103 1.40026 -2.39349 0
M  V30 3967 H 379.054 0.362325 -1.54509 0
M  V30 3968 H 379.075 2.94074 -2.41455 0
M  V30 3969 H 378.587 1.52683 -3.56805 0
M  V30 3970 H 376.688 3.25646 -1.81067 0
M  V30 3971 H 376.801 3.06197 -3.68483 0
M  V30 3972 H 375.165 1.70106 -1.89568 0
M  V30 3973 H 375.948 0.840485 -3.32852 0
M  V30 3974 N 378.394 1.34581 0.820102 0
M  V30 3975 C 379.622 1.3018 1.60813 0
M  V30 3976 C 380.037 -0.123551 1.88395 0
M  V30 3977 O 379.394 -1.07148 1.47735 0
M  V30 3978 C 379.445 2.09312 2.94739 0
M  V30 3979 O 379.166 3.46288 2.68358 0
M  V30 3980 C 380.667 2.1234 3.89136 0
M  V30 3981 H 377.887 0.447726 0.499782 0
M  V30 3982 H 380.431 1.77237 1.02017 0
M  V30 3983 H 378.586 1.65889 3.50085 0
M  V30 3984 H 379 3.87227 3.53774 0
M  V30 3985 H 380.474 2.72126 4.80262 0
M  V30 3986 H 380.951 1.11854 4.24718 0
M  V30 3987 H 381.557 2.55864 3.39726 0
M  V30 3988 N 379.872 -1.04064 1.18357 0
M  V30 3989 C 380.802 -2.14001 0.934113 0
M  V30 3990 C 381.783 -1.69616 -0.128186 0
M  V30 3991 O 382.968 -1.94185 0.0244093 0
M  V30 3992 C 380.098 -3.44253 0.459066 0
M  V30 3993 C 379.052 -4.02261 1.46185 0
M  V30 3994 C 378.378 -5.27992 0.844322 0
M  V30 3995 C 379.678 -4.38432 2.83856 0
M  V30 3996 H 381.372 -2.35127 1.85352 0
M  V30 3997 H 378.918 -1.12998 0.892604 0
M  V30 3998 H 380.871 -4.20522 0.271907 0
M  V30 3999 H 379.595 -3.22813 -0.495912 0
M  V30 4000 H 378.254 -3.28074 1.63595 0
M  V30 4001 H 377.902 -5.02862 -0.117845 0
M  V30 4002 H 377.602 -5.67765 1.51384 0
M  V30 4003 H 379.126 -6.06938 0.667693 0
M  V30 4004 H 380.54 -5.05688 2.70098 0
M  V30 4005 H 378.937 -4.89254 3.47491 0
M  V30 4006 H 380.007 -3.4826 3.37406 0
M  V30 4007 N 381.35 -0.985608 -1.22978 0
M  V30 4008 C 382.596 -0.65836 -1.91816 0
M  V30 4009 C 382.929 0.806692 -1.76653 0
M  V30 4010 O 382.204 1.58252 -1.13078 0
M  V30 4011 C 382.487 -1.056 -3.44268 0
M  V30 4012 C 382.34 -2.57906 -3.68516 0
M  V30 4013 C 383.659 -0.603781 -4.35939 0
M  V30 4014 H 380.778 -0.24065 -0.696604 0
M  V30 4015 H 383.42 -1.22783 -1.44998 0
M  V30 4016 H 381.57 -0.571445 -3.84274 0
M  V30 4017 H 383.242 -3.13976 -3.3796 0
M  V30 4018 H 381.485 -3.00305 -3.13048 0
M  V30 4019 H 382.156 -2.80779 -4.75255 0
M  V30 4020 H 384.632 -1.01987 -4.03408 0
M  V30 4021 H 383.508 -0.910383 -5.41298 0
M  V30 4022 H 383.769 0.495761 -4.39312 0
M  V30 4023 N 382.828 1.3818 -0.7579 0
M  V30 4024 C 383.76 2.2901 -0.0932177 0
M  V30 4025 C 384.773 1.47958 0.679136 0
M  V30 4026 O 385.962 1.70773 0.519514 0
M  V30 4027 C 383.062 3.26953 0.89192 0
M  V30 4028 C 382.235 4.37045 0.176303 0
M  V30 4029 C 381.294 5.15148 1.07281 0
M  V30 4030 O 380.32 5.66616 0.541728 0
M  V30 4031 N 381.522 5.28542 2.40049 0
M  V30 4032 H 384.287 2.86694 -0.873303 0
M  V30 4033 H 381.848 1.50007 -0.609054 0
M  V30 4034 H 383.84 3.76083 1.49479 0
M  V30 4035 H 382.41 2.70136 1.57306 0
M  V30 4036 H 381.63 3.89493 -0.607328 0
M  V30 4037 H 382.918 5.07801 -0.318718 0
M  V30 4038 H 382.316 4.88285 2.85647 0
M  V30 4039 H 380.873 5.8103 2.95376 0
M  V30 4040 N 384.306 0.507319 1.49211 0
M  V30 4041 C 385.253 -0.267728 2.29242 0
M  V30 4042 C 386.223 -0.954609 1.35928 0
M  V30 4043 O 387.408 -0.960046 1.64887 0
M  V30 4044 C 384.548 -1.32243 3.18756 0
M  V30 4045 C 383.661 -0.64669 4.27132 0
M  V30 4046 C 382.796 -1.68238 5.03855 0
M  V30 4047 C 381.835 -0.98885 6.0406 0
M  V30 4048 N 380.972 -1.96903 6.73924 0
M  V30 4049 H 385.812 0.420968 2.95012 0
M  V30 4050 H 383.349 0.219443 1.45454 0
M  V30 4051 H 385.307 -1.94599 3.69036 0
M  V30 4052 H 383.937 -1.97981 2.54958 0
M  V30 4053 H 382.989 0.0902926 3.80293 0
M  V30 4054 H 384.301 -0.101058 4.98698 0
M  V30 4055 H 383.455 -2.38081 5.58034 0
M  V30 4056 H 382.194 -2.26187 4.32077 0
M  V30 4057 H 381.199 -0.276222 5.49106 0
M  V30 4058 H 382.424 -0.415767 6.77826 0
M  V30 4059 H 380.37 -2.53803 6.04913 0
M  V30 4060 H 380.287 -1.47423 7.41487 0
M  V30 4061 H 381.555 -2.66015 7.32705 0
M  V30 4062 N 385.784 -1.5574 0.241426 0
M  V30 4063 C 386.694 -2.2479 -0.671305 0
M  V30 4064 C 387.71 -1.26217 -1.19772 0
M  V30 4065 O 388.886 -1.59079 -1.23514 0
M  V30 4066 C 385.951 -2.92966 -1.85396 0
M  V30 4067 C 385.012 -4.06935 -1.36756 0
M  V30 4068 C 384.245 -4.71851 -2.49384 0
M  V30 4069 O 384.468 -4.35823 -3.67987 0
M  V30 4070 O 383.402 -5.60467 -2.19454 0
M  V30 4071 H 387.228 -3.0349 -0.112966 0
M  V30 4072 H 384.813 -1.49397 0.0101513 0
M  V30 4073 H 386.695 -3.35927 -2.54423 0
M  V30 4074 H 385.37 -2.17211 -2.40002 0
M  V30 4075 H 384.277 -3.68503 -0.644726 0
M  V30 4076 H 385.61 -4.84492 -0.867647 0
M  V30 4077 N 387.262 0.0317525 -1.57568 0
M  V30 4078 C 388.673 0.578692 -1.77505 0
M  V30 4079 C 389.024 1.75749 -0.872164 0
M  V30 4080 O 388.149 2.16298 -0.0663106 0
M  V30 4081 C 388.744 1.05658 -3.21904 0
M  V30 4082 C 387.303 1.54906 -3.43047 0
M  V30 4083 C 386.45 0.485939 -2.73009 0
M  V30 4084 H 389.401 -0.194475 -1.57504 0
M  V30 4085 H 389.422 1.92404 -3.28269 0
M  V30 4086 H 388.934 0.198422 -3.87592 0
M  V30 4087 H 387.035 2.42915 -2.82529 0
M  V30 4088 H 387.148 1.59841 -4.5165 0
M  V30 4089 H 385.512 0.940354 -2.36705 0
M  V30 4090 H 386.295 -0.362709 -3.41379 0
M  V30 4091 N 388.74 1.54641 0.303973 0
M  V30 4092 C 389.986 1.74038 1.04109 0
M  V30 4093 C 390.319 0.523051 1.87024 0
M  V30 4094 O 389.594 -0.479874 1.88487 0
M  V30 4095 C 389.877 3.02761 1.94955 0
M  V30 4096 C 389.73 4.34787 1.1524 0
M  V30 4097 C 391.049 3.27336 2.94175 0
M  V30 4098 H 388.168 0.63323 0.377079 0
M  V30 4099 H 390.81 1.87354 0.316001 0
M  V30 4100 H 388.96 2.9154 2.56782 0
M  V30 4101 H 390.632 4.57922 0.557236 0
M  V30 4102 H 388.875 4.31407 0.455053 0
M  V30 4103 H 389.546 5.21116 1.8205 0
M  V30 4104 H 392.022 3.38148 2.42477 0
M  V30 4105 H 390.898 4.18726 3.54908 0
M  V30 4106 H 391.159 2.45491 3.67677 0
M  V30 4107 N 390.218 -0.567019 1.47046 0
M  V30 4108 C 391.128 -1.70247 1.6141 0
M  V30 4109 C 392.144 -1.66746 0.497157 0
M  V30 4110 O 393.32 -1.86371 0.763389 0
M  V30 4111 C 390.385 -3.06756 1.61561 0
M  V30 4112 C 389.446 -3.21399 2.84607 0
M  V30 4113 C 388.679 -4.51396 2.84741 0
M  V30 4114 O 388.902 -5.36255 1.94388 0
M  V30 4115 O 387.836 -4.69621 3.76483 0
M  V30 4116 H 391.662 -1.61073 2.57467 0
M  V30 4117 H 389.247 -0.735894 1.30019 0
M  V30 4118 H 391.129 -3.8801 1.64396 0
M  V30 4119 H 389.804 -3.16333 0.686684 0
M  V30 4120 H 388.711 -2.39579 2.8732 0
M  V30 4121 H 390.044 -3.16721 3.76761 0
M  V30 4122 N 391.696 -1.35014 -0.812953 0
M  V30 4123 C 392.659 -1.27292 -1.90602 0
M  V30 4124 C 393.659 -0.185817 -1.59723 0
M  V30 4125 O 394.849 -0.439102 -1.68575 0
M  V30 4126 C 391.981 -0.967676 -3.26877 0
M  V30 4127 H 393.174 -2.24479 -1.9887 0
M  V30 4128 H 390.727 -1.19446 -1.00808 0
M  V30 4129 H 391.462 0.0005954 -3.243 0
M  V30 4130 H 391.247 -1.75412 -3.50675 0
M  V30 4131 H 392.737 -0.939085 -4.06904 0
M  V30 4132 N 393.175 1.03435 -1.18907 0
M  V30 4133 C 394.138 2.09756 -0.923844 0
M  V30 4134 C 395.138 1.60528 0.093416 0
M  V30 4135 O 396.328 1.73631 -0.140727 0
M  V30 4136 C 393.46 3.38692 -0.387354 0
M  V30 4137 H 394.653 2.34719 -1.86674 0
M  V30 4138 H 392.206 1.19959 -1.00197 0
M  V30 4139 H 392.941 3.19396 0.561845 0
M  V30 4140 H 392.726 3.75742 -1.12074 0
M  V30 4141 H 394.216 4.17016 -0.220694 0
M  V30 4142 N 394.653 0.992116 1.22453 0
M  V30 4143 C 396.064 0.702776 1.72968 0
M  V30 4144 C 396.415 -0.780399 1.80012 0
M  V30 4145 O 395.54 -1.61007 1.44589 0
M  V30 4146 C 396.135 1.26903 3.14135 0
M  V30 4147 C 394.694 1.02909 3.62059 0
M  V30 4148 C 393.841 1.38969 2.39964 0
M  V30 4149 H 396.792 1.16457 1.07812 0
M  V30 4150 H 396.813 0.647223 3.74955 0
M  V30 4151 H 396.325 2.34851 3.08977 0
M  V30 4152 H 394.426 -0.0337979 3.72585 0
M  V30 4153 H 394.539 1.69191 4.48231 0
M  V30 4154 H 392.903 0.808279 2.41535 0
M  V30 4155 H 393.686 2.4792 2.37467 0
M  V30 4156 N 396.131 -1.37776 0.765217 0
M  V30 4157 C 397.094 -2.28686 0.153416 0
M  V30 4158 C 398.094 -1.47727 -0.635081 0
M  V30 4159 O 399.284 -1.68027 -0.459632 0
M  V30 4160 C 396.416 -3.31608 -0.790495 0
M  V30 4161 H 397.609 -2.84297 0.954723 0
M  V30 4162 H 395.162 -1.46932 0.53299 0
M  V30 4163 H 395.897 -2.81109 -1.61705 0
M  V30 4164 H 395.682 -3.9144 -0.227348 0
M  V30 4165 H 397.172 -3.99559 -1.21419 0
M  V30 4166 N 397.609 -0.515225 -1.4894 0
M  V30 4167 C 398.572 0.244681 -2.2789 0
M  V30 4168 C 399.572 0.881166 -1.34507 0
M  V30 4169 O 400.762 0.743497 -1.57537 0
M  V30 4170 C 397.894 1.35247 -3.12923 0
M  V30 4171 H 399.087 -0.448289 -2.96531 0
M  V30 4172 H 396.64 -0.270656 -1.53939 0
M  V30 4173 H 397.375 2.07916 -2.48881 0
M  V30 4174 H 397.16 0.901374 -3.81599 0
M  V30 4175 H 398.65 1.88737 -3.72516 0
M  V30 4176 N 399.087 1.5561 -0.249682 0
M  V30 4177 C 399.997 2.25143 0.659375 0
M  V30 4178 C 401.013 1.2685 1.19101 0
M  V30 4179 O 402.189 1.59732 1.22669 0
M  V30 4180 C 399.254 2.93945 1.8384 0
M  V30 4181 C 398.315 4.07655 1.34596 0
M  V30 4182 C 397.548 4.73167 2.46878 0
M  V30 4183 O 397.771 4.37768 3.65671 0
M  V30 4184 O 396.705 5.61623 2.16478 0
M  V30 4185 H 400.531 3.03545 0.0968698 0
M  V30 4186 H 398.116 1.49389 -0.018074 0
M  V30 4187 H 399.998 3.37271 2.52638 0
M  V30 4188 H 398.673 2.18481 2.38847 0
M  V30 4189 H 397.58 3.68839 0.625174 0
M  V30 4190 H 398.913 4.84946 0.841941 0
M  V30 4191 N 400.565 -0.0233959 1.57583 0
M  V30 4192 C 401.976 -0.56927 1.77809 0
M  V30 4193 C 402.327 -1.75284 0.881472 0
M  V30 4194 O 401.452 -2.1626 0.0777805 0
M  V30 4195 C 402.047 -1.03949 3.22459 0
M  V30 4196 C 400.606 -1.53084 3.43864 0
M  V30 4197 C 399.753 -0.471454 2.73263 0
M  V30 4198 H 402.704 0.202825 1.57399 0
M  V30 4199 H 402.725 -1.90661 3.29285 0
M  V30 4200 H 402.237 -0.177865 3.87692 0
M  V30 4201 H 400.338 -2.41414 2.83814 0
M  V30 4202 H 400.451 -1.57443 4.52491 0
M  V30 4203 H 398.815 -0.927788 2.37201 0
M  V30 4204 H 399.598 0.380808 3.41181 0
M  V30 4205 N 402.043 -1.548 -0.295768 0
M  V30 4206 C 403.289 -1.74588 -1.03184 0
M  V30 4207 C 403.622 -0.532962 -1.86744 0
M  V30 4208 O 402.897 0.469872 -1.88739 0
M  V30 4209 C 403.18 -3.03791 -1.93347 0
M  V30 4210 C 403.033 -4.35392 -1.12933 0
M  V30 4211 C 404.352 -3.28892 -2.92435 0
M  V30 4212 H 401.471 -0.635221 -0.373715 0
M  V30 4213 H 404.113 -1.87519 -0.30606 0
M  V30 4214 H 402.263 -2.92898 -2.55232 0
M  V30 4215 H 403.935 -4.58211 -0.532943 0
M  V30 4216 H 402.178 -4.31642 -0.432168 0
M  V30 4217 H 402.849 -5.22074 -1.79284 0
M  V30 4218 H 405.325 -3.39429 -2.4068 0
M  V30 4219 H 404.201 -4.20603 -3.52682 0
M  V30 4220 H 404.462 -2.47437 -3.6637 0
M  V30 4221 N 403.521 0.559213 -1.47345 0
M  V30 4222 C 404.932 1.14134 -1.47751 0
M  V30 4223 C 405.283 1.94834 -0.231103 0
M  V30 4224 O 404.408 2.05957 0.664137 0
M  V30 4225 C 405.003 2.07653 -2.67705 0
M  V30 4226 C 403.562 2.61141 -2.71076 0
M  V30 4227 C 402.709 1.3748 -2.40821 0
M  V30 4228 H 405.66 0.345917 -1.54884 0
M  V30 4229 H 405.681 2.91497 -2.44561 0
M  V30 4230 H 405.193 1.4889 -3.58404 0
M  V30 4231 H 403.294 3.23707 -1.84511 0
M  V30 4232 H 403.407 3.02272 -3.7171 0
M  V30 4233 H 401.771 1.68086 -1.91362 0
M  V30 4234 H 402.554 0.805135 -3.33725 0
M  V30 4235 N 404.999 1.35443 0.805782 0
M  V30 4236 C 405.962 1.28301 1.89925 0
M  V30 4237 C 406.962 0.194285 1.59622 0
M  V30 4238 O 408.152 0.448036 1.6834 0
M  V30 4239 C 405.284 0.984997 3.2636 0
M  V30 4240 H 406.477 2.2553 1.97677 0
M  V30 4241 H 404.03 1.19979 1.00173 0
M  V30 4242 H 404.765 0.016603 3.24296 0
M  V30 4243 H 404.55 1.77269 3.4974 0
M  V30 4244 H 406.04 0.960651 4.064 0
M  V30 4245 N 406.477 -1.02803 1.19454 0
M  V30 4246 C 407.702 -1.80378 1.02364 0
M  V30 4247 C 408.127 -1.83282 -0.423007 0
M  V30 4248 O 407.485 -1.25945 -1.30413 0
M  V30 4249 C 407.533 -3.23248 1.59821 0
M  V30 4250 O 406.637 -4.04 0.828105 0
M  V30 4251 H 405.978 -0.556799 0.361761 0
M  V30 4252 H 408.508 -1.29385 1.58495 0
M  V30 4253 H 408.518 -3.73994 1.63073 0
M  V30 4254 H 407.193 -3.2045 2.65113 0
M  V30 4255 H 405.77 -3.62635 0.86891 0
M  V30 4256 N 407.956 -0.998596 -1.21925 0
M  V30 4257 C 409.184 -0.696286 -1.94832 0
M  V30 4258 C 409.599 0.740032 -1.73692 0
M  V30 4259 O 408.956 1.5 -1.03953 0
M  V30 4260 C 409.007 -0.999833 -3.47398 0
M  V30 4261 O 408.728 -2.37972 -3.67833 0
M  V30 4262 C 410.229 -0.716025 -4.37479 0
M  V30 4263 H 407.449 -0.257111 -0.619786 0
M  V30 4264 H 409.993 -1.33491 -1.54921 0
M  V30 4265 H 408.148 -0.406918 -3.85257 0
M  V30 4266 H 408.562 -2.48338 -4.61983 0
M  V30 4267 H 410.036 -0.978642 -5.43256 0
M  V30 4268 H 410.513 0.349968 -4.37803 0
M  V30 4269 H 411.119 -1.29025 -4.05256 0
M  V30 4270 O 409.473 1.33471 -0.909268 0
M  V30 4271 H 410.164 1.86473 -0.524175 0
M  V30 END ATOM
M  V30 BEGIN BOND
M  V30 END BOND
M  V30 END CTAB
M  END
$$$$
