drugbank_target|Q16769 Glutaminyl-peptide cyclotransferase (DB04581; DB04622; DB04636)
 OpenBabel12092120303D

  0  0  0     0  0            999 V3000
M  V30 BEGIN CTAB
M  V30 COUNTS 5720 5804 0 0 0
M  V30 BEGIN ATOM
M  V30 1 H -0.908 1.98254 -0.117106 0
M  V30 2 N 0 1.576 0 0
M  V30 3 C 0.933 2.03868 1.02534 0
M  V30 4 C 1.911 0.928543 1.3348 0
M  V30 5 O 3.095 1.19667 1.45644 0
M  V30 6 C 0.222 2.43627 2.35294 0
M  V30 7 C -0.732 3.65373 2.2001 0
M  V30 8 S 0.101 5.13292 1.52614 0
M  V30 9 C 1.257 5.56322 2.86805 0
M  V30 10 H 1.49 2.90518 0.631377 0
M  V30 11 H -0.977 1.52953 0.210867 0
M  V30 12 H 0.981 2.67203 3.11629 0
M  V30 13 H -0.358 1.57376 2.7183 0
M  V30 14 H -1.165 3.90944 3.18086 0
M  V30 15 H -1.563 3.418 1.51819 0
M  V30 16 H 0.729 5.58782 3.83104 0
M  V30 17 H 1.672 6.56266 2.65933 0
M  V30 18 H 2.08 4.83886 2.90714 0
M  V30 19 N 1.4781 -0.272755 1.55222 0
M  V30 20 C 2.4411 -1.32041 1.87344 0
M  V30 21 C 3.4411 -1.42342 0.74803 0
M  V30 22 O 4.6311 -1.41488 1.0162 0
M  V30 23 C 1.7631 -2.70173 2.07893 0
M  V30 24 H 2.9561 -1.04789 2.80997 0
M  V30 25 H 0.5091 -0.51083 1.47717 0
M  V30 26 H 1.2441 -3.02605 1.16622 0
M  V30 27 H 1.0291 -2.64082 2.89833 0
M  V30 28 H 2.5191 -3.45869 2.34017 0
M  V30 29 N 2.9562 -1.48159 -0.537278 0
M  V30 30 C 4.2042 -1.55497 -1.29094 0
M  V30 31 C 4.5252 -0.227454 -1.93669 0
M  V30 32 O 3.7952 0.750386 -1.80959 0
M  V30 33 H 2.3752 -0.572832 -0.47945 0
M  V30 34 H 5.0372 -1.84579 -0.625818 0
M  V30 35 H 4.1332 -2.33216 -2.07405 0
M  V30 36 N 4.4343 0.785586 -1.36625 0
M  V30 37 C 5.6823 1.54057 -1.30808 0
M  V30 38 C 6.0033 1.94683 0.111157 0
M  V30 39 O 5.2733 1.65241 1.05224 0
M  V30 40 H 3.8533 0.571354 -0.481211 0
M  V30 41 H 6.5153 0.935821 -1.70963 0
M  V30 42 H 5.6113 2.44637 -1.93801 0
M  V30 43 N 5.9124 1.20967 1.01018 0
M  V30 44 C 7.3284 0.965905 1.27053 0
M  V30 45 C 7.5284 -0.350785 1.98423 0
M  V30 46 O 6.5844 -1.07773 2.28344 0
M  V30 47 C 7.8974 2.15294 2.09926 0
M  V30 48 C 9.4454 2.19463 2.23171 0
M  V30 49 C 9.9204 3.3767 3.09424 0
M  V30 50 N 11.4114 3.37724 3.17012 0
M  V30 51 C 12.1464 4.25837 3.83993 0
M  V30 52 N 11.6424 5.24138 4.53047 0
M  V30 53 N 13.4354 4.1366 3.80581 0
M  V30 54 H 5.5864 2.0565 0.531194 0
M  V30 55 H 7.8494 0.90024 0.297106 0
M  V30 56 H 7.5554 3.10684 1.64828 0
M  V30 57 H 7.4294 2.13923 3.10672 0
M  V30 58 H 9.8164 1.24632 2.6749 0
M  V30 59 H 9.8974 2.2488 1.21912 0
M  V30 60 H 9.5414 4.32791 2.65808 0
M  V30 61 H 9.4714 3.29491 4.10784 0
M  V30 62 H 11.9624 2.6658 2.6785 0
M  V30 63 H 12.2754 5.87684 5.01844 0
M  V30 64 H 10.6204 5.28068 4.5185 0
M  V30 65 H 13.8114 3.36127 3.25785 0
M  V30 66 H 13.9844 4.82538 4.32505 0
M  V30 67 N 7.3905 -1.2043 1.01659 0
M  V30 68 C 8.3405 -2.21076 0.557623 0
M  V30 69 C 9.3245 -1.56176 -0.387029 0
M  V30 70 O 10.5165 -1.7575 -0.209996 0
M  V30 71 C 7.6455 -3.43146 -0.102707 0
M  V30 72 C 6.7315 -4.15213 0.863652 0
M  V30 73 N 7.1225 -4.63662 2.02117 0
M  V30 74 C 5.4205 -4.40716 0.684472 0
M  V30 75 C 6.1215 -5.18868 2.62966 0
M  V30 76 N 5.0975 -5.0893 1.91027 0
M  V30 77 H 8.8995 -2.56201 1.44008 0
M  V30 78 H 6.4135 -1.36366 0.881931 0
M  V30 79 H 8.4105 -4.14475 -0.449054 0
M  V30 80 H 7.0705 -3.09526 -0.981003 0
M  V30 81 H 8.0815 -4.58877 2.40109 0
M  V30 82 H 4.7585 -4.17245 -0.14577 0
M  V30 83 H 6.1485 -5.6673 3.60924 0
M  V30 84 N 8.8686 -0.792821 -1.36206 0
M  V30 85 C 10.2846 -0.474903 -1.52371 0
M  V30 86 C 10.4846 1.00622 -1.74578 0
M  V30 87 O 9.5406 1.79162 -1.77924 0
M  V30 88 C 10.8536 -1.3083 -2.70747 0
M  V30 89 C 12.4016 -1.30234 -2.84619 0
M  V30 90 C 12.8766 -2.11956 -4.06004 0
M  V30 91 N 14.3676 -2.09419 -4.13156 0
M  V30 92 C 15.1026 -2.69419 -5.06163 0
M  V30 93 N 14.5986 -3.3829 -6.04592 0
M  V30 94 N 16.3916 -2.59134 -4.98804 0
M  V30 95 H 8.5426 -1.75222 -1.20046 0
M  V30 96 H 10.8056 -0.745024 -0.586211 0
M  V30 97 H 10.5116 -2.35881 -2.6087 0
M  V30 98 H 10.3856 -0.95196 -3.6499 0
M  V30 99 H 12.7726 -0.259748 -2.93955 0
M  V30 100 H 12.8536 -1.69847 -1.91274 0
M  V30 101 H 12.4976 -3.16248 -3.97429 0
M  V30 102 H 12.4276 -1.69711 -4.98503 0
M  V30 103 H 14.9186 -1.59297 -3.42685 0
M  V30 104 H 15.2316 -3.81394 -6.7213 0
M  V30 105 H 13.5766 -3.42393 -6.04807 0
M  V30 106 H 16.7676 -2.04927 -4.20859 0
M  V30 107 H 16.9406 -3.06185 -5.711 0
M  V30 108 N 10.3467 1.47872 -0.545128 0
M  V30 109 C 11.7627 1.5829 -0.204032 0
M  V30 110 C 11.9627 1.54529 1.29317 0
M  V30 111 O 11.0187 1.44232 2.07252 0
M  V30 112 C 12.3317 2.89304 -0.819987 0
M  V30 113 C 13.8797 3.02864 -0.790105 0
M  V30 114 C 14.3547 4.3656 -1.38491 0
M  V30 115 N 15.8457 4.43165 -1.34755 0
M  V30 116 C 16.5807 5.45153 -1.77753 0
M  V30 117 N 16.0767 6.54016 -2.2855 0
M  V30 118 N 17.8697 5.36125 -1.68897 0
M  V30 119 H 10.0207 1.4856 -1.51802 0
M  V30 120 H 12.2837 0.706305 -0.632327 0
M  V30 121 H 11.9897 2.97757 -1.87173 0
M  V30 122 H 11.8637 3.75957 -0.305915 0
M  V30 123 H 14.2507 2.94014 0.252913 0
M  V30 124 H 14.3317 2.17782 -1.34181 0
M  V30 125 H 13.9757 4.46164 -2.42693 0
M  V30 126 H 13.9057 5.20353 -0.808754 0
M  V30 127 H 16.3967 3.65083 -0.975855 0
M  V30 128 H 16.7097 7.27994 -2.59314 0
M  V30 129 H 15.0547 6.54938 -2.32553 0
M  V30 130 H 18.2457 4.49975 -1.28998 0
M  V30 131 H 18.4187 6.15472 -2.02726 0
M  V30 132 N 11.8248 0.280983 1.55075 0
M  V30 133 C 13.0708 -0.33461 2.00021 0
M  V30 134 C 13.4038 -1.55063 1.16915 0
M  V30 135 O 12.6788 -1.93006 0.240646 0
M  V30 136 C 12.9618 -0.711007 3.53011 0
M  V30 137 C 12.8148 0.512766 4.46868 0
M  V30 138 C 14.1338 -1.54522 4.12081 0
M  V30 139 H 11.2528 -0.120147 0.727141 0
M  V30 140 H 13.8948 0.389097 1.85973 0
M  V30 141 H 12.0448 -1.32761 3.65112 0
M  V30 142 H 13.7168 1.15131 4.46702 0
M  V30 143 H 11.9598 1.14975 4.18286 0
M  V30 144 H 12.6308 0.205556 5.51617 0
M  V30 145 H 15.1068 -1.02442 4.03293 0
M  V30 146 H 13.9828 -1.77739 5.19327 0
M  V30 147 H 14.2438 -2.52813 3.62682 0
M  V30 148 N 13.3029 -1.57598 0.00835791 0
M  V30 149 C 14.5489 -1.91211 -0.675732 0
M  V30 150 C 14.8819 -0.883139 -1.72958 0
M  V30 151 O 14.1569 0.097016 -1.94258 0
M  V30 152 C 14.4399 -3.35379 -1.31123 0
M  V30 153 C 14.2929 -4.48999 -0.268356 0
M  V30 154 C 15.6119 -3.7912 -2.23508 0
M  V30 155 H 12.7309 -0.695374 -0.244179 0
M  V30 156 H 15.3729 -1.89901 0.0613655 0
M  V30 157 H 13.5229 -3.36626 -1.93946 0
M  V30 158 H 15.1949 -4.59887 0.360844 0
M  V30 159 H 13.4379 -4.31873 0.408482 0
M  V30 160 H 14.1089 -5.46851 -0.752218 0
M  V30 161 H 16.5849 -3.79477 -1.70693 0
M  V30 162 H 15.4609 -4.80729 -2.64936 0
M  V30 163 H 15.7219 -3.13455 -3.11766 0
M  V30 164 N 14.781 0.264519 -1.55364 0
M  V30 165 C 16.029 0.993021 -1.76021 0
M  V30 166 C 16.35 1.86511 -0.569099 0
M  V30 167 O 15.62 1.91438 0.415735 0
M  V30 168 H 14.2 0.369639 -0.649135 0
M  V30 169 H 16.862 0.286707 -1.9278 0
M  V30 170 H 15.958 1.62502 -2.66457 0
M  V30 171 N 16.2591 1.48442 0.529413 0
M  V30 172 C 17.4871 1.60151 1.30994 0
M  V30 173 C 17.9021 0.261985 1.86973 0
M  V30 174 O 17.2591 -0.748805 1.66431 0
M  V30 175 C 17.3101 2.64854 2.46038 0
M  V30 176 O 17.0311 3.93608 1.92365 0
M  V30 177 C 18.5321 2.87007 3.37849 0
M  V30 178 H 15.7521 0.539971 0.398338 0
M  V30 179 H 18.2961 1.94273 0.638597 0
M  V30 180 H 16.4511 2.33589 3.09055 0
M  V30 181 H 16.8651 4.51055 2.67675 0
M  V30 182 H 18.3391 3.64068 4.14919 0
M  V30 183 H 18.8161 1.95852 3.93114 0
M  V30 184 H 19.4221 3.19579 2.80623 0
M  V30 185 N 17.7372 -0.778329 1.37039 0
M  V30 186 C 18.6672 -1.90546 1.34962 0
M  V30 187 C 19.6482 -1.68681 0.219274 0
M  V30 188 O 20.8332 -1.89634 0.418624 0
M  V30 189 C 17.9632 -3.27734 1.14925 0
M  V30 190 C 16.9172 -3.64147 2.24902 0
M  V30 191 C 16.2432 -4.99806 1.89996 0
M  V30 192 C 17.5432 -3.71579 3.67051 0
M  V30 193 H 19.2372 -1.92541 2.29277 0
M  V30 194 H 16.7832 -0.924948 1.10366 0
M  V30 195 H 18.7362 -4.06215 1.12104 0
M  V30 196 H 17.4602 -3.26154 0.170631 0
M  V30 197 H 16.1192 -2.8797 2.26868 0
M  V30 198 H 15.7672 -4.94759 0.906796 0
M  V30 199 H 15.4672 -5.25139 2.63634 0
M  V30 200 H 16.9912 -5.80694 1.88749 0
M  V30 201 H 18.4052 -4.40227 3.67251 0
M  V30 202 H 16.8022 -4.08405 4.39688 0
M  V30 203 H 17.8722 -2.72404 4.01154 0
M  V30 204 N 19.2153 -1.21501 -1.00376 0
M  V30 205 C 20.1653 -0.942843 -2.07592 0
M  V30 206 C 21.1493 0.102384 -1.60574 0
M  V30 207 O 22.3413 -0.10671 -1.76678 0
M  V30 208 C 19.4703 -0.510729 -3.3948 0
M  V30 209 C 18.5563 -1.59009 -3.93163 0
M  V30 210 N 18.9473 -2.81544 -4.20198 0
M  V30 211 C 17.2453 -1.45925 -4.21452 0
M  V30 212 C 17.9463 -3.51261 -4.63671 0
M  V30 213 N 16.9223 -2.78703 -4.66718 0
M  V30 214 H 20.7243 -1.87378 -2.26421 0
M  V30 215 H 18.2383 -1.11093 -1.18458 0
M  V30 216 H 20.2353 -0.297101 -4.1584 0
M  V30 217 H 18.8953 0.413436 -3.22057 0
M  V30 218 H 19.9063 -3.18075 -4.08716 0
M  V30 219 H 16.5833 -0.600467 -4.13159 0
M  V30 220 H 17.9733 -4.56183 -4.93302 0
M  V30 221 N 20.6934 1.19889 -1.02296 0
M  V30 222 C 21.6234 2.25141 -0.619174 0
M  V30 223 C 22.6044 1.66051 0.368915 0
M  V30 224 O 23.7894 1.92546 0.252941 0
M  V30 225 C 20.9194 3.4728 0.0368783 0
M  V30 226 C 19.8734 4.19005 -0.872865 0
M  V30 227 C 19.1994 5.34637 -0.0822402 0
M  V30 228 C 20.4994 4.74452 -2.18387 0
M  V30 229 H 22.1934 2.59171 -1.49903 0
M  V30 230 H 19.7394 1.24579 -0.722222 0
M  V30 231 H 21.6924 4.20098 0.330958 0
M  V30 232 H 20.4164 3.12433 0.95149 0
M  V30 233 H 19.0754 3.48061 -1.15105 0
M  V30 234 H 18.7234 4.96034 0.83422 0
M  V30 235 H 18.4234 5.83557 -0.688149 0
M  V30 236 H 19.9474 6.10255 0.205238 0
M  V30 237 H 21.3614 5.39055 -1.95172 0
M  V30 238 H 19.7584 5.33834 -2.74119 0
M  V30 239 H 20.8284 3.92844 -2.84257 0
M  V30 240 N 22.1715 0.800033 1.35784 0
M  V30 241 C 23.1015 0.220184 2.3246 0
M  V30 242 C 24.0825 -0.65073 1.57161 0
M  V30 243 O 25.2675 -0.582359 1.85263 0
M  V30 244 C 22.3975 -0.637353 3.41402 0
M  V30 245 C 21.3515 0.134531 4.27789 0
M  V30 246 C 20.6775 -0.844285 5.27992 0
M  V30 247 C 21.9775 1.32979 5.05088 0
M  V30 248 H 23.6715 1.02787 2.81203 0
M  V30 249 H 21.2175 0.495717 1.35199 0
M  V30 250 H 23.1705 -1.05302 4.08031 0
M  V30 251 H 21.8945 -1.47785 2.91251 0
M  V30 252 H 20.5535 0.531296 3.6273 0
M  V30 253 H 20.2015 -1.68011 4.74111 0
M  V30 254 H 19.9015 -0.332184 5.8666 0
M  V30 255 H 21.4255 -1.2583 5.97494 0
M  V30 256 H 22.8395 0.98934 5.64699 0
M  V30 257 H 21.2365 1.77593 5.7322 0
M  V30 258 H 22.3065 2.11978 4.36111 0
M  V30 259 N 23.6496 -1.47581 0.552962 0
M  V30 260 C 24.5796 -2.32762 -0.185451 0
M  V30 261 C 25.5606 -1.43527 -0.912905 0
M  V30 262 O 26.7456 -1.72388 -0.894201 0
M  V30 263 C 23.8756 -3.25219 -1.21859 0
M  V30 264 C 22.8296 -4.23661 -0.607864 0
M  V30 265 C 22.1556 -5.05413 -1.74533 0
M  V30 266 C 23.4556 -5.20481 0.435582 0
M  V30 267 H 25.1496 -2.94749 0.525684 0
M  V30 268 H 22.6956 -1.41738 0.254251 0
M  V30 269 H 24.6486 -3.8365 -1.7433 0
M  V30 270 H 23.3726 -2.61279 -1.95961 0
M  V30 271 H 22.0316 -3.66451 -0.104489 0
M  V30 272 H 21.6796 -4.3788 -2.47529 0
M  V30 273 H 21.3796 -5.72059 -1.34249 0
M  V30 274 H 22.9036 -5.66701 -2.27338 0
M  V30 275 H 24.3176 -5.733 -0.00290157 0
M  V30 276 H 22.7146 -5.95305 0.757067 0
M  V30 277 H 23.7846 -4.66217 1.33303 0
M  V30 278 N 25.1277 -0.289203 -1.54924 0
M  V30 279 C 26.0577 0.58549 -2.2604 0
M  V30 280 C 27.0387 1.14753 -1.25562 0
M  V30 281 O 28.2237 1.17906 -1.54311 0
M  V30 282 C 25.3537 1.76305 -2.99222 0
M  V30 283 C 24.3077 1.33191 -4.06748 0
M  V30 284 C 23.6337 2.5937 -4.6758 0
M  V30 285 C 24.9337 0.471775 -5.20165 0
M  V30 286 H 26.6277 -0.00763532 -2.99399 0
M  V30 287 H 24.1737 -0.00511229 -1.43999 0
M  V30 288 H 26.1267 2.38097 -3.47689 0
M  V30 289 H 24.8507 2.38223 -2.23422 0
M  V30 290 H 23.5097 0.737121 -3.59113 0
M  V30 291 H 23.1577 3.19576 -3.88433 0
M  V30 292 H 22.8577 2.31228 -5.40192 0
M  V30 293 H 24.3817 3.21985 -5.18804 0
M  V30 294 H 25.7957 0.995056 -5.64599 0
M  V30 295 H 24.1927 0.284639 -5.99425 0
M  V30 296 H 25.2627 -0.506041 -4.82252 0
M  V30 297 N 26.6058 1.57591 -0.0167156 0
M  V30 298 C 27.8518 1.91567 0.665582 0
M  V30 299 C 28.1848 0.892298 1.72487 0
M  V30 300 O 27.4598 -0.0867127 1.94307 0
M  V30 301 C 27.7428 3.36069 1.29342 0
M  V30 302 C 27.5958 4.49135 0.244541 0
M  V30 303 C 28.9148 3.803 2.21495 0
M  V30 304 H 26.0338 0.69666 0.240488 0
M  V30 305 H 28.6758 1.89866 -0.0714356 0
M  V30 306 H 26.8258 3.3765 1.92158 0
M  V30 307 H 28.4978 4.59689 -0.385228 0
M  V30 308 H 26.7408 4.3165 -0.431379 0
M  V30 309 H 27.4118 5.47242 0.723207 0
M  V30 310 H 29.8878 3.80377 1.68678 0
M  V30 311 H 28.7638 4.82127 2.62382 0
M  V30 312 H 29.0248 3.15104 3.101 0
M  V30 313 N 28.0839 -0.256276 1.55502 0
M  V30 314 C 29.0469 -1.30047 1.88734 0
M  V30 315 C 30.0469 -1.4154 0.763086 0
M  V30 316 O 31.2369 -1.40403 1.03115 0
M  V30 317 C 28.3689 -2.67953 2.10747 0
M  V30 318 H 29.5619 -1.01802 2.82093 0
M  V30 319 H 27.1149 -0.495134 1.4825 0
M  V30 320 H 27.8499 -3.01351 1.19825 0
M  V30 321 H 27.6349 -2.60993 2.92617 0
M  V30 322 H 29.1249 -3.43368 2.37673 0
M  V30 323 N 29.562 -1.4872 -0.521534 0
M  V30 324 C 30.525 -1.63379 -1.60748 0
M  V30 325 C 31.525 -0.50661 -1.52611 0
M  V30 326 O 32.715 -0.772601 -1.5613 0
M  V30 327 C 29.847 -1.61192 -3.00383 0
M  V30 328 H 31.04 -2.60217 -1.49087 0
M  V30 329 H 28.593 -1.37444 -0.744235 0
M  V30 330 H 29.328 -0.65863 -3.17541 0
M  V30 331 H 29.113 -2.43032 -3.07698 0
M  V30 332 H 30.603 -1.7466 -3.7932 0
M  V30 333 N 31.0401 0.771051 -1.3745 0
M  V30 334 C 31.9701 1.89827 -1.3597 0
M  V30 335 C 32.9511 1.68562 -0.228216 0
M  V30 336 O 34.1361 1.8941 -0.428675 0
M  V30 337 C 31.2661 3.2712 -1.16662 0
M  V30 338 C 30.2201 3.6295 -2.2683 0
M  V30 339 C 29.5461 4.98791 -1.92644 0
M  V30 340 C 30.8461 3.69627 -3.69017 0
M  V30 341 H 32.5401 1.91323 -2.30295 0
M  V30 342 H 30.0861 0.919082 -1.10855 0
M  V30 343 H 32.0391 4.05615 -1.14256 0
M  V30 344 H 30.7631 3.26059 -0.187926 0
M  V30 345 H 29.4221 2.86763 -2.28392 0
M  V30 346 H 29.0701 4.94271 -0.933021 0
M  V30 347 H 28.7701 5.23733 -2.66416 0
M  V30 348 H 30.2941 5.79685 -1.91826 0
M  V30 349 H 31.7081 4.38273 -3.69581 0
M  V30 350 H 30.1051 4.06067 -4.41848 0
M  V30 351 H 31.1751 2.70273 -4.02592 0
M  V30 352 N 32.5182 1.22032 0.997298 0
M  V30 353 C 33.9292 1.0397 1.55071 0
M  V30 354 C 34.2802 -0.398192 1.92117 0
M  V30 355 O 33.4052 -1.28254 1.74298 0
M  V30 356 C 34.0002 1.88109 2.81781 0
M  V30 357 C 32.5592 1.74357 3.33581 0
M  V30 358 C 31.7062 1.84846 2.06706 0
M  V30 359 H 34.6572 1.35941 0.818883 0
M  V30 360 H 34.6782 1.39589 3.53971 0
M  V30 361 H 34.1902 2.92754 2.54787 0
M  V30 362 H 32.2912 0.72427 3.65493 0
M  V30 363 H 32.4042 2.56772 4.04481 0
M  V30 364 H 30.7682 1.28238 2.20062 0
M  V30 365 H 31.5512 2.91014 1.82114 0
M  V30 366 N 33.9963 -1.19345 1.0293 0
M  V30 367 C 35.2423 -1.89585 0.736824 0
M  V30 368 C 35.5973 -1.78148 -0.726703 0
M  V30 369 O 34.8903 -1.16332 -1.52242 0
M  V30 370 C 35.0843 -3.39292 1.12319 0
M  V30 371 C 34.9133 -3.65298 2.62273 0
M  V30 372 C 33.6833 -3.83304 3.29251 0
M  V30 373 C 35.8813 -3.6682 3.60482 0
M  V30 374 N 33.8633 -3.96944 4.68304 0
M  V30 375 C 35.2343 -3.86037 4.85155 0
M  V30 376 C 37.2893 -3.49848 3.54275 0
M  V30 377 C 35.9923 -3.9004 6.04369 0
M  V30 378 C 38.0183 -3.55129 4.72903 0
M  V30 379 C 37.3803 -3.74831 5.9639 0
M  V30 380 H 33.4793 -0.712856 0.321497 0
M  V30 381 H 36.0633 -1.43427 1.31669 0
M  V30 382 H 34.2343 -3.84172 0.571524 0
M  V30 383 H 35.9663 -3.97055 0.78292 0
M  V30 384 H 32.7213 -3.82211 2.79663 0
M  V30 385 H 33.1453 -4.07613 5.40538 0
M  V30 386 H 37.7873 -3.33572 2.59788 0
M  V30 387 H 35.5053 -4.05108 6.99223 0
M  V30 388 H 39.0913 -3.43287 4.69729 0
M  V30 389 H 37.9713 -3.78792 6.86649 0
M  V30 390 N 35.4744 -0.807222 -1.35358 0
M  V30 391 C 36.4374 -0.223665 -2.28106 0
M  V30 392 C 37.4374 0.589354 -1.4961 0
M  V30 393 O 38.6274 0.407745 -1.69361 0
M  V30 394 C 35.7594 0.688149 -3.33882 0
M  V30 395 H 36.9524 -1.04169 -2.81227 0
M  V30 396 H 34.5054 -0.577921 -1.45223 0
M  V30 397 H 35.2404 1.52984 -2.85948 0
M  V30 398 H 35.0254 0.10687 -3.91954 0
M  V30 399 H 36.5154 1.09075 -4.03104 0
M  V30 400 N 36.9525 1.47285 -0.560781 0
M  V30 401 C 38.1775 2.07359 -0.0410566 0
M  V30 402 C 38.6025 1.41017 1.24483 0
M  V30 403 O 37.9605 0.486368 1.74654 0
M  V30 404 C 38.0085 3.6035 0.134123 0
M  V30 405 O 37.1125 3.94681 1.19587 0
M  V30 406 H 36.4535 0.661887 -0.0529291 0
M  V30 407 H 38.9835 1.89252 -0.777482 0
M  V30 408 H 38.9935 4.0652 0.347207 0
M  V30 409 H 37.6685 4.08034 -0.805047 0
M  V30 410 H 36.2455 3.60251 0.962987 0
M  V30 411 N 38.4306 0.297415 1.54768 0
M  V30 412 C 39.8466 -0.0560823 1.59501 0
M  V30 413 C 40.0466 -1.52725 1.31444 0
M  V30 414 O 39.1026 -2.27947 1.08611 0
M  V30 415 C 40.4156 0.338631 2.98787 0
M  V30 416 C 41.9636 0.287097 3.11681 0
M  V30 417 C 42.4386 0.656579 4.53269 0
M  V30 418 N 43.9296 0.608977 4.59179 0
M  V30 419 C 44.6646 0.867385 5.66802 0
M  V30 420 N 44.1606 1.19157 6.82476 0
M  V30 421 N 45.9536 0.794687 5.56454 0
M  V30 422 H 38.1046 1.25624 1.71267 0
M  V30 423 H 40.3676 0.509057 0.799728 0
M  V30 424 H 40.0736 1.36263 3.2423 0
M  V30 425 H 39.9476 -0.309508 3.75928 0
M  V30 426 H 42.3346 -0.727649 2.85988 0
M  V30 427 H 42.4156 0.969809 2.36703 0
M  V30 428 H 42.0596 1.66912 4.7969 0
M  V30 429 H 41.9896 -0.0481649 5.26578 0
M  V30 430 H 44.4806 0.369198 3.76092 0
M  V30 431 H 44.7936 1.37482 7.60473 0
M  V30 432 H 43.1386 1.22958 6.84037 0
M  V30 433 H 46.3296 0.541098 4.64962 0
M  V30 434 H 46.5026 0.999445 6.40246 0
M  V30 435 N 39.9087 -1.5758 0.0250728 0
M  V30 436 C 41.1567 -1.91255 -0.653151 0
M  V30 437 C 41.4777 -0.901691 -1.729 0
M  V30 438 O 40.7477 0.0573785 -1.95816 0
M  V30 439 H 39.3277 -0.705942 -0.244243 0
M  V30 440 H 41.9897 -1.94767 0.0719209 0
M  V30 441 H 41.0857 -2.91752 -1.10847 0
M  V30 442 N 41.3868 0.248026 -1.55636 0
M  V30 443 C 42.6328 0.97767 -1.77678 0
M  V30 444 C 42.9658 1.85016 -0.590135 0
M  V30 445 O 42.2408 1.90095 0.411611 0
M  V30 446 C 42.5238 1.83914 -3.09593 0
M  V30 447 C 42.3768 0.99491 -4.38659 0
M  V30 448 C 43.6958 2.82183 -3.37729 0
M  V30 449 H 40.8148 0.354005 -0.646413 0
M  V30 450 H 43.4568 0.248253 -1.88371 0
M  V30 451 H 41.6068 2.46104 -3.00608 0
M  V30 452 H 43.2788 0.391789 -4.59633 0
M  V30 453 H 41.5218 0.299231 -4.32767 0
M  V30 454 H 42.1928 1.63145 -5.2734 0
M  V30 455 H 44.6688 2.30129 -3.4667 0
M  V30 456 H 43.5448 3.39582 -4.31249 0
M  V30 457 H 43.8058 3.58588 -2.58586 0
M  V30 458 N 42.8649 1.48995 0.513639 0
M  V30 459 C 44.0899 1.61792 1.29762 0
M  V30 460 C 44.5149 0.284475 1.85936 0
M  V30 461 O 43.8729 -0.746185 1.65232 0
M  V30 462 C 43.9209 2.67993 2.41272 0
M  V30 463 O 43.0249 2.26287 3.44772 0
M  V30 464 H 42.3659 0.541963 0.38363 0
M  V30 465 H 44.8959 1.95097 0.616307 0
M  V30 466 H 44.9059 2.89772 2.87221 0
M  V30 467 H 43.5809 3.64791 1.9975 0
M  V30 468 H 42.1579 2.14788 3.04829 0
M  V30 469 N 44.343 -0.763751 1.37857 0
M  V30 470 C 45.754 -1.3405 1.29952 0
M  V30 471 C 46.105 -1.96138 -0.0492898 0
M  V30 472 O 45.23 -1.94372 -0.951239 0
M  V30 473 C 45.825 -2.43729 2.35333 0
M  V30 474 C 44.384 -2.97151 2.31037 0
M  V30 475 C 43.531 -1.70438 2.18738 0
M  V30 476 H 46.482 -0.563396 1.48363 0
M  V30 477 H 46.503 -3.23412 2.00462 0
M  V30 478 H 46.015 -1.9851 3.33489 0
M  V30 479 H 44.116 -3.46724 1.3643 0
M  V30 480 H 44.229 -3.52221 3.24772 0
M  V30 481 H 42.593 -1.93673 1.65418 0
M  V30 482 H 43.376 -1.27312 3.18821 0
M  V30 483 N 45.8211 -1.22559 -0.990812 0
M  V30 484 C 47.0461 -1.07862 -1.77145 0
M  V30 485 C 47.4711 0.366447 -1.84496 0
M  V30 486 O 46.8291 1.26478 -1.29896 0
M  V30 487 C 46.8771 -1.69686 -3.18181 0
M  V30 488 O 45.9811 -0.951946 -4.01263 0
M  V30 489 H 45.3221 -0.378712 -0.545411 0
M  V30 490 H 47.8521 -1.62399 -1.2445 0
M  V30 491 H 47.8621 -1.74496 -3.68802 0
M  V30 492 H 46.5371 -2.74841 -3.12146 0
M  V30 493 H 45.1141 -0.980011 -3.59792 0
M  V30 494 N 47.2992 1.18797 -1.03562 0
M  V30 495 C 48.2622 2.20464 -0.626769 0
M  V30 496 C 49.2622 1.57721 0.313173 0
M  V30 497 O 50.4522 1.73917 0.0992615 0
M  V30 498 C 47.5842 3.40802 0.0818498 0
M  V30 499 H 48.7772 2.58149 -1.5264 0
M  V30 500 H 46.3302 1.32593 -0.827578 0
M  V30 501 H 47.0652 3.08642 0.995518 0
M  V30 502 H 46.8502 3.8758 -0.593652 0
M  V30 503 H 48.3402 4.16092 0.354584 0
M  V30 504 N 48.7773 0.814389 1.34928 0
M  V30 505 C 50.0023 0.410097 2.03305 0
M  V30 506 C 50.4273 -0.973464 1.60951 0
M  V30 507 O 49.7853 -1.63185 0.789964 0
M  V30 508 C 49.8333 0.51049 3.56968 0
M  V30 509 O 48.9373 -0.473035 4.09678 0
M  V30 510 H 48.2783 0.170088 0.641846 0
M  V30 511 H 50.8083 1.10244 1.72358 0
M  V30 512 H 50.8183 0.383135 4.06197 0
M  V30 513 H 49.4933 1.51963 3.87144 0
M  V30 514 H 48.0703 -0.305272 3.71648 0
M  V30 515 N 50.2554 -1.46986 0.568584 0
M  V30 516 C 51.2184 -2.28624 -0.162366 0
M  V30 517 C 52.2184 -1.37596 -0.832103 0
M  V30 518 O 53.4084 -1.60115 -0.68622 0
M  V30 519 C 50.5404 -3.17596 -1.23878 0
M  V30 520 H 51.7334 -2.94722 0.554899 0
M  V30 521 H 49.2864 -1.52863 0.325976 0
M  V30 522 H 50.0214 -2.56214 -1.98808 0
M  V30 523 H 49.8064 -3.846 -0.763219 0
M  V30 524 H 51.2964 -3.79078 -1.75185 0
M  V30 525 N 51.7335 -0.305618 -1.54608 0
M  V30 526 C 52.9795 0.295595 -2.01241 0
M  V30 527 C 53.3345 1.51171 -1.19018 0
M  V30 528 O 52.6275 1.89832 -0.259684 0
M  V30 529 C 52.8215 0.698983 -3.50498 0
M  V30 530 C 52.6505 -0.476491 -4.47168 0
M  V30 531 C 51.4205 -0.969963 -4.95903 0
M  V30 532 C 53.6185 -1.32294 -4.96994 0
M  V30 533 N 51.6005 -2.11172 -5.76437 0
M  V30 534 C 52.9715 -2.31212 -5.75275 0
M  V30 535 C 55.0265 -1.35278 -4.7917 0
M  V30 536 C 53.7295 -3.32896 -6.37631 0
M  V30 537 C 55.7555 -2.35823 -5.42348 0
M  V30 538 C 55.1175 -3.33469 -6.20466 0
M  V30 539 H 51.2165 0.0724992 -0.778632 0
M  V30 540 H 53.8005 -0.436583 -1.89742 0
M  V30 541 H 51.9715 1.40032 -3.62278 0
M  V30 542 H 53.7035 1.28013 -3.8392 0
M  V30 543 H 50.4585 -0.544178 -4.70463 0
M  V30 544 H 50.8825 -2.68714 -6.21387 0
M  V30 545 H 55.5245 -0.61157 -4.18354 0
M  V30 546 H 53.2425 -4.07933 -6.97579 0
M  V30 547 H 56.8285 -2.38911 -5.30484 0
M  V30 548 H 55.7085 -4.09996 -6.68485 0
M  V30 549 N 53.2116 1.57565 -0.0334293 0
M  V30 550 C 54.6226 1.79746 0.504798 0
M  V30 551 C 54.9736 0.944091 1.71992 0
M  V30 552 O 54.0986 0.155694 2.15839 0
M  V30 553 C 54.6936 3.25997 0.922567 0
M  V30 554 C 53.2526 3.49159 1.40588 0
M  V30 555 C 52.3996 2.74785 0.372633 0
M  V30 556 H 55.3506 1.56565 -0.259436 0
M  V30 557 H 55.3716 3.35945 1.78666 0
M  V30 558 H 54.8836 3.88081 0.0379825 0
M  V30 559 H 52.9846 2.92332 2.31025 0
M  V30 560 H 53.0976 4.57873 1.41028 0
M  V30 561 H 51.4616 2.40391 0.841672 0
M  V30 562 H 52.2446 3.39587 -0.503559 0
M  V30 563 N 54.6897 -0.239769 1.55765 0
M  V30 564 C 55.5997 -1.31831 1.94056 0
M  V30 565 C 56.6157 -1.52275 0.841925 0
M  V30 566 O 57.7917 -1.65759 1.14394 0
M  V30 567 C 54.8567 -2.65156 2.23368 0
M  V30 568 C 53.9177 -2.53173 3.46701 0
M  V30 569 C 53.1507 -3.8014 3.74606 0
M  V30 570 O 53.3737 -4.82343 3.04469 0
M  V30 571 O 52.3077 -3.78344 4.68123 0
M  V30 572 H 56.1337 -1.02347 2.85935 0
M  V30 573 H 53.7187 -0.441123 1.42739 0
M  V30 574 H 55.6007 -3.43929 2.43497 0
M  V30 575 H 54.2757 -2.94358 1.34666 0
M  V30 576 H 53.1827 -1.72662 3.31871 0
M  V30 577 H 54.5157 -2.28915 4.35728 0
M  V30 578 N 56.1678 -1.49265 -0.50573 0
M  V30 579 C 57.0778 -1.68312 -1.63427 0
M  V30 580 C 58.0938 -0.565682 -1.64548 0
M  V30 581 O 59.2698 -0.839801 -1.83055 0
M  V30 582 C 56.3348 -1.74107 -2.99813 0
M  V30 583 C 55.3958 -2.97653 -3.09356 0
M  V30 584 C 54.6288 -3.03163 -4.39236 0
M  V30 585 O 54.8518 -2.16396 -5.27758 0
M  V30 586 O 53.7858 -3.9558 -4.53652 0
M  V30 587 H 57.6118 -2.63907 -1.50289 0
M  V30 588 H 55.1968 -1.32951 -0.681502 0
M  V30 589 H 57.0788 -1.803 -3.80881 0
M  V30 590 H 55.7538 -0.816901 -3.13223 0
M  V30 591 H 54.6608 -2.96981 -2.27493 0
M  V30 592 H 55.9938 -3.89535 -3.00871 0
M  V30 593 N 57.6459 0.756429 -1.3826 0
M  V30 594 C 58.5929 1.87011 -1.35261 0
M  V30 595 C 59.5629 1.64695 -0.215616 0
M  V30 596 O 60.7479 1.864 -0.407399 0
M  V30 597 C 57.8879 3.24275 -1.18068 0
M  V30 598 C 57.0009 3.58442 -2.41129 0
M  V30 599 C 56.1359 4.84994 -2.16689 0
M  V30 600 C 55.1749 5.11939 -3.35537 0
M  V30 601 N 54.3119 6.29685 -3.10549 0
M  V30 602 H 59.1519 1.8891 -2.30472 0
M  V30 603 H 56.6889 0.923373 -1.14509 0
M  V30 604 H 58.6469 4.03479 -1.06116 0
M  V30 605 H 57.2769 3.21711 -0.264973 0
M  V30 606 H 56.3289 2.74103 -2.63764 0
M  V30 607 H 57.6409 3.74283 -3.29717 0
M  V30 608 H 56.7949 5.72135 -2.01857 0
M  V30 609 H 55.5339 4.71286 -1.25462 0
M  V30 610 H 54.5389 4.23268 -3.50891 0
M  V30 611 H 55.7639 5.27546 -4.27635 0
M  V30 612 H 53.7099 6.17306 -2.21967 0
M  V30 613 H 53.6269 6.46014 -3.92686 0
M  V30 614 H 54.8949 7.19722 -2.99367 0
M  V30 615 N 59.124 1.23083 0.984299 0
M  V30 616 C 60.072 1.00593 2.09723 0
M  V30 617 C 61.066 -0.0538014 1.69315 0
M  V30 618 O 62.272 0.0993719 1.79725 0
M  V30 619 H 58.647 0.30817 0.685956 0
M  V30 620 H 60.618 1.95012 2.2586 0
M  V30 621 C 59.367 0.609601 3.42314 0
M  V30 622 H 58.69 1.41675 3.73856 0
M  V30 623 H 60.13 0.491726 4.21139 0
M  V30 624 C 58.589 -0.681745 3.2993 0
M  V30 625 O 59.119 -1.73192 3.62446 0
M  V30 626 N 57.325 -0.656178 2.83095 0
M  V30 627 H 56.872 0.198759 2.56832 0
M  V30 628 H 56.83 -1.52044 2.75191 0
M  V30 629 N 60.6021 -1.18246 1.0419 0
M  V30 630 C 61.8321 -1.91916 0.764961 0
M  V30 631 C 62.2401 -1.76485 -0.681898 0
M  V30 632 O 61.5831 -1.09275 -1.47664 0
M  V30 633 C 61.6451 -3.4373 1.05309 0
M  V30 634 C 61.3091 -3.8294 2.4941 0
M  V30 635 C 62.3061 -3.86621 3.47592 0
M  V30 636 C 59.9911 -4.142 2.84155 0
M  V30 637 C 61.9851 -4.21013 4.78568 0
M  V30 638 C 59.6721 -4.48262 4.15337 0
M  V30 639 C 60.6701 -4.51645 5.12353 0
M  V30 640 O 60.3581 -4.84911 6.41183 0
M  V30 641 H 60.0901 -0.61606 0.278292 0
M  V30 642 H 62.6441 -1.50947 1.39299 0
M  V30 643 H 60.8741 -3.84946 0.367933 0
M  V30 644 H 62.5631 -3.9865 0.763752 0
M  V30 645 H 63.3291 -3.62607 3.22089 0
M  V30 646 H 59.2081 -4.10743 2.09311 0
M  V30 647 H 62.7521 -4.23568 5.54289 0
M  V30 648 H 58.6491 -4.71737 4.40607 0
M  V30 649 H 59.4171 -5.02809 6.45852 0
M  V30 650 N 62.0802 -0.821533 -1.34494 0
M  V30 651 C 63.0302 -0.214793 -2.26986 0
M  V30 652 C 64.0142 0.620125 -1.4847 0
M  V30 653 O 65.2062 0.474933 -1.70509 0
M  V30 654 C 62.3352 0.623566 -3.37589 0
M  V30 655 C 61.4212 -0.221904 -4.23519 0
M  V30 656 N 61.8122 -1.29223 -4.89014 0
M  V30 657 C 60.1102 -0.00600922 -4.46 0
M  V30 658 C 60.8112 -1.80965 -5.52835 0
M  V30 659 N 59.7872 -1.11376 -5.32068 0
M  V30 660 H 63.5892 -1.03354 -2.75128 0
M  V30 661 H 61.1032 -0.6642 -1.48196 0
M  V30 662 H 63.1002 1.0744 -4.02818 0
M  V30 663 H 61.7602 1.44049 -2.90998 0
M  V30 664 H 62.7712 -1.67502 -4.90065 0
M  V30 665 H 59.4482 0.77886 -4.10171 0
M  V30 666 H 60.8382 -2.70502 -6.15043 0
M  V30 667 N 63.5583 1.46682 -0.576371 0
M  V30 668 C 64.4903 2.28341 0.198231 0
M  V30 669 C 65.5033 1.38141 0.861453 0
M  V30 670 O 66.6923 1.62797 0.732082 0
M  V30 671 C 63.7923 3.12986 1.29972 0
M  V30 672 C 62.9653 4.31271 0.729639 0
M  V30 673 C 62.0243 4.97363 1.71803 0
M  V30 674 O 61.0503 5.55156 1.25658 0
M  V30 675 N 62.2523 4.93796 3.05198 0
M  V30 676 H 65.0173 2.9546 -0.502324 0
M  V30 677 H 62.5783 1.56525 -0.413715 0
M  V30 678 H 64.5703 3.54066 1.96008 0
M  V30 679 H 63.1403 2.47984 1.90323 0
M  V30 680 H 62.3603 3.94052 -0.108012 0
M  V30 681 H 63.6483 5.07739 0.328438 0
M  V30 682 H 63.0463 4.48077 3.45317 0
M  V30 683 H 61.6033 5.38837 3.6674 0
M  V30 684 N 65.0364 0.313813 1.54444 0
M  V30 685 C 66.4474 -0.176243 1.85866 0
M  V30 686 C 66.7984 -1.52405 1.23561 0
M  V30 687 O 65.9234 -2.09605 0.538016 0
M  V30 688 C 66.5184 -0.32657 3.37222 0
M  V30 689 C 65.0774 -0.760846 3.6863 0
M  V30 690 C 64.2244 0.123247 2.77026 0
M  V30 691 H 67.1754 0.534418 1.49431 0
M  V30 692 H 67.1964 -1.15908 3.62416 0
M  V30 693 H 66.7084 0.654531 3.82541 0
M  V30 694 H 64.8094 -1.75204 3.28838 0
M  V30 695 H 64.9224 -0.571353 4.75681 0
M  V30 696 H 63.2864 -0.399597 2.51546 0
M  V30 697 H 64.0694 1.10094 3.25168 0
M  V30 698 N 66.5145 -1.57545 0.0417849 0
M  V30 699 C 67.4775 -2.09885 -0.92093 0
M  V30 700 C 68.4775 -1.01648 -1.24596 0
M  V30 701 O 69.6675 -1.27759 -1.1842 0
M  V30 702 C 66.7995 -2.57527 -2.23367 0
M  V30 703 H 67.9925 -2.96236 -0.467382 0
M  V30 704 H 65.5455 -1.5493 -0.206467 0
M  V30 705 H 66.2805 -1.74542 -2.73323 0
M  V30 706 H 66.0655 -3.36613 -2.01083 0
M  V30 707 H 67.5555 -2.98201 -2.92346 0
M  V30 708 N 67.9926 0.231505 -1.5589 0
M  V30 709 C 69.2416 0.955346 -1.7764 0
M  V30 710 C 69.5546 1.85893 -0.608546 0
M  V30 711 O 70.7606 2.62067 -0.70943 0
M  V30 712 C 69.2166 1.74886 -3.14552 0
M  V30 713 C 68.8246 0.891915 -4.39032 0
M  V30 714 C 70.5686 2.46452 -3.45633 0
M  V30 715 C 68.4756 1.68221 -5.66971 0
M  V30 716 H 67.4056 0.360446 -0.662265 0
M  V30 717 H 70.0566 0.209516 -1.823 0
M  V30 718 H 68.4386 2.53723 -3.04041 0
M  V30 719 H 69.6126 0.144793 -4.60572 0
M  V30 720 H 67.9276 0.288863 -4.15397 0
M  V30 721 H 70.5246 3.06061 -4.38441 0
M  V30 722 H 70.8676 3.18841 -2.67668 0
M  V30 723 H 71.4006 1.74613 -3.57428 0
M  V30 724 H 68.1396 1.00178 -6.478 0
M  V30 725 H 67.6596 2.4042 -5.49507 0
M  V30 726 H 69.3386 2.24544 -6.06786 0
M  V30 727 N 69.4707 1.49531 0.497807 0
M  V30 728 C 70.4007 1.6935 1.60757 0
M  V30 729 C 71.3817 0.542218 1.61227 0
M  V30 730 O 72.5667 0.778417 1.77917 0
M  V30 731 C 69.6967 1.76298 2.99226 0
M  V30 732 C 68.6507 2.91248 3.13622 0
M  V30 733 C 67.9767 2.83312 4.53474 0
M  V30 734 C 69.2767 4.3214 2.93346 0
M  V30 735 H 70.9707 2.62263 1.44425 0
M  V30 736 H 68.5167 1.26208 0.693367 0
M  V30 737 H 70.4697 1.88749 3.76765 0
M  V30 738 H 69.1937 0.799871 3.16654 0
M  V30 739 H 67.8527 2.78404 2.38509 0
M  V30 740 H 67.5007 1.84902 4.67782 0
M  V30 741 H 67.2007 3.60465 4.64046 0
M  V30 742 H 68.7247 2.97775 5.33069 0
M  V30 743 H 70.1387 4.45649 3.60652 0
M  V30 744 H 68.5357 5.1054 3.15387 0
M  V30 745 H 69.6057 4.46363 1.89441 0
M  V30 746 N 70.9488 -0.749086 1.3866 0
M  V30 747 C 71.8968 -1.88428 1.36373 0
M  V30 748 C 72.8908 -1.67561 0.248929 0
M  V30 749 O 74.0968 -1.75074 0.41821 0
M  V30 750 H 70.4718 -0.620023 0.42553 0
M  V30 751 H 72.4428 -1.87473 2.32156 0
M  V30 752 C 71.1918 -3.25961 1.21014 0
M  V30 753 H 70.5148 -3.42607 2.06059 0
M  V30 754 H 71.9548 -4.05625 1.23469 0
M  V30 755 C 70.4138 -3.36799 -0.0825941 0
M  V30 756 O 70.9438 -3.87517 -1.05797 0
M  V30 757 N 69.1498 -2.90258 -0.140939 0
M  V30 758 H 68.6968 -2.49174 0.653477 0
M  V30 759 H 68.6548 -2.97889 -1.00545 0
M  V30 760 N 72.4269 -1.23603 -0.977757 0
M  V30 761 C 73.6519 -1.09735 -1.75991 0
M  V30 762 C 74.0769 0.346858 -1.84874 0
M  V30 763 O 73.4349 1.25093 -1.3123 0
M  V30 764 C 73.4829 -1.73051 -3.16363 0
M  V30 765 O 72.5869 -0.994452 -4.0023 0
M  V30 766 H 71.9279 -0.384476 -0.541364 0
M  V30 767 H 74.4579 -1.6371 -1.2272 0
M  V30 768 H 74.4679 -1.78398 -3.66931 0
M  V30 769 H 73.1429 -2.78137 -3.09213 0
M  V30 770 H 71.7199 -1.01812 -3.58732 0
M  V30 771 N 73.905 1.17692 -1.04816 0
M  V30 772 C 75.13 1.92327 -0.776207 0
M  V30 773 C 75.555 1.76082 0.661581 0
M  V30 774 O 74.913 1.076 1.45917 0
M  V30 775 C 74.961 3.41539 -1.15687 0
M  V30 776 O 74.065 4.11402 -0.286775 0
M  V30 777 H 73.406 0.599735 -0.284981 0
M  V30 778 H 75.936 1.49201 -1.4 0
M  V30 779 H 75.946 3.92269 -1.12202 0
M  V30 780 H 74.621 3.52684 -2.20425 0
M  V30 781 H 73.198 3.70939 -0.381903 0
M  V30 782 N 75.3831 0.828654 1.34056 0
M  V30 783 C 76.3461 0.259927 2.27721 0
M  V30 784 C 77.3461 -0.565478 1.50529 0
M  V30 785 O 78.5361 -0.38075 1.69988 0
M  V30 786 C 75.6681 -0.634944 3.34935 0
M  V30 787 H 76.8611 1.0863 2.79534 0
M  V30 788 H 74.4141 0.600951 1.44285 0
M  V30 789 H 75.1491 -1.48416 2.88346 0
M  V30 790 H 74.9341 -0.0444999 3.92075 0
M  V30 791 H 76.4241 -1.02648 4.04788 0
M  V30 792 N 76.8612 -1.46375 0.584142 0
M  V30 793 C 77.7912 -2.33103 -0.136037 0
M  V30 794 C 78.7722 -1.45431 -0.882255 0
M  V30 795 O 79.9572 -1.74246 -0.857434 0
M  V30 796 C 77.0872 -3.27731 -1.14933 0
M  V30 797 C 76.0412 -4.24855 -0.517862 0
M  V30 798 C 75.3672 -5.09001 -1.63773 0
M  V30 799 C 76.6672 -5.19439 0.545886 0
M  V30 800 H 78.3612 -2.93568 0.588086 0
M  V30 801 H 75.9072 -1.41166 0.284259 0
M  V30 802 H 77.8602 -3.87261 -1.66153 0
M  V30 803 H 76.5842 -2.65377 -1.90375 0
M  V30 804 H 75.2432 -3.6659 -0.0267361 0
M  V30 805 H 74.8912 -4.43031 -2.38185 0
M  V30 806 H 74.5912 -5.74777 -1.22085 0
M  V30 807 H 76.1152 -5.71396 -2.15266 0
M  V30 808 H 77.5292 -5.73177 0.118704 0
M  V30 809 H 75.9262 -5.93566 0.88317 0
M  V30 810 H 76.9962 -4.63285 1.43162 0
M  V30 811 N 78.3393 -0.321999 -1.54275 0
M  V30 812 C 79.7553 0.0306999 -1.5957 0
M  V30 813 C 79.9553 1.50614 -1.33857 0
M  V30 814 O 79.0113 2.2619 -1.12223 0
M  V30 815 C 80.3243 -0.386122 -2.98211 0
M  V30 816 C 81.8723 -0.336647 -3.11184 0
M  V30 817 C 82.3473 -0.728607 -4.52167 0
M  V30 818 N 83.8383 -0.681952 -4.58152 0
M  V30 819 C 84.5733 -0.957449 -5.6535 0
M  V30 820 N 84.0693 -1.3 -6.80494 0
M  V30 821 N 85.8623 -0.883113 -5.55119 0
M  V30 822 H 78.0133 -1.28332 -1.69247 0
M  V30 823 H 80.2763 -0.521716 -0.791528 0
M  V30 824 H 79.9823 -1.41404 -3.22022 0
M  V30 825 H 79.8563 0.249662 -3.76373 0
M  V30 826 H 82.2433 0.682058 -2.8711 0
M  V30 827 H 82.3243 -1.00734 -2.3513 0
M  V30 828 H 81.9683 -1.74522 -4.76974 0
M  V30 829 H 81.8983 -0.0356152 -5.26588 0
M  V30 830 H 84.3893 -0.428985 -3.75457 0
M  V30 831 H 84.7023 -1.49563 -7.58189 0
M  V30 832 H 83.0473 -1.33824 -6.81994 0
M  V30 833 H 86.2383 -0.615001 -4.64042 0
M  V30 834 H 86.4113 -1.10118 -6.38575 0
M  V30 835 N 79.8174 1.5752 -0.0501392 0
M  V30 836 C 80.7494 2.08413 0.95376 0
M  V30 837 C 81.7624 1.01175 1.27544 0
M  V30 838 O 82.9514 1.28744 1.23641 0
M  V30 839 C 80.0514 2.51138 2.27559 0
M  V30 840 C 79.2244 3.817 2.13598 0
M  V30 841 C 78.2834 4.10749 3.28895 0
M  V30 842 O 77.3094 4.80685 3.04845 0
M  V30 843 N 78.5114 3.62579 4.5334 0
M  V30 844 H 81.2764 2.95165 0.519383 0
M  V30 845 H 78.8374 1.61327 0.136127 0
M  V30 846 H 80.8294 2.67648 3.03557 0
M  V30 847 H 79.3994 1.6964 2.62567 0
M  V30 848 H 78.6194 3.74782 1.22197 0
M  V30 849 H 79.9074 4.67201 2.01496 0
M  V30 850 H 79.3054 3.06039 4.75769 0
M  V30 851 H 77.8624 3.84329 5.26436 0
M  V30 852 N 81.2955 -0.223234 1.56011 0
M  V30 853 C 82.5445 -0.945912 1.78144 0
M  V30 854 C 82.8575 -1.85567 0.618396 0
M  V30 855 O 84.0635 -2.61688 0.723318 0
M  V30 856 C 82.5195 -1.73216 3.15475 0
M  V30 857 C 82.1275 -0.868619 4.39499 0
M  V30 858 C 83.8715 -2.44615 3.46935 0
M  V30 859 C 81.7785 -1.65212 5.67855 0
M  V30 860 H 80.7085 -0.356929 0.664167 0
M  V30 861 H 83.3595 -0.199845 1.82409 0
M  V30 862 H 81.7415 -2.52107 3.05382 0
M  V30 863 H 82.9155 -0.120366 4.60643 0
M  V30 864 H 81.2305 -0.26683 4.15544 0
M  V30 865 H 83.8275 -3.03732 4.40058 0
M  V30 866 H 84.1705 -3.17417 2.69355 0
M  V30 867 H 84.7035 -1.72715 3.58349 0
M  V30 868 H 81.4425 -0.967407 6.48322 0
M  V30 869 H 80.9625 -2.37503 5.50774 0
M  V30 870 H 82.6415 -2.21322 6.07968 0
M  V30 871 N 82.7736 -1.49793 -0.48987 0
M  V30 872 C 83.7366 -1.66752 -1.57246 0
M  V30 873 C 84.7366 -0.538867 -1.51502 0
M  V30 874 O 85.9266 -0.805545 -1.54456 0
M  V30 875 C 83.0586 -1.67528 -2.96896 0
M  V30 876 H 84.2516 -2.63321 -1.43534 0
M  V30 877 H 81.8046 -1.38992 -0.714914 0
M  V30 878 H 82.5396 -0.725837 -3.16073 0
M  V30 879 H 82.3246 -2.49504 -3.02473 0
M  V30 880 H 83.8146 -1.82667 -3.7553 0
M  V30 881 N 84.2517 0.741722 -1.39055 0
M  V30 882 C 85.1617 1.88621 -1.39496 0
M  V30 883 C 86.1777 1.71557 -0.290578 0
M  V30 884 O 87.3537 1.94275 -0.530954 0
M  V30 885 C 84.4187 3.24134 -1.23037 0
M  V30 886 C 83.4797 3.5364 -2.43387 0
M  V30 887 C 82.7127 4.82687 -2.27703 0
M  V30 888 O 82.9357 5.55922 -1.27696 0
M  V30 889 O 81.8697 5.1194 -3.16545 0
M  V30 890 H 85.6957 1.91203 -2.35956 0
M  V30 891 H 83.2807 0.888625 -1.20099 0
M  V30 892 H 85.1627 4.0513 -1.15964 0
M  V30 893 H 83.8377 3.22337 -0.296691 0
M  V30 894 H 82.7447 2.72758 -2.56035 0
M  V30 895 H 84.0777 3.60209 -3.35425 0
M  V30 896 N 85.7298 1.2412 0.971189 0
M  V30 897 C 86.9778 1.07668 1.71032 0
M  V30 898 C 87.2988 -0.385797 1.91146 0
M  V30 899 O 86.5688 -1.27569 1.4867 0
M  V30 900 H 85.1488 0.395429 0.633755 0
M  V30 901 H 87.8108 1.55984 1.16855 0
M  V30 902 H 86.9068 1.57195 2.69622 0
M  V30 903 N 87.2079 -1.17134 1.05439 0
M  V30 904 C 88.4359 -1.91372 0.786414 0
M  V30 905 C 88.8509 -1.76955 -0.658202 0
M  V30 906 O 88.2079 -1.10838 -1.44987 0
M  V30 907 C 88.2589 -3.42356 1.1608 0
M  V30 908 O 87.9799 -3.56332 2.54871 0
M  V30 909 C 89.4809 -4.33663 0.919322 0
M  V30 910 H 86.7009 -0.607118 0.285743 0
M  V30 911 H 89.2449 -1.48525 1.40572 0
M  V30 912 H 87.3999 -3.82939 0.586191 0
M  V30 913 H 87.8139 -4.49896 2.69618 0
M  V30 914 H 89.2879 -5.38099 1.231 0
M  V30 915 H 89.7649 -4.38959 -0.145359 0
M  V30 916 H 90.3709 -3.98796 1.47789 0
M  V30 917 N 88.686 -0.835752 -1.33615 0
M  V30 918 C 89.911 -0.442389 -2.02627 0
M  V30 919 C 90.336 0.947735 -1.62479 0
M  V30 920 O 89.694 1.61907 -0.815826 0
M  V30 921 C 89.742 -0.567216 -3.56111 0
M  V30 922 O 88.846 0.407799 -4.10379 0
M  V30 923 H 88.187 -0.180278 -0.639059 0
M  V30 924 H 90.717 -1.12972 -1.70583 0
M  V30 925 H 90.727 -0.447708 -4.05536 0
M  V30 926 H 89.402 -1.58103 -3.84677 0
M  V30 927 H 87.979 0.246107 -3.72087 0
M  V30 928 N 90.1641 1.46063 -0.591896 0
M  V30 929 C 91.4131 2.01547 -0.0786637 0
M  V30 930 C 91.7261 1.46796 1.29268 0
M  V30 931 O 92.9321 1.94157 1.89777 0
M  V30 932 C 91.3881 3.59787 -0.0900024 0
M  V30 933 C 90.9961 4.23534 -1.46023 0
M  V30 934 C 92.7401 4.22895 0.368806 0
M  V30 935 C 90.6471 5.73881 -1.4288 0
M  V30 936 H 89.5771 0.753564 -0.0256388 0
M  V30 937 H 92.2281 1.677 -0.744905 0
M  V30 938 H 90.6101 3.90752 0.642586 0
M  V30 939 H 91.7841 4.04167 -2.21328 0
M  V30 940 H 90.0991 3.72558 -1.85982 0
M  V30 941 H 92.6961 5.33116 0.411258 0
M  V30 942 H 93.0391 3.9247 1.38827 0
M  V30 943 H 93.5721 3.9659 -0.31001 0
M  V30 944 H 90.3111 6.0898 -2.42536 0
M  V30 945 H 89.8311 5.95486 -0.718095 0
M  V30 946 H 91.5101 6.36776 -1.14565 0
M  V30 947 N 91.6422 0.330177 1.54103 0
M  V30 948 C 92.8672 -0.274893 2.0557 0
M  V30 949 C 93.2922 -1.44487 1.20437 0
M  V30 950 O 92.6502 -1.80021 0.214991 0
M  V30 951 C 92.6982 -0.68079 3.54115 0
M  V30 952 O 91.8022 -1.7824 3.71893 0
M  V30 953 H 91.1432 -0.0483849 0.662235 0
M  V30 954 H 93.6732 0.480508 1.98878 0
M  V30 955 H 93.6832 -0.961635 3.96505 0
M  V30 956 H 92.3582 0.174903 4.15532 0
M  V30 957 H 90.9352 -1.49985 3.41407 0
M  V30 958 N 93.1203 -1.57491 0.0584922 0
M  V30 959 C 94.0303 -2.15448 -0.928414 0
M  V30 960 C 95.0463 -1.11416 -1.3365 0
M  V30 961 O 96.2223 -1.4362 -1.41193 0
M  V30 962 C 93.2873 -2.69393 -2.18239 0
M  V30 963 C 92.3483 -3.88249 -1.83196 0
M  V30 964 C 91.5813 -4.39613 -3.02616 0
M  V30 965 O 91.8043 -3.90023 -4.16219 0
M  V30 966 O 90.7383 -5.31111 -2.83204 0
M  V30 967 H 94.5643 -3.00112 -0.465483 0
M  V30 968 H 92.1493 -1.48499 -0.163826 0
M  V30 969 H 94.0313 -3.04026 -2.91798 0
M  V30 970 H 92.7063 -1.87796 -2.63656 0
M  V30 971 H 91.6133 -3.58492 -1.06931 0
M  V30 972 H 92.9463 -4.71098 -1.42573 0
M  V30 973 N 94.5984 0.214957 -1.56127 0
M  V30 974 C 95.5314 1.29382 -1.87977 0
M  V30 975 C 96.5094 1.44897 -0.737807 0
M  V30 976 O 97.6934 1.60605 -0.986833 0
M  V30 977 C 94.8204 2.66325 -2.09258 0
M  V30 978 C 93.8664 2.67789 -3.31951 0
M  V30 979 S 94.6994 2.21198 -4.8768 0
M  V30 980 C 95.8554 3.60003 -5.12004 0
M  V30 981 H 96.0884 1.02173 -2.79192 0
M  V30 982 H 93.6214 0.417516 -1.48648 0
M  V30 983 H 95.5794 3.45162 -2.22201 0
M  V30 984 H 94.2404 2.90755 -1.18829 0
M  V30 985 H 93.4334 3.68436 -3.43906 0
M  V30 986 H 93.0354 1.9702 -3.17898 0
M  V30 987 H 95.3274 4.55739 -5.01307 0
M  V30 988 H 96.2704 3.52959 -6.13861 0
M  V30 989 H 96.6784 3.53996 -4.39712 0
M  V30 990 N 96.0765 1.50051 0.48192 0
M  V30 991 C 97.3225 1.61706 1.2338 0
M  V30 992 C 97.6775 0.308488 1.89911 0
M  V30 993 O 96.9705 -0.692798 1.78636 0
M  V30 994 C 97.1645 2.72717 2.30998 0
M  V30 995 C 96.9935 4.14242 1.75024 0
M  V30 996 C 95.7635 4.80786 1.55476 0
M  V30 997 C 97.9615 4.98846 1.25128 0
M  V30 998 N 95.9435 6.06563 0.946311 0
M  V30 999 C 97.3145 6.15258 0.765382 0
M  V30 1000 C 99.3695 4.84702 1.13881 0
M  V30 1001 C 98.0725 7.19079 0.178113 0
M  V30 1002 C 100.098 5.8869 0.565486 0
M  V30 1003 C 99.4605 7.04343 0.0899105 0
M  V30 1004 H 95.5595 0.645958 0.440753 0
M  V30 1005 H 98.1435 1.8713 0.537624 0
M  V30 1006 H 96.3145 2.49033 2.98055 0
M  V30 1007 H 98.0465 2.73789 2.9803 0
M  V30 1008 H 94.8015 4.37899 1.80392 0
M  V30 1009 H 95.2255 6.73767 0.660812 0
M  V30 1010 H 99.8675 3.95583 1.49244 0
M  V30 1011 H 97.5855 8.07882 -0.187749 0
M  V30 1012 H 101.171 5.79808 0.480974 0
M  V30 1013 H 100.051 7.83433 -0.346782 0
M  V30 1014 N 97.5546 -0.734337 1.39446 0
M  V30 1015 C 98.4866 -1.85861 1.34121 0
M  V30 1016 C 99.4996 -1.60871 0.249864 0
M  V30 1017 O 100.689 -1.71093 0.508865 0
M  V30 1018 C 97.7886 -3.21899 1.05991 0
M  V30 1019 C 96.9616 -3.74239 2.26415 0
M  V30 1020 C 96.0206 -4.88841 1.94733 0
M  V30 1021 O 95.0466 -5.02468 2.67422 0
M  V30 1022 N 96.2486 -5.73261 0.913884 0
M  V30 1023 H 99.0136 -1.90934 2.31007 0
M  V30 1024 H 96.5746 -0.915102 1.33557 0
M  V30 1025 H 98.5666 -3.96136 0.828147 0
M  V30 1026 H 97.1366 -3.12091 0.178361 0
M  V30 1027 H 96.3566 -2.91347 2.65539 0
M  V30 1028 H 97.6446 -4.05942 3.06738 0
M  V30 1029 H 97.0426 -5.64842 0.311476 0
M  V30 1030 H 95.5996 -6.47563 0.742015 0
M  V30 1031 N 99.0327 -1.24633 -0.964593 0
M  V30 1032 C 99.9807 -1.03917 -2.08096 0
M  V30 1033 C 100.975 0.0268581 -1.69379 0
M  V30 1034 O 102.181 -0.127952 -1.79545 0
M  V30 1035 H 98.5557 -0.319044 -0.680966 0
M  V30 1036 H 100.527 -1.98581 -2.22729 0
M  V30 1037 C 99.2757 -0.663983 -3.41301 0
M  V30 1038 H 98.5987 -1.47605 -3.71555 0
M  V30 1039 H 100.039 -0.558663 -4.20303 0
M  V30 1040 C 98.4977 0.629169 -3.30973 0
M  V30 1041 O 99.0277 1.67404 -3.65156 0
M  V30 1042 N 97.2337 0.611057 -2.84103 0
M  V30 1043 H 96.7807 -0.239593 -2.56483 0
M  V30 1044 H 96.7387 1.47647 -2.77575 0
M  V30 1045 N 100.511 1.16574 -1.06058 0
M  V30 1046 C 101.788 1.83048 -0.689416 0
M  V30 1047 C 102.168 1.94122 0.829443 0
M  V30 1048 O 101.516 1.48249 1.7388 0
M  V30 1049 C 101.726 3.20186 -1.38859 0
M  V30 1050 C 103.074 3.95989 -1.53226 0
M  V30 1051 O 104.098 3.29696 -1.3483 0
M  V30 1052 O 102.957 5.14813 -1.83384 0
M  V30 1053 H 100.051 0.790258 -0.243764 0
M  V30 1054 H 102.597 1.23797 -1.16071 0
M  V30 1055 H 101.369 3.07146 -2.4244 0
M  V30 1056 H 100.992 3.87112 -0.907216 0
M  V30 1057 N 101.989 0.842826 1.3317 0
M  V30 1058 C 102.919 0.294028 2.31641 0
M  V30 1059 C 103.9 -0.600401 1.59151 0
M  V30 1060 O 105.085 -0.523124 1.87022 0
M  V30 1061 C 102.215 -0.528416 3.43257 0
M  V30 1062 C 101.169 0.27056 4.27144 0
M  V30 1063 C 100.495 -0.675881 5.30411 0
M  V30 1064 C 101.795 1.48981 5.00602 0
M  V30 1065 H 103.489 1.11681 2.77791 0
M  V30 1066 H 101.035 0.538478 1.33553 0
M  V30 1067 H 102.988 -0.922674 4.11175 0
M  V30 1068 H 101.712 -1.38445 2.95805 0
M  V30 1069 H 100.371 0.646427 3.60856 0
M  V30 1070 H 100.019 -1.52842 4.79216 0
M  V30 1071 H 99.7189 -0.145374 5.8742 0
M  V30 1072 H 101.243 -1.06757 6.01195 0
M  V30 1073 H 102.657 1.16849 5.61266 0
M  V30 1074 H 101.054 1.95739 5.6728 0
M  V30 1075 H 102.124 2.25746 4.29147 0
M  V30 1076 N 103.467 -1.45747 0.599634 0
M  V30 1077 C 104.399 -2.28628 -0.161879 0
M  V30 1078 C 105.412 -1.39494 -0.839367 0
M  V30 1079 O 106.601 -1.63941 -0.706089 0
M  V30 1080 C 103.701 -3.15014 -1.24976 0
M  V30 1081 C 102.874 -4.32378 -0.660935 0
M  V30 1082 C 101.933 -5.00033 -1.63869 0
M  V30 1083 O 100.959 -5.57085 -1.1681 0
M  V30 1084 N 102.161 -4.98589 -2.97303 0
M  V30 1085 H 104.926 -2.94624 0.549265 0
M  V30 1086 H 102.487 -1.55847 0.438565 0
M  V30 1087 H 104.479 -3.5714 -1.9035 0
M  V30 1088 H 103.049 -2.5098 -1.86354 0
M  V30 1089 H 102.269 -3.9383 0.170688 0
M  V30 1090 H 103.557 -5.08197 -0.247619 0
M  V30 1091 H 102.955 -4.53514 -3.38145 0
M  V30 1092 H 101.512 -5.44603 -3.58121 0
M  V30 1093 N 104.945 -0.338344 -1.53925 0
M  V30 1094 C 106.356 0.146651 -1.86123 0
M  V30 1095 C 106.707 1.5042 -1.2597 0
M  V30 1096 O 105.832 2.08723 -0.571294 0
M  V30 1097 C 106.427 0.272879 -3.37699 0
M  V30 1098 C 104.986 0.702103 -3.69794 0
M  V30 1099 C 104.133 -0.167304 -2.76795 0
M  V30 1100 H 107.084 -0.558123 -1.48562 0
M  V30 1101 H 107.105 1.10128 -3.64214 0
M  V30 1102 H 106.617 -0.715307 -3.81451 0
M  V30 1103 H 104.718 1.6995 -3.31584 0
M  V30 1104 H 104.831 0.495604 -4.7653 0
M  V30 1105 H 103.195 0.359527 -2.5215 0
M  V30 1106 H 103.978 -1.15253 -3.23375 0
M  V30 1107 N 106.423 1.57458 -0.0668435 0
M  V30 1108 C 107.353 2.15468 0.899764 0
M  V30 1109 C 108.334 1.08042 1.31381 0
M  V30 1110 O 109.519 1.36054 1.38574 0
M  V30 1111 C 106.649 2.71232 2.16911 0
M  V30 1112 C 105.603 3.83781 1.89463 0
M  V30 1113 C 104.929 4.26127 3.22986 0
M  V30 1114 C 106.229 5.08238 1.20381 0
M  V30 1115 H 107.923 2.96488 0.416529 0
M  V30 1116 H 105.469 1.4262 0.198908 0
M  V30 1117 H 107.422 3.10458 2.84945 0
M  V30 1118 H 106.146 1.87426 2.67468 0
M  V30 1119 H 104.805 3.45051 1.23836 0
M  V30 1120 H 104.453 3.39249 3.71374 0
M  V30 1121 H 104.153 5.01993 3.05413 0
M  V30 1122 H 105.677 4.67966 3.92225 0
M  V30 1123 H 107.091 5.44811 1.78475 0
M  V30 1124 H 105.488 5.89349 1.13083 0
M  V30 1125 H 106.558 4.84558 0.182153 0
M  V30 1126 N 107.901 -0.206675 1.56239 0
M  V30 1127 C 108.831 -1.25909 1.96645 0
M  V30 1128 C 109.812 -1.48097 0.836734 0
M  V30 1129 O 110.997 -1.6003 1.10019 0
M  V30 1130 C 108.127 -2.6058 2.29599 0
M  V30 1131 C 107.081 -2.53024 3.452 0
M  V30 1132 C 106.407 -3.91861 3.63798 0
M  V30 1133 C 107.707 -2.06524 4.79734 0
M  V30 1134 H 109.401 -0.923369 2.84806 0
M  V30 1135 H 106.947 -0.442735 1.37025 0
M  V30 1136 H 108.9 -3.34375 2.56459 0
M  V30 1137 H 107.624 -2.95869 1.38307 0
M  V30 1138 H 106.283 -1.81684 3.18412 0
M  V30 1139 H 105.931 -4.24483 2.69857 0
M  V30 1140 H 105.631 -3.87683 4.4156 0
M  V30 1141 H 107.155 -4.67296 3.93022 0
M  V30 1142 H 108.569 -2.70072 5.05702 0
M  V30 1143 H 106.966 -2.13374 5.60885 0
M  V30 1144 H 108.036 -1.01802 4.74093 0
M  V30 1145 N 109.379 -1.50304 -0.473955 0
M  V30 1146 C 110.628 -1.60392 -1.22301 0
M  V30 1147 C 110.941 -0.308411 -1.93153 0
M  V30 1148 O 112.147 -0.288156 -2.69966 0
M  V30 1149 C 110.603 -2.83109 -2.2221 0
M  V30 1150 C 110.211 -4.19524 -1.57173 0
M  V30 1151 C 111.955 -3.0254 -2.97775 0
M  V30 1152 C 109.862 -5.33431 -2.55353 0
M  V30 1153 H 108.792 -0.597286 -0.460179 0
M  V30 1154 H 111.443 -1.76731 -0.493803 0
M  V30 1155 H 109.825 -2.60322 -2.9841 0
M  V30 1156 H 110.999 -4.52554 -0.867824 0
M  V30 1157 H 109.314 -4.05674 -0.939002 0
M  V30 1158 H 111.911 -3.84811 -3.71248 0
M  V30 1159 H 112.254 -2.14154 -3.56992 0
M  V30 1160 H 112.787 -3.25494 -2.28688 0
M  V30 1161 H 109.526 -6.23962 -2.00878 0
M  V30 1162 H 109.046 -5.04823 -3.23904 0
M  V30 1163 H 110.725 -5.63887 -3.17239 0
M  V30 1164 N 110.857 0.726932 -1.39834 0
M  V30 1165 C 111.767 1.87131 -1.41489 0
M  V30 1166 C 112.783 1.71239 -0.308757 0
M  V30 1167 O 113.959 1.93701 -0.551529 0
M  V30 1168 C 111.024 3.22811 -1.26468 0
M  V30 1169 C 110.085 3.51039 -2.47124 0
M  V30 1170 C 109.318 4.80245 -2.3281 0
M  V30 1171 O 109.541 5.54537 -1.33585 0
M  V30 1172 O 108.475 5.08554 -3.21957 0
M  V30 1173 H 112.301 1.8869 -2.3797 0
M  V30 1174 H 109.886 0.875837 -1.21035 0
M  V30 1175 H 111.768 4.03877 -1.20255 0
M  V30 1176 H 110.443 3.22005 -0.330862 0
M  V30 1177 H 109.35 2.70027 -2.58914 0
M  V30 1178 H 110.683 3.56632 -3.39227 0
M  V30 1179 N 112.336 1.25143 0.95797 0
M  V30 1180 C 113.752 1.01892 1.22842 0
M  V30 1181 C 113.952 -0.266311 1.99732 0
M  V30 1182 O 113.008 -0.979913 2.3271 0
M  V30 1183 C 114.321 2.24004 2.00606 0
M  V30 1184 C 115.869 2.28731 2.13662 0
M  V30 1185 C 116.344 3.5049 2.94823 0
M  V30 1186 N 117.835 3.50866 3.02403 0
M  V30 1187 C 118.57 4.4174 3.65586 0
M  V30 1188 N 118.066 5.42882 4.30408 0
M  V30 1189 N 119.859 4.29429 3.62694 0
M  V30 1190 H 112.01 2.07718 0.443493 0
M  V30 1191 H 114.273 0.912031 0.258657 0
M  V30 1192 H 113.979 3.17395 1.51503 0
M  V30 1193 H 113.853 2.26907 3.01319 0
M  V30 1194 H 116.24 1.35865 2.61963 0
M  V30 1195 H 116.321 2.29848 1.12265 0
M  V30 1196 H 115.965 4.43676 2.47213 0
M  V30 1197 H 115.895 3.46617 3.96439 0
M  V30 1198 H 118.386 2.777 2.56302 0
M  V30 1199 H 118.699 6.0844 4.76467 0
M  V30 1200 H 117.044 5.46758 4.29047 0
M  V30 1201 H 120.235 3.49643 3.11236 0
M  V30 1202 H 120.408 5.00448 4.1165 0
M  V30 1203 N 113.814 -1.1601 1.06675 0
M  V30 1204 C 115.044 -1.90251 0.805497 0
M  V30 1205 C 115.452 -1.77891 -0.64431 0
M  V30 1206 O 114.795 -1.12383 -1.45313 0
M  V30 1207 C 114.857 -3.41419 1.12576 0
M  V30 1208 C 114.521 -3.77564 2.57477 0
M  V30 1209 C 115.518 -3.79161 3.55715 0
M  V30 1210 C 113.203 -4.08079 2.92877 0
M  V30 1211 C 115.197 -4.10767 4.8739 0
M  V30 1212 C 112.884 -4.39351 4.24751 0
M  V30 1213 C 113.882 -4.40675 5.21818 0
M  V30 1214 O 113.57 -4.71202 6.51325 0
M  V30 1215 H 113.302 -0.610018 0.291297 0
M  V30 1216 H 115.856 -1.47958 1.4247 0
M  V30 1217 H 114.086 -3.84079 0.449503 0
M  V30 1218 H 115.775 -3.9694 0.84814 0
M  V30 1219 H 116.541 -3.55693 3.29708 0
M  V30 1220 H 112.42 -4.06211 2.17976 0
M  V30 1221 H 115.964 -4.11715 5.63148 0
M  V30 1222 H 111.861 -4.62285 4.50514 0
M  V30 1223 H 112.629 -4.88996 6.56373 0
M  V30 1224 N 115.292 -0.849877 -1.32721 0
M  V30 1225 C 116.703 -0.506188 -1.79707 0
M  V30 1226 C 117.054 0.975627 -1.70223 0
M  V30 1227 O 116.179 1.76078 -1.25799 0
M  V30 1228 C 116.774 -0.912044 -3.26293 0
M  V30 1229 C 115.333 -0.620326 -3.71253 0
M  V30 1230 C 114.48 -1.11439 -2.53922 0
M  V30 1231 H 117.431 -1.03754 -1.20087 0
M  V30 1232 H 117.452 -0.226493 -3.79825 0
M  V30 1233 H 116.964 -1.99057 -3.33164 0
M  V30 1234 H 115.065 0.447674 -3.69901 0
M  V30 1235 H 115.178 -1.18327 -4.64258 0
M  V30 1236 H 113.542 -0.534834 -2.49021 0
M  V30 1237 H 114.325 -2.19992 -2.6355 0
M  V30 1238 N 116.77 1.45427 -0.607355 0
M  V30 1239 C 118.018 2.01841 -0.102253 0
M  V30 1240 C 118.339 1.47832 1.27164 0
M  V30 1241 O 117.609 0.672497 1.83995 0
M  V30 1242 H 116.189 0.746188 -0.0348101 0
M  V30 1243 H 118.851 1.78229 -0.7887 0
M  V30 1244 H 117.947 3.12057 -0.0518585 0
M  V30 1245 N 118.248 0.346503 1.53744 0
M  V30 1246 C 119.473 -0.253074 2.0585 0
M  V30 1247 C 119.898 -1.43202 1.21962 0
M  V30 1248 O 119.256 -1.79783 0.234073 0
M  V30 1249 C 119.304 -0.643193 3.54817 0
M  V30 1250 O 118.408 -1.74286 3.73762 0
M  V30 1251 H 117.749 -0.0413583 0.662711 0
M  V30 1252 H 120.279 0.501574 1.98357 0
M  V30 1253 H 120.289 -0.919526 3.97503 0
M  V30 1254 H 118.964 0.218966 4.15323 0
M  V30 1255 H 117.541 -1.46356 3.42979 0
M  V30 1256 N 119.726 -1.57421 0.075193 0
M  V30 1257 C 121.137 -1.81021 -0.456964 0
M  V30 1258 C 121.488 -0.98936 -1.69429 0
M  V30 1259 O 120.613 -0.212865 -2.15351 0
M  V30 1260 C 121.208 -3.28329 -0.83581 0
M  V30 1261 C 119.767 -3.52764 -1.31281 0
M  V30 1262 C 118.914 -2.75676 -0.299648 0
M  V30 1263 H 121.865 -1.55822 0.300856 0
M  V30 1264 H 121.886 -3.40564 -1.69696 0
M  V30 1265 H 121.398 -3.88046 0.0649238 0
M  V30 1266 H 119.499 -2.98355 -2.23193 0
M  V30 1267 H 119.612 -4.61451 -1.28839 0
M  V30 1268 H 117.976 -2.42538 -0.777641 0
M  V30 1269 H 118.759 -3.38132 0.593417 0
M  V30 1270 N 121.204 0.198386 -1.56346 0
M  V30 1271 C 122.452 0.91747 -1.80075 0
M  V30 1272 C 122.773 1.83929 -0.647692 0
M  V30 1273 O 122.043 1.93029 0.334166 0
M  V30 1274 H 120.623 0.341774 -0.664228 0
M  V30 1275 H 123.285 0.204684 -1.93822 0
M  V30 1276 H 122.381 1.51055 -2.7311 0
M  V30 1277 N 122.682 1.50554 0.465978 0
M  V30 1278 C 123.907 1.65838 1.24549 0
M  V30 1279 C 124.332 0.343486 1.84937 0
M  V30 1280 O 123.69 -0.69324 1.67523 0
M  V30 1281 C 123.738 2.75533 2.32624 0
M  V30 1282 O 122.842 2.37142 3.37398 0
M  V30 1283 H 122.183 0.553893 0.366194 0
M  V30 1284 H 124.713 1.96959 0.553927 0
M  V30 1285 H 124.723 2.98763 2.77857 0
M  V30 1286 H 123.398 3.70962 1.88043 0
M  V30 1287 H 121.975 2.24377 2.97841 0
M  V30 1288 N 124.16 -0.719506 1.40217 0
M  V30 1289 C 125.39 -1.50646 1.41384 0
M  V30 1290 C 125.798 -1.89197 0.0107743 0
M  V30 1291 O 125.141 -1.55709 -0.974708 0
M  V30 1292 C 125.203 -2.81405 2.23722 0
M  V30 1293 C 124.867 -2.65199 3.72181 0
M  V30 1294 C 125.864 -2.32717 4.64907 0
M  V30 1295 C 123.549 -2.81586 4.1595 0
M  V30 1296 C 125.543 -2.16827 5.99387 0
M  V30 1297 C 123.23 -2.65313 5.50502 0
M  V30 1298 C 124.228 -2.32981 6.42035 0
M  V30 1299 O 123.916 -2.16827 7.74107 0
M  V30 1300 H 123.648 -0.471606 0.484318 0
M  V30 1301 H 126.202 -0.895456 1.84853 0
M  V30 1302 H 124.432 -3.44823 1.75026 0
M  V30 1303 H 126.121 -3.43102 2.16878 0
M  V30 1304 H 126.887 -2.19694 4.32388 0
M  V30 1305 H 122.766 -3.0574 3.45027 0
M  V30 1306 H 126.31 -1.91513 6.70797 0
M  V30 1307 H 122.207 -2.7792 5.82607 0
M  V30 1308 H 122.975 -2.31778 7.84998 0
M  V30 1309 N 125.638 -1.25649 -0.95132 0
M  V30 1310 C 126.601 -1.06399 -2.03007 0
M  V30 1311 C 127.601 -0.0156794 -1.60792 0
M  V30 1312 O 128.791 -0.25817 -1.72276 0
M  V30 1313 C 125.923 -0.616184 -3.35285 0
M  V30 1314 H 127.116 -2.02164 -2.21517 0
M  V30 1315 H 124.669 -1.08103 -1.12887 0
M  V30 1316 H 125.404 0.343917 -3.22471 0
M  V30 1317 H 125.189 -1.37301 -3.67275 0
M  V30 1318 H 126.679 -0.503032 -4.14559 0
M  V30 1319 N 127.117 1.15442 -1.07289 0
M  V30 1320 C 128.08 2.18358 -0.696591 0
M  V30 1321 C 129.08 1.58637 0.262837 0
M  V30 1322 O 130.27 1.74145 0.0438809 0
M  V30 1323 C 127.402 3.4089 -0.0266151 0
M  V30 1324 H 128.595 2.53162 -1.60776 0
M  V30 1325 H 126.148 1.29893 -0.869342 0
M  V30 1326 H 126.883 3.11653 0.896822 0
M  V30 1327 H 126.668 3.85495 -0.716657 0
M  V30 1328 H 128.158 4.17009 0.222028 0
M  V30 1329 N 128.595 0.856903 1.32268 0
M  V30 1330 C 130.011 0.547061 1.49931 0
M  V30 1331 C 130.211 -0.921781 1.7918 0
M  V30 1332 O 129.267 -1.70469 1.8627 0
M  V30 1333 C 130.58 1.43599 2.64196 0
M  V30 1334 C 132.128 1.43665 2.78081 0
M  V30 1335 C 132.603 2.31085 3.95428 0
M  V30 1336 N 134.094 2.28893 4.02694 0
M  V30 1337 C 134.829 2.93262 4.92732 0
M  V30 1338 N 134.325 3.66751 5.87763 0
M  V30 1339 N 136.118 2.82638 4.85873 0
M  V30 1340 H 128.269 1.8075 1.11549 0
M  V30 1341 H 130.532 0.772144 0.549997 0
M  V30 1342 H 130.238 2.48058 2.49319 0
M  V30 1343 H 130.112 1.12502 3.60032 0
M  V30 1344 H 132.499 0.399701 2.92381 0
M  V30 1345 H 132.58 1.7878 1.82952 0
M  V30 1346 H 132.224 3.34849 3.81888 0
M  V30 1347 H 132.154 1.93302 4.89839 0
M  V30 1348 H 134.645 1.75466 3.34694 0
M  V30 1349 H 134.958 4.13027 6.53168 0
M  V30 1350 H 133.303 3.70859 5.87783 0
M  V30 1351 H 136.494 2.24774 4.10602 0
M  V30 1352 H 136.667 3.33084 5.55841 0
M  V30 1353 N 130.073 -1.45103 0.615059 0
M  V30 1354 C 131.005 -2.28786 -0.13762 0
M  V30 1355 C 132.018 -1.40376 -0.824525 0
M  V30 1356 O 133.207 -1.64681 -0.688662 0
M  V30 1357 C 130.307 -3.16322 -1.21628 0
M  V30 1358 C 129.48 -4.33054 -0.615039 0
M  V30 1359 C 128.539 -5.01743 -1.58556 0
M  V30 1360 O 127.565 -5.58293 -1.10895 0
M  V30 1361 N 128.767 -5.01714 -2.91998 0
M  V30 1362 H 131.532 -2.94025 0.580483 0
M  V30 1363 H 129.093 -1.55373 0.45507 0
M  V30 1364 H 131.085 -3.59139 -1.86552 0
M  V30 1365 H 129.655 -2.52943 -1.83681 0
M  V30 1366 H 128.875 -3.93627 0.21245 0
M  V30 1367 H 130.163 -5.08431 -0.193704 0
M  V30 1368 H 129.561 -4.57075 -3.33316 0
M  V30 1369 H 128.118 -5.48371 -3.52325 0
M  V30 1370 N 131.551 -0.354651 -1.53558 0
M  V30 1371 C 132.501 0.513179 -2.2215 0
M  V30 1372 C 133.485 1.05734 -1.21281 0
M  V30 1373 O 134.677 0.989202 -1.46778 0
M  V30 1374 C 131.806 1.65798 -3.00609 0
M  V30 1375 C 130.892 1.12722 -4.08845 0
M  V30 1376 N 131.283 0.318563 -5.04796 0
M  V30 1377 C 129.581 1.40307 -4.23356 0
M  V30 1378 C 130.282 0.0292224 -5.81693 0
M  V30 1379 N 129.258 0.623891 -5.40008 0
M  V30 1380 H 133.06 -0.111586 -2.93688 0
M  V30 1381 H 130.574 -0.162091 -1.61589 0
M  V30 1382 H 132.571 2.29176 -3.48258 0
M  V30 1383 H 131.231 2.28591 -2.306 0
M  V30 1384 H 132.242 -0.0413091 -5.17884 0
M  V30 1385 H 128.919 2.03458 -3.6457 0
M  V30 1386 H 130.309 -0.623808 -6.68998 0
M  V30 1387 N 133.029 1.57378 -0.0835403 0
M  V30 1388 C 134.278 1.93106 0.582498 0
M  V30 1389 C 134.591 0.96651 1.70053 0
M  V30 1390 O 135.797 1.21705 2.42693 0
M  V30 1391 C 134.253 3.43076 1.08751 0
M  V30 1392 C 133.861 4.48 -0.000146404 0
M  V30 1393 C 135.605 3.87785 1.72694 0
M  V30 1394 C 133.512 5.89113 0.519568 0
M  V30 1395 H 132.442 0.720775 0.221358 0
M  V30 1396 H 135.093 1.82821 -0.157675 0
M  V30 1397 H 133.475 3.48474 1.88101 0
M  V30 1398 H 134.649 4.54233 -0.775199 0
M  V30 1399 H 132.964 4.1283 -0.54406 0
M  V30 1400 H 135.561 4.90604 2.1263 0
M  V30 1401 H 135.904 3.25796 2.59158 0
M  V30 1402 H 136.437 3.8504 0.999457 0
M  V30 1403 H 133.176 6.54775 -0.308186 0
M  V30 1404 H 132.696 5.86376 1.26188 0
M  V30 1405 H 134.375 6.39346 0.992237 0
M  V30 1406 N 134.507 -0.190092 1.56449 0
M  V30 1407 C 135.44 -1.26375 1.90012 0
M  V30 1408 C 136.418 -1.43705 0.760765 0
M  V30 1409 O 137.602 -1.59014 1.01226 0
M  V30 1410 C 134.729 -2.62962 2.13468 0
M  V30 1411 C 133.775 -2.62474 3.36169 0
M  V30 1412 S 134.608 -2.13412 4.91137 0
M  V30 1413 C 135.764 -3.51812 5.17667 0
M  V30 1414 H 135.997 -0.977181 2.80782 0
M  V30 1415 H 133.53 -0.393814 1.49293 0
M  V30 1416 H 135.488 -3.41583 2.27664 0
M  V30 1417 H 134.149 -2.88828 1.23439 0
M  V30 1418 H 133.342 -3.62918 3.49723 0
M  V30 1419 H 132.944 -1.91937 3.20992 0
M  V30 1420 H 135.236 -4.47706 5.08494 0
M  V30 1421 H 136.179 -3.43148 6.19399 0
M  V30 1422 H 136.587 -3.46956 4.45288 0
M  V30 1423 N 135.985 -1.50799 -0.457987 0
M  V30 1424 C 136.917 -1.66786 -1.57211 0
M  V30 1425 C 137.93 -0.548962 -1.53265 0
M  V30 1426 O 139.119 -0.8226 -1.58416 0
M  V30 1427 C 136.219 -1.64834 -2.96113 0
M  V30 1428 C 135.392 -2.92971 -3.24787 0
M  V30 1429 C 134.451 -2.83485 -4.43309 0
M  V30 1430 O 133.477 -3.5744 -4.42973 0
M  V30 1431 N 134.679 -1.97929 -5.45714 0
M  V30 1432 H 137.444 -2.62889 -1.43909 0
M  V30 1433 H 135.005 -1.48427 -0.646617 0
M  V30 1434 H 136.997 -1.56084 -3.7339 0
M  V30 1435 H 135.567 -0.764118 -3.03117 0
M  V30 1436 H 134.787 -3.15749 -2.36 0
M  V30 1437 H 136.075 -3.77834 -3.40762 0
M  V30 1438 H 135.473 -1.37182 -5.48815 0
M  V30 1439 H 134.03 -1.95073 -6.21924 0
M  V30 1440 N 137.463 0.71206 -1.40597 0
M  V30 1441 C 138.879 1.02058 -1.22704 0
M  V30 1442 C 139.079 2.01228 -0.104729 0
M  V30 1443 O 138.135 2.4674 0.53624 0
M  V30 1444 C 139.448 1.56094 -2.57012 0
M  V30 1445 C 140.996 1.6806 -2.64054 0
M  V30 1446 C 141.471 2.25501 -3.9864 0
M  V30 1447 N 142.962 2.32882 -4.004 0
M  V30 1448 C 143.697 2.78317 -5.01325 0
M  V30 1449 N 143.193 3.23478 -6.12645 0
M  V30 1450 N 144.986 2.77733 -4.88693 0
M  V30 1451 H 137.137 0.0547896 -2.12329 0
M  V30 1452 H 139.4 0.0869027 -0.944008 0
M  V30 1453 H 139.106 0.906865 -3.39807 0
M  V30 1454 H 138.98 2.54564 -2.78347 0
M  V30 1455 H 141.367 2.32583 -1.81629 0
M  V30 1456 H 141.448 0.681802 -2.46546 0
M  V30 1457 H 141.092 1.61598 -4.81506 0
M  V30 1458 H 141.022 3.26102 -4.13479 0
M  V30 1459 H 143.513 2.00991 -3.20017 0
M  V30 1460 H 143.826 3.56725 -6.85542 0
M  V30 1461 H 142.171 3.21429 -6.16205 0
M  V30 1462 H 145.362 2.4179 -4.00818 0
M  V30 1463 H 145.535 3.12826 -5.67489 0
M  V30 1464 N 138.941 1.26152 0.944643 0
M  V30 1465 C 140.19 1.10883 1.68487 0
M  V30 1466 C 140.503 -0.348153 1.92477 0
M  V30 1467 O 141.709 -0.621459 2.64292 0
M  V30 1468 C 140.165 1.93624 3.03377 0
M  V30 1469 C 139.773 3.43875 2.87148 0
M  V30 1470 C 141.517 1.86954 3.81115 0
M  V30 1471 C 139.424 4.18875 4.1749 0
M  V30 1472 H 138.354 0.41135 0.631907 0
M  V30 1473 H 141.005 1.50433 1.05082 0
M  V30 1474 H 139.387 1.46904 3.67743 0
M  V30 1475 H 140.561 3.98338 2.31653 0
M  V30 1476 H 138.876 3.51744 2.22856 0
M  V30 1477 H 141.473 2.40275 4.77673 0
M  V30 1478 H 141.816 0.839518 4.07747 0
M  V30 1479 H 142.349 2.31477 3.23517 0
M  V30 1480 H 139.088 5.22332 3.96043 0
M  V30 1481 H 138.608 3.69193 4.72712 0
M  V30 1482 H 140.287 4.27134 4.85968 0
M  V30 1483 N 140.419 -1.14872 1.07899 0
M  V30 1484 C 141.351 -2.19425 0.662231 0
M  V30 1485 C 142.364 -1.60231 -0.288079 0
M  V30 1486 O 143.553 -1.78336 -0.076534 0
M  V30 1487 C 140.653 -3.38867 -0.0470695 0
M  V30 1488 C 139.826 -4.27597 0.920831 0
M  V30 1489 C 138.885 -5.25616 0.247805 0
M  V30 1490 O 137.911 -5.62189 0.890599 0
M  V30 1491 N 139.113 -5.71746 -1.00435 0
M  V30 1492 H 141.878 -2.55797 1.56166 0
M  V30 1493 H 139.439 -1.30042 0.964404 0
M  V30 1494 H 141.431 -4.01497 -0.50813 0
M  V30 1495 H 140.001 -3.00864 -0.848523 0
M  V30 1496 H 139.221 -3.61982 1.56087 0
M  V30 1497 H 140.509 -4.83748 1.57688 0
M  V30 1498 H 139.907 -5.44153 -1.54642 0
M  V30 1499 H 138.464 -6.36389 -1.40899 0
M  V30 1500 N 141.898 -0.863906 -1.31812 0
M  V30 1501 C 143.314 -0.555004 -1.49639 0
M  V30 1502 C 143.514 0.912266 -1.79666 0
M  V30 1503 O 142.57 1.69479 -1.87171 0
M  V30 1504 C 143.883 -1.44998 -2.63431 0
M  V30 1505 C 145.431 -1.45138 -2.77316 0
M  V30 1506 C 145.906 -2.33179 -3.94197 0
M  V30 1507 N 147.397 -2.31025 -4.01474 0
M  V30 1508 C 148.132 -2.95871 -4.9117 0
M  V30 1509 N 147.628 -3.69863 -5.8581 0
M  V30 1510 N 149.421 -2.85211 -4.84367 0
M  V30 1511 H 141.572 -1.81339 -1.10589 0
M  V30 1512 H 143.835 -0.77505 -0.545895 0
M  V30 1513 H 143.541 -2.49377 -2.48 0
M  V30 1514 H 143.415 -1.14409 -3.59431 0
M  V30 1515 H 145.802 -0.415201 -2.92164 0
M  V30 1516 H 145.883 -1.79747 -1.82001 0
M  V30 1517 H 145.527 -3.3687 -3.80107 0
M  V30 1518 H 145.457 -1.95897 -4.88807 0
M  V30 1519 H 147.948 -1.77238 -3.33759 0
M  V30 1520 H 148.261 -4.16486 -6.50968 0
M  V30 1521 H 146.606 -3.73971 -5.85808 0
M  V30 1522 H 149.797 -2.26948 -4.09405 0
M  V30 1523 H 149.97 -3.36027 -5.54066 0
M  V30 1524 N 143.376 1.44774 -0.622745 0
M  V30 1525 C 144.306 2.33382 0.0741861 0
M  V30 1526 C 145.287 1.47719 0.843387 0
M  V30 1527 O 146.472 1.76458 0.810934 0
M  V30 1528 C 143.602 3.30663 1.06204 0
M  V30 1529 C 142.556 4.26079 0.405037 0
M  V30 1530 C 141.882 5.13165 1.5022 0
M  V30 1531 C 143.182 5.1781 -0.683414 0
M  V30 1532 H 144.876 2.91905 -0.665713 0
M  V30 1533 H 142.422 1.40363 -0.321587 0
M  V30 1534 H 144.375 3.9153 1.55827 0
M  V30 1535 H 143.099 2.70331 1.83272 0
M  V30 1536 H 141.758 3.66532 -0.0704683 0
M  V30 1537 H 141.406 4.49191 2.26355 0
M  V30 1538 H 141.106 5.77812 1.06803 0
M  V30 1539 H 142.63 5.76902 2.00041 0
M  V30 1540 H 144.044 5.72661 -0.270631 0
M  V30 1541 H 142.441 5.91015 -1.04023 0
M  V30 1542 H 143.511 4.59326 -1.55395 0
M  V30 1543 N 144.854 0.36279 1.53368 0
M  V30 1544 C 145.786 -0.519668 2.23231 0
M  V30 1545 C 146.799 -1.04844 1.24546 0
M  V30 1546 O 147.988 -0.955296 1.50786 0
M  V30 1547 C 145.088 -1.72995 2.9142 0
M  V30 1548 C 144.261 -1.33316 4.16588 0
M  V30 1549 C 143.32 -2.40521 4.68013 0
M  V30 1550 O 142.346 -2.03027 5.3176 0
M  V30 1551 N 143.548 -3.72065 4.45587 0
M  V30 1552 H 146.313 0.078751 2.99597 0
M  V30 1553 H 143.874 0.187833 1.60807 0
M  V30 1554 H 145.866 -2.44184 3.22733 0
M  V30 1555 H 144.436 -2.2353 2.18525 0
M  V30 1556 H 143.656 -0.451236 3.91609 0
M  V30 1557 H 144.944 -1.04432 4.97967 0
M  V30 1558 H 144.342 -4.05304 3.94646 0
M  V30 1559 H 142.899 -4.39366 4.81457 0
M  V30 1560 N 146.332 -1.57332 0.0918853 0
M  V30 1561 C 147.295 -2.12708 -0.85369 0
M  V30 1562 C 148.295 -1.05561 -1.213 0
M  V30 1563 O 149.485 -1.31461 -1.14296 0
M  V30 1564 C 146.617 -2.64503 -2.15061 0
M  V30 1565 H 147.81 -2.97573 -0.3729 0
M  V30 1566 H 145.363 -1.55509 -0.157072 0
M  V30 1567 H 146.098 -1.83149 -2.67632 0
M  V30 1568 H 145.883 -3.4284 -1.90272 0
M  V30 1569 H 147.373 -3.07351 -2.82711 0
M  V30 1570 N 147.81 0.181792 -1.56548 0
M  V30 1571 C 149.087 0.926765 -1.72251 0
M  V30 1572 C 149.467 2.00831 -0.650386 0
M  V30 1573 O 148.815 2.26008 0.336521 0
M  V30 1574 C 149.025 1.50106 -3.1507 0
M  V30 1575 C 150.373 1.97805 -3.75711 0
M  V30 1576 O 151.397 1.59922 -3.18282 0
M  V30 1577 O 150.256 2.67555 -4.76525 0
M  V30 1578 H 147.35 0.435506 -0.703039 0
M  V30 1579 H 149.896 0.170443 -1.68842 0
M  V30 1580 H 148.668 0.72212 -3.84579 0
M  V30 1581 H 148.291 2.32186 -3.22763 0
M  V30 1582 N 149.288 1.51039 0.449983 0
M  V30 1583 C 150.534 1.64287 1.19923 0
M  V30 1584 C 150.889 0.348701 1.89214 0
M  V30 1585 O 150.182 -0.654751 1.80065 0
M  V30 1586 C 150.376 2.77556 2.25161 0
M  V30 1587 C 150.205 4.17862 1.66198 0
M  V30 1588 C 148.975 4.83976 1.45243 0
M  V30 1589 C 151.173 5.01388 1.14519 0
M  V30 1590 N 149.155 6.08433 0.817437 0
M  V30 1591 C 150.526 6.16743 0.634705 0
M  V30 1592 C 152.581 4.87008 1.03574 0
M  V30 1593 C 151.284 7.19295 0.0255452 0
M  V30 1594 C 153.31 5.89757 0.440489 0
M  V30 1595 C 152.672 7.04375 -0.0595112 0
M  V30 1596 H 148.771 0.655161 0.426952 0
M  V30 1597 H 151.355 1.88228 0.49781 0
M  V30 1598 H 149.526 2.553 2.92706 0
M  V30 1599 H 151.258 2.80049 2.92155 0
M  V30 1600 H 148.013 4.41627 1.71063 0
M  V30 1601 H 148.437 6.75017 0.517747 0
M  V30 1602 H 153.079 3.9866 1.4082 0
M  V30 1603 H 150.797 8.07302 -0.359071 0
M  V30 1604 H 154.383 5.80698 0.35788 0
M  V30 1605 H 153.263 7.82521 -0.512882 0
M  V30 1606 N 150.766 -0.704594 1.40972 0
M  V30 1607 C 152.012 -1.46675 1.40051 0
M  V30 1608 C 152.345 -1.94199 0.00641102 0
M  V30 1609 O 151.62 -1.68916 -0.964235 0
M  V30 1610 C 151.903 -2.68505 2.39952 0
M  V30 1611 C 151.756 -2.26805 3.88432 0
M  V30 1612 C 153.075 -3.70686 2.37233 0
M  V30 1613 H 150.194 -0.532015 0.510028 0
M  V30 1614 H 152.836 -0.803255 1.72185 0
M  V30 1615 H 150.986 -3.25114 2.1268 0
M  V30 1616 H 152.658 -1.75592 4.26574 0
M  V30 1617 H 150.901 -1.58685 4.03734 0
M  V30 1618 H 151.572 -3.14181 4.53866 0
M  V30 1619 H 154.048 -3.23731 2.61415 0
M  V30 1620 H 152.924 -4.53553 3.09162 0
M  V30 1621 H 153.185 -4.19754 1.38777 0
M  V30 1622 N 152.244 -1.26651 -0.937939 0
M  V30 1623 C 153.174 -1.10993 -2.05433 0
M  V30 1624 C 154.155 -0.0142161 -1.70094 0
M  V30 1625 O 155.34 -0.186837 -1.93299 0
M  V30 1626 C 152.47 -0.745561 -3.39203 0
M  V30 1627 C 151.424 -1.79337 -3.88616 0
M  V30 1628 C 150.75 -1.28324 -5.19073 0
M  V30 1629 C 152.05 -3.19553 -4.13138 0
M  V30 1630 H 153.744 -2.0438 -2.1879 0
M  V30 1631 H 151.29 -0.984041 -1.05131 0
M  V30 1632 H 153.243 -0.622888 -4.16771 0
M  V30 1633 H 151.967 0.22401 -3.25831 0
M  V30 1634 H 150.626 -1.90477 -3.13231 0
M  V30 1635 H 150.274 -0.303414 -5.02084 0
M  V30 1636 H 149.974 -1.98369 -5.53103 0
M  V30 1637 H 151.498 -1.1733 -5.99221 0
M  V30 1638 H 152.912 -3.11471 -4.81309 0
M  V30 1639 H 151.309 -3.87218 -4.58457 0
M  V30 1640 H 152.379 -3.65368 -3.18801 0
M  V30 1641 N 153.722 1.14298 -1.08507 0
M  V30 1642 C 154.632 2.23027 -0.727753 0
M  V30 1643 C 155.648 1.71952 0.26619 0
M  V30 1644 O 156.824 2.011 0.109882 0
M  V30 1645 C 153.889 3.46403 -0.143541 0
M  V30 1646 C 152.95 4.12413 -1.19223 0
M  V30 1647 C 152.183 5.29899 -0.635798 0
M  V30 1648 O 152.406 5.67796 0.544393 0
M  V30 1649 O 151.34 5.85717 -1.38634 0
M  V30 1650 H 155.166 2.55945 -1.63481 0
M  V30 1651 H 152.751 1.22248 -0.858817 0
M  V30 1652 H 154.633 4.21018 0.179404 0
M  V30 1653 H 153.308 3.15206 0.736659 0
M  V30 1654 H 152.215 3.39667 -1.56772 0
M  V30 1655 H 153.548 4.47718 -2.04474 0
M  V30 1656 N 155.201 0.870884 1.31352 0
M  V30 1657 C 156.45 0.478408 1.95944 0
M  V30 1658 C 156.763 -0.974493 1.69597 0
M  V30 1659 O 157.969 -1.47316 2.28058 0
M  V30 1660 C 156.425 0.804609 3.50791 0
M  V30 1661 C 156.033 2.27433 3.85977 0
M  V30 1662 C 157.777 0.480648 4.2177 0
M  V30 1663 C 155.684 2.5429 5.33939 0
M  V30 1664 H 154.614 0.175175 0.733369 0
M  V30 1665 H 157.265 1.06391 1.4951 0
M  V30 1666 H 155.647 0.148347 3.95722 0
M  V30 1667 H 156.821 2.97373 3.52002 0
M  V30 1668 H 155.136 2.56442 3.28065 0
M  V30 1669 H 157.733 0.658519 5.30629 0
M  V30 1670 H 158.076 -0.578979 4.12254 0
M  V30 1671 H 158.609 1.09349 3.82476 0
M  V30 1672 H 155.348 3.58939 5.48491 0
M  V30 1673 H 154.868 1.88945 5.69263 0
M  V30 1674 H 156.547 2.39066 6.01212 0
M  V30 1675 N 156.679 -1.44442 0.630414 0
M  V30 1676 C 157.956 -1.9549 0.0655657 0
M  V30 1677 C 158.336 -1.5724 -1.40851 0
M  V30 1678 O 157.684 -0.846116 -2.12257 0
M  V30 1679 C 157.894 -3.47812 0.287691 0
M  V30 1680 C 159.242 -4.24216 0.180513 0
M  V30 1681 O 160.266 -3.55526 0.219019 0
M  V30 1682 O 159.125 -5.46434 0.0848493 0
M  V30 1683 H 156.219 -0.826688 -0.0227177 0
M  V30 1684 H 158.765 -1.54496 0.702068 0
M  V30 1685 H 157.537 -3.687 1.31056 0
M  V30 1686 H 157.16 -3.95751 -0.382984 0
M  V30 1687 N 158.157 -0.370918 -1.53173 0
M  V30 1688 C 159.385 0.217704 -2.05751 0
M  V30 1689 C 159.8 1.42018 -1.24404 0
M  V30 1690 O 159.157 1.80245 -0.286033 0
M  V30 1691 C 159.208 0.605954 -3.56385 0
M  V30 1692 O 158.929 -0.548734 -4.3465 0
M  V30 1693 C 160.43 1.2524 -4.25241 0
M  V30 1694 H 157.65 0.0371659 -0.66997 0
M  V30 1695 H 160.194 -0.530832 -1.9749 0
M  V30 1696 H 158.349 1.3044 -3.6478 0
M  V30 1697 H 158.763 -0.23376 -5.23979 0
M  V30 1698 H 160.237 1.47458 -5.3194 0
M  V30 1699 H 160.714 2.2143 -3.79296 0
M  V30 1700 H 161.32 0.595233 -4.21114 0
M  V30 1701 N 159.635 1.57281 -0.100228 0
M  V30 1702 C 160.882 1.94537 0.562268 0
M  V30 1703 C 161.21 0.982315 1.67871 0
M  V30 1704 O 160.465 0.00280936 1.957 0
M  V30 1705 C 160.764 3.38305 1.15259 0
M  V30 1706 C 160.43 4.50618 0.159409 0
M  V30 1707 C 159.092 4.81066 -0.113741 0
M  V30 1708 C 161.444 5.18615 -0.518461 0
M  V30 1709 C 158.772 5.76835 -1.07137 0
M  V30 1710 C 161.124 6.15412 -1.46459 0
M  V30 1711 C 159.788 6.44262 -1.74592 0
M  V30 1712 H 159.058 0.711863 0.205748 0
M  V30 1713 H 161.705 1.90679 -0.17715 0
M  V30 1714 H 160.01 3.38766 1.96836 0
M  V30 1715 H 161.707 3.64435 1.67297 0
M  V30 1716 H 158.297 4.2689 0.382491 0
M  V30 1717 H 162.481 4.95264 -0.320581 0
M  V30 1718 H 157.737 5.975 -1.29628 0
M  V30 1719 H 161.911 6.67194 -1.99564 0
M  V30 1720 H 159.538 7.1828 -2.48953 0
M  V30 1721 N 161.113 -0.173488 1.56642 0
M  V30 1722 C 162.043 -1.2171 1.99271 0
M  V30 1723 C 163.024 -1.46289 0.867959 0
M  V30 1724 O 164.209 -1.5766 1.13388 0
M  V30 1725 C 161.339 -2.55651 2.35074 0
M  V30 1726 C 160.293 -2.45645 3.50489 0
M  V30 1727 C 159.619 -3.84056 3.72028 0
M  V30 1728 C 160.919 -1.96302 4.84007 0
M  V30 1729 H 162.613 -0.86275 2.867 0
M  V30 1730 H 160.159 -0.413571 1.37933 0
M  V30 1731 H 162.112 -3.2886 2.63494 0
M  V30 1732 H 160.836 -2.92869 1.44552 0
M  V30 1733 H 159.495 -1.7489 3.22194 0
M  V30 1734 H 159.143 -4.18664 2.788 0
M  V30 1735 H 158.843 -3.7823 4.49684 0
M  V30 1736 H 160.367 -4.58854 4.02846 0
M  V30 1737 H 161.781 -2.59284 5.11317 0
M  V30 1738 H 160.178 -2.01429 5.65284 0
M  V30 1739 H 161.248 -0.917226 4.76146 0
M  V30 1740 N 162.591 -1.51276 -0.441967 0
M  V30 1741 C 163.816 -1.67799 -1.21895 0
M  V30 1742 C 164.241 -0.372864 -1.84367 0
M  V30 1743 O 163.599 0.666501 -1.68604 0
M  V30 1744 C 163.647 -2.79199 -2.28211 0
M  V30 1745 O 162.751 -2.42479 -3.33583 0
M  V30 1746 H 162.092 -0.559649 -0.357336 0
M  V30 1747 H 164.622 -1.97815 -0.522522 0
M  V30 1748 H 164.632 -3.03146 -2.73069 0
M  V30 1749 H 163.307 -3.73906 -1.82118 0
M  V30 1750 H 161.884 -2.29087 -2.94234 0
M  V30 1751 N 164.069 0.697108 -1.41344 0
M  V30 1752 C 165.001 1.8224 -1.39001 0
M  V30 1753 C 166.014 1.60152 -0.292428 0
M  V30 1754 O 167.203 1.69684 -0.554048 0
M  V30 1755 C 164.303 3.18976 -1.14489 0
M  V30 1756 C 163.476 3.68105 -2.36258 0
M  V30 1757 C 162.535 4.83506 -2.07625 0
M  V30 1758 O 161.561 4.95201 -2.8065 0
M  V30 1759 N 162.763 5.70637 -1.06555 0
M  V30 1760 H 165.528 1.84742 -2.35988 0
M  V30 1761 H 163.089 0.87937 -1.35936 0
M  V30 1762 H 165.081 3.93801 -0.932885 0
M  V30 1763 H 163.651 3.11508 -0.261043 0
M  V30 1764 H 162.871 2.84204 -2.7317 0
M  V30 1765 H 164.159 3.97667 -3.17393 0
M  V30 1766 H 163.557 5.63817 -0.461125 0
M  V30 1767 H 162.114 6.45368 -0.913444 0
M  V30 1768 N 165.547 1.27147 0.931209 0
M  V30 1769 C 166.775 1.16082 1.71267 0
M  V30 1770 C 167.19 -0.282772 1.8667 0
M  V30 1771 O 166.547 -1.19283 1.38122 0
M  V30 1772 C 166.598 1.8358 3.11417 0
M  V30 1773 O 166.319 3.22299 2.96741 0
M  V30 1774 C 167.82 1.78597 4.05732 0
M  V30 1775 H 165.04 0.403758 0.535929 0
M  V30 1776 H 167.584 1.67953 1.16671 0
M  V30 1777 H 165.739 1.35623 3.62885 0
M  V30 1778 H 166.153 3.55851 3.85319 0
M  V30 1779 H 167.627 2.30444 5.01597 0
M  V30 1780 H 168.104 0.754564 4.3267 0
M  V30 1781 H 168.71 2.26152 3.60188 0
M  V30 1782 N 167.025 -1.13721 1.09112 0
M  V30 1783 C 168.436 -1.6648 0.845068 0
M  V30 1784 C 168.787 -1.85911 -0.62701 0
M  V30 1785 O 167.912 -1.57556 -1.48341 0
M  V30 1786 C 168.507 -3.02413 1.52748 0
M  V30 1787 C 167.066 -3.52176 1.32849 0
M  V30 1788 C 166.213 -2.27492 1.58564 0
M  V30 1789 H 169.164 -0.976872 1.25072 0
M  V30 1790 H 169.185 -3.68223 0.958752 0
M  V30 1791 H 168.697 -2.88238 2.59885 0
M  V30 1792 H 166.798 -3.7156 0.278137 0
M  V30 1793 H 166.911 -4.32499 2.0611 0
M  V30 1794 H 165.275 -2.33923 1.00758 0
M  V30 1795 H 166.058 -2.15886 2.66924 0
M  V30 1796 N 168.503 -0.877838 -1.30888 0
M  V30 1797 C 169.733 -0.506678 -2.00291 0
M  V30 1798 C 170.141 0.907449 -1.66018 0
M  V30 1799 O 169.484 1.60719 -0.88967 0
M  V30 1800 C 169.546 -0.59323 -3.54572 0
M  V30 1801 C 169.21 -1.97038 -4.12341 0
M  V30 1802 C 170.207 -2.93889 -4.28865 0
M  V30 1803 C 167.892 -2.27383 -4.47886 0
M  V30 1804 C 169.886 -4.19224 -4.80136 0
M  V30 1805 C 167.573 -3.52965 -4.98857 0
M  V30 1806 C 168.571 -4.48701 -5.14934 0
M  V30 1807 O 168.259 -5.72056 -5.64808 0
M  V30 1808 H 167.991 -0.1951 -0.647234 0
M  V30 1809 H 170.545 -1.18301 -1.6791 0
M  V30 1810 H 168.775 0.140057 -3.86446 0
M  V30 1811 H 170.464 -0.234372 -4.05223 0
M  V30 1812 H 171.23 -2.71756 -4.01714 0
M  V30 1813 H 167.109 -1.53639 -4.34645 0
M  V30 1814 H 170.653 -4.93956 -4.92599 0
M  V30 1815 H 166.55 -3.74939 -5.25443 0
M  V30 1816 H 167.318 -5.74337 -5.83163 0
M  V30 1817 N 169.982 1.44106 -0.638065 0
M  V30 1818 C 171.23 2.01579 -0.145043 0
M  V30 1819 C 171.551 1.50496 1.24 0
M  V30 1820 O 170.821 0.711374 1.82527 0
M  V30 1821 H 169.401 0.745282 -0.05063 0
M  V30 1822 H 172.063 1.76516 -0.826327 0
M  V30 1823 H 171.159 3.11877 -0.118039 0
M  V30 1824 N 171.46 0.379036 1.52974 0
M  V30 1825 C 172.69 -0.20649 2.05566 0
M  V30 1826 C 173.098 -1.41906 1.25137 0
M  V30 1827 O 172.441 -1.81421 0.288464 0
M  V30 1828 C 172.503 -0.651086 3.53555 0
M  V30 1829 C 172.167 0.446626 4.54812 0
M  V30 1830 C 173.164 1.30079 5.03364 0
M  V30 1831 C 170.849 0.610719 4.98573 0
M  V30 1832 C 172.843 2.30426 5.94292 0
M  V30 1833 C 170.53 1.61754 5.89304 0
M  V30 1834 C 171.528 2.46274 6.37054 0
M  V30 1835 O 171.216 3.45237 7.25994 0
M  V30 1836 H 170.948 -0.0372381 0.674974 0
M  V30 1837 H 173.502 0.539718 1.98182 0
M  V30 1838 H 171.732 -1.44911 3.58522 0
M  V30 1839 H 173.421 -1.16112 3.88938 0
M  V30 1840 H 174.187 1.18527 4.70294 0
M  V30 1841 H 170.066 -0.0374044 4.60985 0
M  V30 1842 H 173.61 2.96432 6.31485 0
M  V30 1843 H 169.507 1.73348 6.21788 0
M  V30 1844 H 170.275 3.41124 7.44027 0
M  V30 1845 N 172.938 -1.57226 0.108567 0
M  V30 1846 C 174.354 -1.5766 -0.248058 0
M  V30 1847 C 174.554 -1.12063 -1.67464 0
M  V30 1848 O 173.61 -0.803236 -2.39383 0
M  V30 1849 C 174.923 -3.0069 -0.0242287 0
M  V30 1850 C 176.471 -3.12868 -0.0909372 0
M  V30 1851 C 176.946 -4.57879 0.105067 0
M  V30 1852 N 178.437 -4.63172 0.0506846 0
M  V30 1853 C 179.172 -5.73126 0.177396 0
M  V30 1854 N 178.668 -6.91866 0.359696 0
M  V30 1855 N 180.461 -5.61977 0.117709 0
M  V30 1856 H 172.612 -1.85169 1.04049 0
M  V30 1857 H 174.875 -0.85529 0.40888 0
M  V30 1858 H 174.581 -3.38299 0.961604 0
M  V30 1859 H 174.455 -3.6945 -0.76068 0
M  V30 1860 H 176.842 -2.75124 -1.06729 0
M  V30 1861 H 176.923 -2.46672 0.677225 0
M  V30 1862 H 176.567 -4.96321 1.07834 0
M  V30 1863 H 176.497 -5.22153 -0.682954 0
M  V30 1864 H 178.988 -3.778 -0.0871266 0
M  V30 1865 H 179.301 -7.71503 0.447529 0
M  V30 1866 H 177.646 -6.93874 0.395536 0
M  V30 1867 H 180.837 -4.68094 -0.0236741 0
M  V30 1868 H 181.01 -6.47627 0.219905 0
M  V30 1869 N 174.416 0.165178 -1.56732 0
M  V30 1870 C 175.641 0.900253 -1.86843 0
M  V30 1871 C 176.066 1.74766 -0.695596 0
M  V30 1872 O 175.424 1.77786 0.35522 0
M  V30 1873 C 175.472 1.74777 -3.15413 0
M  V30 1874 O 174.576 2.85007 -2.98068 0
M  V30 1875 H 173.917 0.251832 -0.614391 0
M  V30 1876 H 176.447 0.161468 -2.03962 0
M  V30 1877 H 176.457 2.14646 -3.46974 0
M  V30 1878 H 175.132 1.12537 -4.00385 0
M  V30 1879 H 173.709 2.48676 -2.77875 0
M  V30 1880 N 175.894 1.51508 0.433938 0
M  V30 1881 C 177.141 1.64345 1.18309 0
M  V30 1882 C 177.469 0.361315 1.91115 0
M  V30 1883 O 176.724 -0.654753 1.84422 0
M  V30 1884 C 177.023 2.79928 2.22205 0
M  V30 1885 C 176.689 4.19078 1.66387 0
M  V30 1886 C 175.351 4.56932 1.50887 0
M  V30 1887 C 177.703 5.05894 1.25381 0
M  V30 1888 C 175.031 5.79305 0.928608 0
M  V30 1889 C 177.383 6.2885 0.687823 0
M  V30 1890 C 176.047 6.65473 0.519755 0
M  V30 1891 H 175.317 0.601381 0.432923 0
M  V30 1892 H 177.964 1.85549 0.473676 0
M  V30 1893 H 176.269 2.52959 2.99197 0
M  V30 1894 H 177.966 2.87059 2.79997 0
M  V30 1895 H 174.556 3.89234 1.79428 0
M  V30 1896 H 178.74 4.77253 1.36175 0
M  V30 1897 H 173.996 6.06324 0.786186 0
M  V30 1898 H 178.17 6.95461 0.361581 0
M  V30 1899 H 175.797 7.6017 0.0679979 0
M  V30 1900 N 177.372 -0.689602 1.41712 0
M  V30 1901 C 178.597 -1.48329 1.44959 0
M  V30 1902 C 179.022 -1.8801 0.0581283 0
M  V30 1903 O 178.38 -1.55026 -0.940035 0
M  V30 1904 C 178.428 -2.71835 2.36935 0
M  V30 1905 O 177.532 -3.69549 1.8305 0
M  V30 1906 H 176.873 -0.446199 0.491734 0
M  V30 1907 H 179.403 -0.847127 1.86239 0
M  V30 1908 H 179.413 -3.20076 2.53013 0
M  V30 1909 H 178.088 -2.42291 3.38035 0
M  V30 1910 H 176.665 -3.2851 1.76452 0
M  V30 1911 N 178.85 -1.27639 -0.924453 0
M  V30 1912 C 179.798 -1.10485 -2.04685 0
M  V30 1913 C 180.792 -0.0270421 -1.69378 0
M  V30 1914 O 181.998 -0.185008 -1.79047 0
M  V30 1915 H 178.373 -0.340546 -0.670472 0
M  V30 1916 H 180.344 -2.05566 -2.16298 0
M  V30 1917 C 179.093 -0.772229 -3.39016 0
M  V30 1918 H 178.416 -1.59351 -3.66671 0
M  V30 1919 H 179.856 -0.692097 -4.18313 0
M  V30 1920 C 178.315 0.523554 -3.32807 0
M  V30 1921 O 178.845 1.55702 -3.70297 0
M  V30 1922 N 177.051 0.520363 -2.85903 0
M  V30 1923 H 176.598 -0.32107 -2.55591 0
M  V30 1924 H 176.556 1.38742 -2.82131 0
M  V30 1925 N 180.328 1.1314 -1.09713 0
M  V30 1926 C 181.577 1.83838 -0.829851 0
M  V30 1927 C 181.89 1.84599 0.646728 0
M  V30 1928 O 183.096 2.51218 1.02965 0
M  V30 1929 C 181.552 3.30069 -1.43466 0
M  V30 1930 C 181.16 3.37688 -2.94399 0
M  V30 1931 C 182.904 4.05788 -1.24645 0
M  V30 1932 C 180.811 4.78209 -3.47952 0
M  V30 1933 H 179.741 0.68877 -0.306777 0
M  V30 1934 H 182.392 1.27448 -1.3202 0
M  V30 1935 H 180.774 3.8628 -0.871996 0
M  V30 1936 H 181.948 2.91456 -3.56918 0
M  V30 1937 H 180.263 2.75436 -3.12289 0
M  V30 1938 H 182.86 5.09535 -1.62107 0
M  V30 1939 H 183.203 4.15878 -0.187357 0
M  V30 1940 H 183.736 3.55915 -1.77678 0
M  V30 1941 H 180.475 4.73311 -4.53495 0
M  V30 1942 H 179.995 5.24924 -2.90198 0
M  V30 1943 H 181.674 5.47133 -3.45332 0
M  V30 1944 N 181.806 0.884767 1.30421 0
M  V30 1945 C 183.055 0.499164 1.95426 0
M  V30 1946 C 183.368 -0.95645 1.70621 0
M  V30 1947 O 184.574 -1.44889 2.29607 0
M  V30 1948 C 183.03 0.84177 3.49917 0
M  V30 1949 C 182.638 2.31514 3.83543 0
M  V30 1950 C 184.382 0.525355 4.21237 0
M  V30 1951 C 182.289 2.59939 5.31212 0
M  V30 1952 H 181.219 0.182944 0.73147 0
M  V30 1953 H 183.87 1.07971 1.48373 0
M  V30 1954 H 182.252 0.190311 3.95542 0
M  V30 1955 H 183.426 3.0109 3.48829 0
M  V30 1956 H 181.741 2.59907 3.25326 0
M  V30 1957 H 184.338 0.714762 5.29901 0
M  V30 1958 H 184.681 -0.535222 4.12845 0
M  V30 1959 H 185.214 1.134 3.81294 0
M  V30 1960 H 181.953 3.64736 5.44654 0
M  V30 1961 H 181.473 1.94972 5.67227 0
M  V30 1962 H 183.152 2.45429 5.98643 0
M  V30 1963 N 183.284 -1.43765 0.645699 0
M  V30 1964 C 184.509 -2.06767 0.161883 0
M  V30 1965 C 184.934 -1.48034 -1.16049 0
M  V30 1966 O 184.292 -0.587369 -1.71522 0
M  V30 1967 C 184.34 -3.60519 0.0762003 0
M  V30 1968 O 183.444 -4.00982 -0.963721 0
M  V30 1969 H 182.785 -0.657675 0.091429 0
M  V30 1970 H 185.315 -1.84397 0.886499 0
M  V30 1971 H 185.325 -4.07853 -0.109604 0
M  V30 1972 H 184 -4.02646 1.04157 0
M  V30 1973 H 182.577 -3.65253 -0.751312 0
M  V30 1974 N 184.763 -0.387143 -1.52771 0
M  V30 1975 C 185.991 0.195869 -2.05971 0
M  V30 1976 C 186.406 1.40691 -1.25903 0
M  V30 1977 O 185.763 1.79931 -0.305134 0
M  V30 1978 C 185.814 0.56812 -3.57008 0
M  V30 1979 O 185.535 -0.594803 -4.34043 0
M  V30 1980 C 187.036 1.20723 -4.26545 0
M  V30 1981 H 184.256 0.0300578 -0.670326 0
M  V30 1982 H 186.8 -0.551749 -1.96916 0
M  V30 1983 H 184.955 1.26564 -3.66143 0
M  V30 1984 H 185.369 -0.289322 -5.23701 0
M  V30 1985 H 186.843 1.41807 -5.33474 0
M  V30 1986 H 187.32 2.17395 -3.81623 0
M  V30 1987 H 187.926 0.550535 -4.21722 0
M  V30 1988 N 186.241 1.57166 -0.116904 0
M  V30 1989 C 187.171 2.18222 0.830759 0
M  V30 1990 C 188.152 1.12167 1.27877 0
M  V30 1991 O 189.337 1.40394 1.34176 0
M  V30 1992 C 186.467 2.77996 2.08172 0
M  V30 1993 C 185.421 3.89614 1.77157 0
M  V30 1994 C 184.747 4.36187 3.09265 0
M  V30 1995 C 186.047 5.1181 1.04151 0
M  V30 1996 H 187.741 2.97664 0.321992 0
M  V30 1997 H 185.287 1.4318 0.153434 0
M  V30 1998 H 187.24 3.19366 2.74924 0
M  V30 1999 H 185.964 1.9584 2.6137 0
M  V30 2000 H 184.623 3.48816 1.12796 0
M  V30 2001 H 184.271 3.50893 3.60393 0
M  V30 2002 H 183.971 5.11455 2.89288 0
M  V30 2003 H 185.495 4.80207 3.77139 0
M  V30 2004 H 186.909 5.50214 1.61052 0
M  V30 2005 H 185.306 5.92648 0.942762 0
M  V30 2006 H 186.376 4.84892 0.0279022 0
M  V30 2007 N 187.719 -0.156864 1.56817 0
M  V30 2008 C 188.667 -1.21319 1.98455 0
M  V30 2009 C 189.661 -1.45025 0.875444 0
M  V30 2010 O 190.867 -1.45435 1.0606 0
M  V30 2011 H 187.242 -0.408142 0.631605 0
M  V30 2012 H 189.213 -0.835244 2.86472 0
M  V30 2013 C 187.962 -2.54148 2.37285 0
M  V30 2014 H 187.285 -2.36733 3.22176 0
M  V30 2015 H 188.725 -3.26712 2.70251 0
M  V30 2016 C 187.184 -3.13967 1.22173 0
M  V30 2017 O 187.714 -3.98357 0.517149 0
M  V30 2018 N 185.92 -2.7327 0.988536 0
M  V30 2019 H 185.467 -2.04744 1.56326 0
M  V30 2020 H 185.425 -3.13628 0.220209 0
M  V30 2021 N 189.197 -1.51736 -0.425897 0
M  V30 2022 C 190.608 -1.5732 -1.00536 0
M  V30 2023 C 190.959 -0.403537 -1.92005 0
M  V30 2024 O 190.084 0.478256 -2.11049 0
M  V30 2025 C 190.679 -2.85119 -1.8301 0
M  V30 2026 C 189.238 -2.93236 -2.35987 0
M  V30 2027 C 188.385 -2.52098 -1.15508 0
M  V30 2028 H 191.336 -1.57348 -0.206739 0
M  V30 2029 H 191.357 -2.69526 -2.68581 0
M  V30 2030 H 190.869 -3.7023 -1.16411 0
M  V30 2031 H 188.97 -2.12581 -3.06007 0
M  V30 2032 H 189.083 -3.9713 -2.68001 0
M  V30 2033 H 187.447 -2.05558 -1.50393 0
M  V30 2034 H 188.23 -3.39565 -0.505014 0
M  V30 2035 N 190.675 0.682077 -1.42076 0
M  V30 2036 C 191.903 1.47057 -1.4554 0
M  V30 2037 C 192.318 1.8869 -0.0645779 0
M  V30 2038 O 191.675 1.57666 0.919115 0
M  V30 2039 C 191.726 2.72442 -2.37609 0
M  V30 2040 O 191.447 2.32559 -3.71279 0
M  V30 2041 C 192.948 3.66069 -2.50017 0
M  V30 2042 H 190.168 0.452737 -0.495248 0
M  V30 2043 H 192.712 0.838695 -1.8651 0
M  V30 2044 H 190.867 3.31835 -1.9991 0
M  V30 2045 H 191.281 3.13475 -4.20516 0
M  V30 2046 H 192.755 4.50792 -3.18576 0
M  V30 2047 H 193.232 4.11476 -1.53572 0
M  V30 2048 H 193.838 3.12572 -2.88407 0
M  V30 2049 N 192.153 1.28127 0.917671 0
M  V30 2050 C 193.116 1.11744 2.00115 0
M  V30 2051 C 194.116 0.0583052 1.60694 0
M  V30 2052 O 195.306 0.303755 1.71531 0
M  V30 2053 C 192.438 0.704862 3.33533 0
M  V30 2054 H 193.631 2.07966 2.16079 0
M  V30 2055 H 191.184 1.11058 1.09981 0
M  V30 2056 H 191.919 -0.258299 3.2327 0
M  V30 2057 H 191.704 1.4699 3.63505 0
M  V30 2058 H 193.194 0.612768 4.1308 0
M  V30 2059 N 193.631 -1.12557 1.10312 0
M  V30 2060 C 194.578 -2.18247 0.750781 0
M  V30 2061 C 195.548 -1.63853 -0.272293 0
M  V30 2062 O 196.733 -1.90195 -0.151862 0
M  V30 2063 C 193.873 -3.44591 0.187379 0
M  V30 2064 C 192.986 -4.13046 1.2656 0
M  V30 2065 C 192.121 -5.27034 0.663978 0
M  V30 2066 C 191.16 -5.87353 1.72287 0
M  V30 2067 N 190.297 -6.92757 1.1416 0
M  V30 2068 H 195.137 -2.47732 1.65628 0
M  V30 2069 H 192.674 -1.21629 0.827337 0
M  V30 2070 H 194.632 -4.16904 -0.157148 0
M  V30 2071 H 193.262 -3.15527 -0.681355 0
M  V30 2072 H 192.314 -3.38924 1.72727 0
M  V30 2073 H 193.626 -4.53947 2.06721 0
M  V30 2074 H 192.78 -6.06104 0.268824 0
M  V30 2075 H 191.519 -4.87407 -0.169082 0
M  V30 2076 H 190.524 -5.06971 2.12746 0
M  V30 2077 H 191.749 -6.29051 2.55875 0
M  V30 2078 H 189.695 -6.5517 0.329984 0
M  V30 2079 H 189.612 -7.3225 1.88007 0
M  V30 2080 H 190.88 -7.75658 0.772956 0
M  V30 2081 N 195.109 -0.891671 -1.2995 0
M  V30 2082 C 196.525 -0.58662 -1.48428 0
M  V30 2083 C 196.725 0.873951 -1.81561 0
M  V30 2084 O 195.781 1.65471 -1.90724 0
M  V30 2085 C 197.094 -1.50553 -2.60296 0
M  V30 2086 C 198.642 -1.50988 -2.74175 0
M  V30 2087 C 199.117 -2.41488 -3.89163 0
M  V30 2088 N 200.608 -2.39489 -3.96483 0
M  V30 2089 C 201.343 -3.06223 -4.84784 0
M  V30 2090 N 200.839 -3.82206 -5.77833 0
M  V30 2091 N 202.632 -2.95421 -4.78208 0
M  V30 2092 H 194.783 -1.83644 -1.06718 0
M  V30 2093 H 197.046 -0.786455 -0.529332 0
M  V30 2094 H 196.752 -2.54581 -2.42654 0
M  V30 2095 H 196.626 -1.22008 -3.56923 0
M  V30 2096 H 199.013 -0.47708 -2.91218 0
M  V30 2097 H 199.094 -1.83567 -1.78148 0
M  V30 2098 H 198.738 -3.44857 -3.72876 0
M  V30 2099 H 198.668 -2.06222 -4.84541 0
M  V30 2100 H 201.159 -1.84278 -3.29924 0
M  V30 2101 H 201.472 -4.302 -6.41988 0
M  V30 2102 H 199.817 -3.86313 -5.77743 0
M  V30 2103 H 203.008 -2.35581 -4.04499 0
M  V30 2104 H 203.181 -3.47704 -5.46814 0
M  V30 2105 N 196.587 1.43421 -0.653314 0
M  V30 2106 C 197.537 2.2792 0.060558 0
M  V30 2107 C 198.521 1.39906 0.794677 0
M  V30 2108 O 199.713 1.63536 0.677128 0
M  V30 2109 C 196.842 3.27603 1.0262 0
M  V30 2110 C 195.928 4.23104 0.290551 0
M  V30 2111 N 196.319 5.01031 -0.692967 0
M  V30 2112 C 194.617 4.42816 0.531984 0
M  V30 2113 C 195.318 5.70626 -1.12963 0
M  V30 2114 N 194.294 5.41617 -0.463867 0
M  V30 2115 H 198.096 2.85585 -0.694143 0
M  V30 2116 H 195.61 1.55126 -0.480602 0
M  V30 2117 H 197.607 3.86918 1.55242 0
M  V30 2118 H 196.267 2.71499 1.78096 0
M  V30 2119 H 197.278 5.0669 -1.07169 0
M  V30 2120 H 193.955 3.97782 1.26791 0
M  V30 2121 H 195.345 6.4318 -1.94343 0
M  V30 2122 N 198.065 0.39524 1.52563 0
M  V30 2123 C 198.995 -0.428384 2.29537 0
M  V30 2124 C 199.976 -1.05831 1.33169 0
M  V30 2125 O 201.161 -1.06995 1.62067 0
M  V30 2126 C 198.291 -1.55274 3.10656 0
M  V30 2127 C 197.245 -1.04855 4.14957 0
M  V30 2128 C 196.571 -2.26543 4.84337 0
M  V30 2129 C 197.871 -0.112324 5.22179 0
M  V30 2130 H 199.565 0.213867 2.98635 0
M  V30 2131 H 197.111 0.104298 1.43622 0
M  V30 2132 H 199.064 -2.1358 3.63265 0
M  V30 2133 H 197.788 -2.22266 2.39302 0
M  V30 2134 H 196.447 -0.487985 3.63338 0
M  V30 2135 H 196.095 -2.92059 4.09525 0
M  V30 2136 H 195.795 -1.93466 5.54837 0
M  V30 2137 H 197.319 -2.85481 5.39753 0
M  V30 2138 H 198.733 -0.603752 5.70112 0
M  V30 2139 H 197.13 0.128968 5.99961 0
M  V30 2140 H 198.2 0.837052 4.77621 0
M  V30 2141 N 199.544 -1.57102 0.125237 0
M  V30 2142 C 200.79 -1.95697 -0.532035 0
M  V30 2143 C 201.123 -1.009 -1.6593 0
M  V30 2144 O 200.398 -0.047347 -1.94442 0
M  V30 2145 C 200.681 -3.44181 -1.05884 0
M  V30 2146 C 200.534 -4.49752 0.0654392 0
M  V30 2147 C 201.853 -3.94655 -1.9477 0
M  V30 2148 H 198.972 -0.711571 -0.191925 0
M  V30 2149 H 201.614 -1.88923 0.20206 0
M  V30 2150 H 199.764 -3.50085 -1.68442 0
M  V30 2151 H 201.436 -4.55943 0.700982 0
M  V30 2152 H 199.679 -4.27653 0.727709 0
M  V30 2153 H 200.35 -5.50924 -0.344505 0
M  V30 2154 H 202.826 -3.91094 -1.42074 0
M  V30 2155 H 201.702 -4.99057 -2.28546 0
M  V30 2156 H 201.963 -3.35718 -2.87656 0
M  V30 2157 N 201.022 0.148545 -1.56898 0
M  V30 2158 C 201.952 1.18524 -2.01182 0
M  V30 2159 C 202.933 1.4489 -0.891123 0
M  V30 2160 O 204.118 1.55836 -1.15882 0
M  V30 2161 C 201.248 2.51879 -2.39112 0
M  V30 2162 C 200.202 2.40038 -3.54353 0
M  V30 2163 C 199.528 3.78089 -3.78091 0
M  V30 2164 C 200.828 1.88577 -4.87069 0
M  V30 2165 H 202.522 0.817029 -2.88036 0
M  V30 2166 H 200.068 0.391575 -1.38574 0
M  V30 2167 H 202.021 3.24627 -2.68692 0
M  V30 2168 H 200.745 2.90532 -1.49193 0
M  V30 2169 H 199.404 1.69742 -3.24936 0
M  V30 2170 H 199.052 4.14175 -2.85426 0
M  V30 2171 H 198.752 3.71028 -4.55645 0
M  V30 2172 H 200.276 4.52387 -4.10095 0
M  V30 2173 H 201.69 2.51117 -5.15377 0
M  V30 2174 H 200.087 1.9241 -5.68417 0
M  V30 2175 H 201.157 0.84136 -4.77545 0
M  V30 2176 N 202.5 1.5196 0.417844 0
M  V30 2177 C 203.463 1.74065 1.49111 0
M  V30 2178 C 204.463 0.610537 1.48758 0
M  V30 2179 O 205.653 0.87832 1.50437 0
M  V30 2180 C 202.785 1.81502 2.88565 0
M  V30 2181 H 203.978 2.69869 1.30807 0
M  V30 2182 H 201.531 1.42244 0.647785 0
M  V30 2183 H 202.266 0.875813 3.1225 0
M  V30 2184 H 202.051 2.63651 2.90225 0
M  V30 2185 H 203.541 2.00376 3.66387 0
M  V30 2186 N 203.978 -0.674533 1.42435 0
M  V30 2187 C 205.218 -1.4466 1.44405 0
M  V30 2188 C 205.582 -1.91911 0.0585784 0
M  V30 2189 O 206.783 -2.68759 -0.0469991 0
M  V30 2190 C 205.054 -2.61136 2.44013 0
M  V30 2191 S 206.613 -3.49981 2.64687 0
M  V30 2192 H 203.431 -0.494074 0.511284 0
M  V30 2193 H 206.033 -0.785162 1.7904 0
M  V30 2194 H 204.737 -2.24662 3.43446 0
M  V30 2195 H 204.268 -3.32153 2.10803 0
M  V30 2196 H 206.283 -4.57124 1.93007 0
M  V30 2197 N 205.456 -1.28612 -0.910864 0
M  V30 2198 C 206.406 -1.09423 -2.00026 0
M  V30 2199 C 207.39 -0.0170079 -1.60891 0
M  V30 2200 O 208.582 -0.237472 -1.754 0
M  V30 2201 C 205.711 -0.76114 -3.34756 0
M  V30 2202 C 204.797 -1.87735 -3.80285 0
M  V30 2203 N 205.188 -3.11938 -3.98156 0
M  V30 2204 C 203.486 -1.76786 -4.09467 0
M  V30 2205 C 204.187 -3.84687 -4.36338 0
M  V30 2206 N 203.163 -3.12555 -4.44759 0
M  V30 2207 H 206.965 -2.03658 -2.11898 0
M  V30 2208 H 204.479 -1.19573 -1.09891 0
M  V30 2209 H 206.476 -0.604743 -4.12491 0
M  V30 2210 H 205.136 0.173403 -3.24237 0
M  V30 2211 H 206.147 -3.47516 -3.83996 0
M  V30 2212 H 202.824 -0.905284 -4.07567 0
M  V30 2213 H 204.214 -4.91518 -4.58104 0
M  V30 2214 N 206.934 1.1197 -1.10907 0
M  V30 2215 C 208.164 1.8713 -0.875553 0
M  V30 2216 C 208.572 1.8016 0.577843 0
M  V30 2217 O 207.915 1.17699 1.41042 0
M  V30 2218 C 207.977 3.37005 -1.2517 0
M  V30 2219 C 207.641 3.67748 -2.71313 0
M  V30 2220 C 208.638 3.65698 -3.69542 0
M  V30 2221 C 206.323 3.96928 -3.07821 0
M  V30 2222 C 208.317 3.92395 -5.023 0
M  V30 2223 C 206.004 4.23284 -4.40765 0
M  V30 2224 C 207.002 4.21005 -5.37814 0
M  V30 2225 O 206.69 4.46704 -6.68364 0
M  V30 2226 H 206.422 0.598786 -0.313737 0
M  V30 2227 H 208.976 1.42568 -1.47863 0
M  V30 2228 H 207.206 3.82146 -0.591741 0
M  V30 2229 H 208.895 3.93519 -0.994877 0
M  V30 2230 H 209.661 3.43211 -3.42682 0
M  V30 2231 H 205.54 3.97841 -2.32902 0
M  V30 2232 H 209.084 3.90531 -5.78041 0
M  V30 2233 H 204.981 4.45246 -4.67361 0
M  V30 2234 H 205.749 4.64299 -6.74069 0
M  V30 2235 N 208.412 0.89855 1.29475 0
M  V30 2236 C 209.689 0.443416 1.90508 0
M  V30 2237 C 210.069 -1.07685 1.81569 0
M  V30 2238 O 209.417 -1.9182 1.24166 0
M  V30 2239 C 209.627 0.956708 3.35631 0
M  V30 2240 C 210.975 0.999728 4.12663 0
M  V30 2241 O 211.999 0.904299 3.4453 0
M  V30 2242 O 210.858 1.14289 5.34416 0
M  V30 2243 H 207.952 0.138025 0.815401 0
M  V30 2244 H 210.498 0.98834 1.37949 0
M  V30 2245 H 209.27 2.00067 3.36287 0
M  V30 2246 H 208.893 0.391728 3.95666 0
M  V30 2247 N 209.89 -1.43072 0.660911 0
M  V30 2248 C 211.115 -2.06584 0.183805 0
M  V30 2249 C 211.54 -1.49257 -1.14472 0
M  V30 2250 O 210.898 -0.605528 -1.70889 0
M  V30 2251 C 210.946 -3.60418 0.114434 0
M  V30 2252 O 210.05 -4.01981 -0.921137 0
M  V30 2253 H 209.391 -0.656669 0.0983994 0
M  V30 2254 H 211.921 -1.83447 0.906006 0
M  V30 2255 H 211.931 -4.07946 -0.0663394 0
M  V30 2256 H 210.606 -4.01519 1.08422 0
M  V30 2257 H 209.183 -3.66029 -0.71253 0
M  V30 2258 N 211.368 -0.403325 -1.52352 0
M  V30 2259 C 212.315 0.425011 -2.26853 0
M  V30 2260 C 213.285 1.04598 -1.29029 0
M  V30 2261 O 214.47 1.07135 -1.57882 0
M  V30 2262 C 211.61 1.53888 -3.08889 0
M  V30 2263 C 210.723 0.939396 -4.21663 0
M  V30 2264 C 209.858 2.02547 -4.91068 0
M  V30 2265 C 208.897 1.40263 -5.95813 0
M  V30 2266 N 208.034 2.4286 -6.58759 0
M  V30 2267 H 212.874 -0.21674 -2.97211 0
M  V30 2268 H 210.411 -0.118722 -1.4662 0
M  V30 2269 H 212.369 2.19558 -3.54753 0
M  V30 2270 H 210.999 2.15074 -2.40714 0
M  V30 2271 H 210.051 0.171898 -3.80011 0
M  V30 2272 H 211.363 0.44436 -4.96817 0
M  V30 2273 H 210.517 2.75958 -5.40308 0
M  V30 2274 H 209.256 2.55415 -4.15469 0
M  V30 2275 H 208.261 0.653833 -5.45898 0
M  V30 2276 H 209.486 0.881719 -6.73352 0
M  V30 2277 H 207.432 2.94871 -5.85992 0
M  V30 2278 H 207.349 1.98152 -7.2957 0
M  V30 2279 H 208.617 3.15858 -7.12639 0
M  V30 2280 N 212.846 1.57033 -0.133567 0
M  V30 2281 C 214.076 1.99754 0.527429 0
M  V30 2282 C 214.484 1.01245 1.59832 0
M  V30 2283 O 213.827 -0.000645496 1.837 0
M  V30 2284 C 213.889 3.38903 1.19939 0
M  V30 2285 C 213.553 4.56174 0.274709 0
M  V30 2286 C 214.55 5.17563 -0.492398 0
M  V30 2287 C 212.235 5.01972 0.18153 0
M  V30 2288 C 214.229 6.2315 -1.34027 0
M  V30 2289 C 211.916 6.07416 -0.669958 0
M  V30 2290 C 212.914 6.67874 -1.42947 0
M  V30 2291 O 212.602 7.71279 -2.2668 0
M  V30 2292 H 212.334 0.660702 0.142999 0
M  V30 2293 H 214.888 2.04207 -0.221099 0
M  V30 2294 H 213.118 3.31248 1.99528 0
M  V30 2295 H 214.807 3.65818 1.75875 0
M  V30 2296 H 215.573 4.83087 -0.430367 0
M  V30 2297 H 211.452 4.54652 0.762422 0
M  V30 2298 H 214.996 6.70268 -1.93357 0
M  V30 2299 H 210.893 6.41321 -0.73333 0
M  V30 2300 H 211.661 7.88441 -2.1978 0
M  V30 2301 N 214.325 -0.140222 1.56975 0
M  V30 2302 C 215.572 -0.851687 1.83719 0
M  V30 2303 C 215.9 -1.80862 0.715485 0
M  V30 2304 O 215.155 -1.93464 -0.294956 0
M  V30 2305 C 215.454 -1.65386 3.16832 0
M  V30 2306 C 215.12 -0.843112 4.42947 0
M  V30 2307 C 213.782 -0.619464 4.77196 0
M  V30 2308 C 216.134 -0.276582 5.20466 0
M  V30 2309 C 213.462 0.181312 5.8642 0
M  V30 2310 C 215.814 0.51127 6.30531 0
M  V30 2311 C 214.478 0.745432 6.63325 0
M  V30 2312 H 213.748 -0.311654 0.672274 0
M  V30 2313 H 216.395 -0.115006 1.91154 0
M  V30 2314 H 214.7 -2.46084 3.04877 0
M  V30 2315 H 216.397 -2.20793 3.34741 0
M  V30 2316 H 212.987 -1.0275 4.16101 0
M  V30 2317 H 217.171 -0.436632 4.94376 0
M  V30 2318 H 212.427 0.372165 6.10266 0
M  V30 2319 H 216.601 0.957354 6.89788 0
M  V30 2320 H 214.228 1.36778 7.47794 0
M  V30 2321 N 215.803 -1.52179 -0.40978 0
M  V30 2322 C 217.028 -1.70347 -1.18308 0
M  V30 2323 C 217.453 -0.411887 -1.83535 0
M  V30 2324 O 216.811 0.630587 -1.6998 0
M  V30 2325 C 216.859 -2.83977 -2.22238 0
M  V30 2326 O 215.963 -2.495 -3.28365 0
M  V30 2327 H 215.304 -0.567103 -0.345384 0
M  V30 2328 H 217.834 -1.98879 -0.480445 0
M  V30 2329 H 217.844 -3.0887 -2.66577 0
M  V30 2330 H 216.519 -3.77685 -1.74146 0
M  V30 2331 H 215.096 -2.35277 -2.89308 0
M  V30 2332 N 217.281 0.66697 -1.42791 0
M  V30 2333 C 218.231 1.77313 -1.43332 0
M  V30 2334 C 219.215 1.5801 -0.303586 0
M  V30 2335 O 220.407 1.68356 -0.546385 0
M  V30 2336 C 217.536 3.15822 -1.34578 0
M  V30 2337 C 216.622 3.40721 -2.52528 0
M  V30 2338 N 217.013 3.36162 -3.77927 0
M  V30 2339 C 215.311 3.71387 -2.46956 0
M  V30 2340 C 216.012 3.60762 -4.56318 0
M  V30 2341 N 214.988 3.81908 -3.86843 0
M  V30 2342 H 218.79 1.72193 -2.38174 0
M  V30 2343 H 216.304 0.868114 -1.3725 0
M  V30 2344 H 218.301 3.951 -1.33048 0
M  V30 2345 H 216.961 3.22133 -0.407453 0
M  V30 2346 H 217.972 3.15885 -4.10411 0
M  V30 2347 H 214.649 3.84897 -1.61743 0
M  V30 2348 H 216.039 3.63132 -5.65318 0
M  V30 2349 N 218.759 1.29093 0.90403 0
M  V30 2350 C 220.005 1.17996 1.65676 0
M  V30 2351 C 220.36 -0.266816 1.90541 0
M  V30 2352 O 219.653 -1.19 1.50165 0
M  V30 2353 C 219.847 1.92224 3.01305 0
M  V30 2354 C 219.676 3.43972 2.89678 0
M  V30 2355 C 218.446 4.1332 2.90679 0
M  V30 2356 C 220.644 4.39546 2.67028 0
M  V30 2357 N 218.626 5.51463 2.69743 0
M  V30 2358 C 219.997 5.65119 2.5503 0
M  V30 2359 C 222.052 4.29359 2.52101 0
M  V30 2360 C 220.755 6.81663 2.29626 0
M  V30 2361 C 222.781 5.4565 2.28079 0
M  V30 2362 C 222.143 6.70193 2.16843 0
M  V30 2363 H 218.242 0.486759 0.612037 0
M  V30 2364 H 220.826 1.62868 1.06688 0
M  V30 2365 H 218.997 1.49773 3.58361 0
M  V30 2366 H 220.729 1.73429 3.65656 0
M  V30 2367 H 217.484 3.64984 3.01801 0
M  V30 2368 H 217.908 6.24105 2.6234 0
M  V30 2369 H 222.55 3.33769 2.59534 0
M  V30 2370 H 220.268 7.77313 2.20932 0
M  V30 2371 H 223.854 5.39664 2.1738 0
M  V30 2372 H 222.734 7.58659 1.98511 0
M  V30 2373 N 220.237 -1.11381 1.11499 0
M  V30 2374 C 221.185 -2.19522 0.768956 0
M  V30 2375 C 222.179 -1.67693 -0.239857 0
M  V30 2376 O 223.385 -1.79727 -0.0990755 0
M  V30 2377 H 219.76 -0.715711 0.230786 0
M  V30 2378 H 221.731 -2.45954 1.68964 0
M  V30 2379 C 220.48 -3.46945 0.229073 0
M  V30 2380 H 219.803 -3.8718 0.996596 0
M  V30 2381 H 221.243 -4.23993 0.0251441 0
M  V30 2382 C 219.702 -3.2042 -1.04079 0
M  V30 2383 O 220.232 -3.41178 -2.12038 0
M  V30 2384 N 218.438 -2.74151 -0.963823 0
M  V30 2385 H 217.985 -2.57459 -0.0851722 0
M  V30 2386 H 217.943 -2.56781 -1.81414 0
M  V30 2387 N 221.715 -0.905404 -1.28997 0
M  V30 2388 C 222.663 -0.377431 -2.29517 0
M  V30 2389 C 223.657 0.526461 -1.61012 0
M  V30 2390 O 224.863 0.40863 -1.753 0
M  V30 2391 H 221.238 -0.103437 -0.744852 0
M  V30 2392 H 223.209 -1.23848 -2.71485 0
M  V30 2393 C 221.958 0.374833 -3.45674 0
M  V30 2394 H 221.281 -0.311474 -3.98585 0
M  V30 2395 H 222.721 0.70903 -4.1803 0
M  V30 2396 C 221.18 1.57963 -2.97572 0
M  V30 2397 O 221.71 2.67886 -2.99333 0
M  V30 2398 N 219.916 1.42375 -2.53333 0
M  V30 2399 H 219.463 0.529466 -2.521 0
M  V30 2400 H 219.421 2.23117 -2.21509 0
M  V30 2401 N 223.193 1.4272 -0.668489 0
M  V30 2402 C 224.609 1.55992 -0.33745 0
M  V30 2403 C 224.809 1.64933 1.15756 0
M  V30 2404 O 223.865 1.61278 1.94282 0
M  V30 2405 C 225.178 2.81314 -1.06222 0
M  V30 2406 C 226.726 2.95078 -1.04394 0
M  V30 2407 C 227.201 4.23252 -1.74991 0
M  V30 2408 N 228.692 4.3015 -1.71829 0
M  V30 2409 C 229.427 5.28127 -2.23315 0
M  V30 2410 N 228.923 6.32293 -2.83156 0
M  V30 2411 N 230.716 5.19882 -2.13726 0
M  V30 2412 H 222.867 1.3516 -1.63846 0
M  V30 2413 H 225.13 0.650174 -0.689912 0
M  V30 2414 H 224.836 2.80823 -2.11734 0
M  V30 2415 H 224.71 3.72012 -0.62344 0
M  V30 2416 H 227.097 2.951 0.0028244 0
M  V30 2417 H 227.178 2.05627 -1.52155 0
M  V30 2418 H 226.822 4.2399 -2.79633 0
M  V30 2419 H 226.752 5.11626 -1.24685 0
M  V30 2420 H 229.243 3.55499 -1.28175 0
M  V30 2421 H 229.556 7.03398 -3.20079 0
M  V30 2422 H 227.901 6.32873 -2.87223 0
M  V30 2423 H 231.092 4.37423 -1.66669 0
M  V30 2424 H 231.265 5.96077 -2.54158 0
M  V30 2425 N 224.671 0.411399 1.52136 0
M  V30 2426 C 225.917 -0.163888 2.02137 0
M  V30 2427 C 226.25 -1.44597 1.29636 0
M  V30 2428 O 225.525 -1.90272 0.403353 0
M  V30 2429 C 225.808 -0.40927 3.57767 0
M  V30 2430 C 225.661 0.889643 4.40914 0
M  V30 2431 C 226.98 -1.19042 4.23694 0
M  V30 2432 H 224.099 -0.0580896 0.734707 0
M  V30 2433 H 226.741 0.54531 1.82007 0
M  V30 2434 H 224.891 -1.0134 3.7505 0
M  V30 2435 H 226.563 1.52575 4.35337 0
M  V30 2436 H 224.806 1.50011 4.07037 0
M  V30 2437 H 225.477 0.672314 5.4789 0
M  V30 2438 H 227.953 -0.678942 4.10524 0
M  V30 2439 H 226.829 -1.33086 5.32522 0
M  V30 2440 H 227.09 -2.21166 3.82803 0
M  V30 2441 N 226.149 -1.5696 0.141893 0
M  V30 2442 C 227.396 -1.9596 -0.510492 0
M  V30 2443 C 227.724 -1.02648 -1.65208 0
M  V30 2444 O 226.979 -0.0546947 -1.95624 0
M  V30 2445 C 227.278 -3.41242 -1.06249 0
M  V30 2446 C 226.944 -4.50882 -0.0398791 0
M  V30 2447 C 225.606 -4.80595 0.241247 0
M  V30 2448 C 227.958 -5.17058 0.65578 0
M  V30 2449 C 225.286 -5.73792 1.22393 0
M  V30 2450 C 227.638 -6.11313 1.62724 0
M  V30 2451 C 226.302 -6.39407 1.91612 0
M  V30 2452 H 225.572 -0.717068 -0.186802 0
M  V30 2453 H 228.219 -1.90142 0.227643 0
M  V30 2454 H 226.524 -3.43866 -1.87785 0
M  V30 2455 H 228.221 -3.68742 -1.57576 0
M  V30 2456 H 224.811 -4.27754 -0.269174 0
M  V30 2457 H 228.995 -4.94239 0.451779 0
M  V30 2458 H 224.251 -5.93853 1.45424 0
M  V30 2459 H 228.425 -6.61668 2.17183 0
M  V30 2460 H 226.052 -7.11427 2.6791 0
M  V30 2461 N 227.627 0.131896 -1.57047 0
M  V30 2462 C 228.873 0.843179 -1.84441 0
M  V30 2463 C 229.206 1.80129 -0.725749 0
M  V30 2464 O 228.481 1.92624 0.269469 0
M  V30 2465 C 228.764 1.60442 -3.22382 0
M  V30 2466 C 228.617 0.666782 -4.4483 0
M  V30 2467 C 229.936 2.56354 -3.5773 0
M  V30 2468 H 227.055 0.305081 -0.670891 0
M  V30 2469 H 229.697 0.107839 -1.89694 0
M  V30 2470 H 227.847 2.23128 -3.18035 0
M  V30 2471 H 229.519 0.0497646 -4.61273 0
M  V30 2472 H 227.762 -0.022609 -4.33794 0
M  V30 2473 H 228.433 1.23579 -5.37989 0
M  V30 2474 H 230.909 2.0378 -3.62785 0
M  V30 2475 H 229.785 3.06657 -4.5525 0
M  V30 2476 H 230.046 3.38419 -2.84473 0
M  V30 2477 N 229.106 1.52395 0.401703 0
M  V30 2478 C 230.354 1.66488 1.14569 0
M  V30 2479 C 230.675 0.400897 1.90835 0
M  V30 2480 O 229.945 -0.584415 1.8698 0
M  V30 2481 H 228.525 0.613672 0.425929 0
M  V30 2482 H 231.187 1.89464 0.457093 0
M  V30 2483 H 230.283 2.50942 1.85566 0
M  V30 2484 N 230.584 -0.659388 1.43143 0
M  V30 2485 C 231.547 -1.75432 1.47501 0
M  V30 2486 C 232.547 -1.56707 0.360512 0
M  V30 2487 O 233.737 -1.62717 0.622002 0
M  V30 2488 C 230.869 -3.14239 1.32162 0
M  V30 2489 H 232.062 -1.7295 2.45006 0
M  V30 2490 H 229.615 -0.870469 1.29817 0
M  V30 2491 H 230.35 -3.22336 0.356401 0
M  V30 2492 H 230.135 -3.29235 2.12948 0
M  V30 2493 H 231.625 -3.94094 1.3813 0
M  V30 2494 N 232.062 -1.29571 -0.897171 0
M  V30 2495 C 233.29 -1.20583 -1.68129 0
M  V30 2496 C 233.705 0.233181 -1.87354 0
M  V30 2497 O 233.062 1.15579 -1.41236 0
M  V30 2498 C 233.113 -1.91772 -3.06441 0
M  V30 2499 O 232.834 -3.30053 -2.88091 0
M  V30 2500 C 234.335 -1.89291 -4.00854 0
M  V30 2501 H 231.555 -0.417826 -0.525036 0
M  V30 2502 H 234.099 -1.70987 -1.12177 0
M  V30 2503 H 232.254 -1.45196 -3.59161 0
M  V30 2504 H 232.668 -3.65942 -3.75748 0
M  V30 2505 H 234.142 -2.43662 -4.95311 0
M  V30 2506 H 234.619 -0.869014 -4.30517 0
M  V30 2507 H 235.225 -2.35622 -3.54066 0
M  V30 2508 N 233.54 1.10788 -1.12088 0
M  V30 2509 C 234.817 1.79136 -0.785476 0
M  V30 2510 C 235.197 1.98246 0.725377 0
M  V30 2511 O 234.545 1.57258 1.65778 0
M  V30 2512 C 234.755 3.12375 -1.55636 0
M  V30 2513 C 236.103 3.8731 -1.74001 0
M  V30 2514 O 237.127 3.22085 -1.52117 0
M  V30 2515 O 235.986 5.04369 -2.10415 0
M  V30 2516 H 233.08 0.776226 -0.285311 0
M  V30 2517 H 235.626 1.1747 -1.2247 0
M  V30 2518 H 234.398 2.93863 -2.5838 0
M  V30 2519 H 234.021 3.81758 -1.11114 0
M  V30 2520 N 235.018 0.912232 1.28515 0
M  V30 2521 C 236.243 0.559774 1.99703 0
M  V30 2522 C 236.668 -0.851393 1.67729 0
M  V30 2523 O 236.026 -1.56875 0.908834 0
M  V30 2524 C 236.074 0.773874 3.52198 0
M  V30 2525 O 235.178 -0.167842 4.12058 0
M  V30 2526 H 234.519 0.21723 0.627461 0
M  V30 2527 H 237.049 1.22725 1.63706 0
M  V30 2528 H 237.059 0.683386 4.02236 0
M  V30 2529 H 235.734 1.80261 3.74805 0
M  V30 2530 H 234.311 -0.0287509 3.72889 0
M  V30 2531 N 236.496 -1.42363 0.676048 0
M  V30 2532 C 237.459 -2.29199 0.00766941 0
M  V30 2533 C 238.459 -1.43389 -0.727745 0
M  V30 2534 O 239.649 -1.64764 -0.56556 0
M  V30 2535 C 236.781 -3.2591 -0.999785 0
M  V30 2536 H 237.974 -2.89794 0.771988 0
M  V30 2537 H 235.527 -1.50024 0.438468 0
M  V30 2538 H 236.262 -2.70256 -1.79255 0
M  V30 2539 H 236.047 -3.89202 -0.475829 0
M  V30 2540 H 237.537 -3.91028 -1.46583 0
M  V30 2541 N 237.974 -0.419461 -1.51915 0
M  V30 2542 C 239.22 0.153166 -2.02221 0
M  V30 2543 C 239.553 1.43907 -1.30401 0
M  V30 2544 O 238.828 1.90055 -0.413438 0
M  V30 2545 C 239.111 0.390291 -3.57979 0
M  V30 2546 C 238.964 -0.913014 -4.40436 0
M  V30 2547 C 240.283 1.16794 -4.2432 0
M  V30 2548 H 237.402 0.0541924 -0.735005 0
M  V30 2549 H 240.044 -0.554955 -1.81715 0
M  V30 2550 H 238.194 0.993491 -3.75582 0
M  V30 2551 H 239.866 -1.54882 -4.34522 0
M  V30 2552 H 238.109 -1.52168 -4.06236 0
M  V30 2553 H 238.78 -0.701361 -5.47526 0
M  V30 2554 H 241.256 0.657161 -4.10878 0
M  V30 2555 H 240.132 1.3026 -5.3322 0
M  V30 2556 H 240.393 2.19132 -3.83971 0
M  V30 2557 N 239.452 1.56882 -0.150215 0
M  V30 2558 C 240.863 1.82995 0.370076 0
M  V30 2559 C 241.214 1.06907 1.64515 0
M  V30 2560 O 240.339 0.315369 2.1409 0
M  V30 2561 C 240.934 3.31942 0.678208 0
M  V30 2562 C 239.493 3.58625 1.14301 0
M  V30 2563 C 238.64 2.76792 0.167778 0
M  V30 2564 H 241.591 1.54209 -0.374858 0
M  V30 2565 H 241.612 3.48272 1.53254 0
M  V30 2566 H 241.124 3.87294 -0.249991 0
M  V30 2567 H 239.225 3.08664 2.08704 0
M  V30 2568 H 239.338 4.67073 1.06676 0
M  V30 2569 H 237.702 2.45972 0.661037 0
M  V30 2570 H 238.485 3.34916 -0.754069 0
M  V30 2571 N 240.93 -0.123565 1.57115 0
M  V30 2572 C 242.17 -0.838097 1.86428 0
M  V30 2573 C 242.534 -1.77266 0.737611 0
M  V30 2574 O 243.735 -2.52842 0.912389 0
M  V30 2575 C 242.006 -1.57219 3.20962 0
M  V30 2576 S 243.565 -2.32893 3.71896 0
M  V30 2577 H 240.383 -0.279811 0.653626 0
M  V30 2578 H 242.985 -0.0967034 1.95261 0
M  V30 2579 H 241.689 -0.877522 4.00909 0
M  V30 2580 H 241.22 -2.35405 3.15195 0
M  V30 2581 H 243.235 -3.5853 3.43032 0
M  V30 2582 N 242.408 -1.52605 -0.393616 0
M  V30 2583 C 243.371 -1.76415 -1.46323 0
M  V30 2584 C 244.371 -0.634126 -1.47768 0
M  V30 2585 O 245.561 -0.902142 -1.4902 0
M  V30 2586 C 242.693 -1.8607 -2.85641 0
M  V30 2587 H 243.886 -2.71916 -1.26498 0
M  V30 2588 H 241.439 -1.43257 -0.625073 0
M  V30 2589 H 242.174 -0.925378 -3.10817 0
M  V30 2590 H 241.959 -2.68235 -2.85993 0
M  V30 2591 H 243.449 -2.06179 -3.63153 0
M  V30 2592 N 243.887 0.651787 -1.4349 0
M  V30 2593 C 244.82 1.77668 -1.43211 0
M  V30 2594 C 245.798 1.59931 -0.29338 0
M  V30 2595 O 246.982 1.82095 -0.487191 0
M  V30 2596 C 244.109 3.14986 -1.24505 0
M  V30 2597 C 243.155 3.51421 -2.41673 0
M  V30 2598 S 243.988 3.51234 -4.04222 0
M  V30 2599 C 245.144 4.91206 -3.87902 0
M  V30 2600 H 245.377 1.77635 -2.38397 0
M  V30 2601 H 242.91 0.824558 -1.30539 0
M  V30 2602 H 244.868 3.94237 -1.144 0
M  V30 2603 H 243.529 3.1258 -0.308651 0
M  V30 2604 H 242.722 4.51291 -2.24393 0
M  V30 2605 H 242.324 2.79585 -2.48411 0
M  V30 2606 H 244.616 5.79902 -3.50315 0
M  V30 2607 H 245.559 5.13537 -4.8753 0
M  V30 2608 H 245.967 4.64808 -3.20334 0
M  V30 2609 N 245.365 1.30045 0.890287 0
M  V30 2610 C 246.298 1.10301 1.99772 0
M  V30 2611 C 247.276 0.0121631 1.62595 0
M  V30 2612 O 248.46 0.16469 1.87779 0
M  V30 2613 C 245.587 0.681125 3.31781 0
M  V30 2614 C 244.633 1.77206 3.87944 0
M  V30 2615 S 245.466 3.37335 4.15891 0
M  V30 2616 C 246.622 2.97036 5.50927 0
M  V30 2617 H 246.855 2.04057 2.16213 0
M  V30 2618 H 244.388 1.14299 1.03804 0
M  V30 2619 H 246.346 0.444439 4.08087 0
M  V30 2620 H 245.007 -0.236981 3.13205 0
M  V30 2621 H 244.2 1.42903 4.83316 0
M  V30 2622 H 243.802 1.96275 3.18358 0
M  V30 2623 H 246.094 2.44666 6.31779 0
M  V30 2624 H 247.037 3.91296 5.90164 0
M  V30 2625 H 247.445 2.35057 5.13233 0
M  V30 2626 N 246.843 -1.10192 1.12674 0
M  V30 2627 C 247.773 -2.18652 0.819362 0
M  V30 2628 C 248.754 -1.68698 -0.217915 0
M  V30 2629 O 249.939 -1.94041 -0.0785581 0
M  V30 2630 C 247.069 -3.46202 0.27594 0
M  V30 2631 C 246.023 -4.09444 1.24656 0
M  V30 2632 C 245.349 -5.31725 0.563258 0
M  V30 2633 C 246.649 -4.52863 2.60217 0
M  V30 2634 H 248.343 -2.44622 1.72628 0
M  V30 2635 H 245.889 -1.17571 0.831451 0
M  V30 2636 H 247.842 -4.21372 0.0486149 0
M  V30 2637 H 246.566 -3.1973 -0.666331 0
M  V30 2638 H 245.225 -3.36284 1.45974 0
M  V30 2639 H 244.873 -5.0153 -0.384235 0
M  V30 2640 H 244.573 -5.74991 1.21075 0
M  V30 2641 H 246.097 -6.09624 0.34503 0
M  V30 2642 H 247.511 -5.19294 2.42913 0
M  V30 2643 H 245.908 -5.06986 3.21068 0
M  V30 2644 H 246.978 -3.65656 3.18471 0
M  V30 2645 N 248.321 -0.919034 -1.28029 0
M  V30 2646 C 249.231 -0.416756 -2.30869 0
M  V30 2647 C 250.247 0.498235 -1.66714 0
M  V30 2648 O 251.423 0.383144 -1.97722 0
M  V30 2649 C 248.488 0.330274 -3.45123 0
M  V30 2650 C 247.549 -0.618578 -4.2482 0
M  V30 2651 C 246.782 0.0928959 -5.33619 0
M  V30 2652 O 247.005 1.31375 -5.55065 0
M  V30 2653 O 245.939 -0.574499 -5.99152 0
M  V30 2654 H 249.765 -1.27043 -2.75851 0
M  V30 2655 H 247.35 -0.684052 -1.3282 0
M  V30 2656 H 249.232 0.751972 -4.14636 0
M  V30 2657 H 247.907 1.1597 -3.02213 0
M  V30 2658 H 246.814 -1.08978 -3.57875 0
M  V30 2659 H 248.147 -1.41497 -4.71423 0
M  V30 2660 N 249.799 1.42003 -0.683588 0
M  V30 2661 C 250.729 2.33487 -0.024866 0
M  V30 2662 C 251.71 1.51163 0.779975 0
M  V30 2663 O 252.895 1.79739 0.735362 0
M  V30 2664 C 250.025 3.3487 0.920836 0
M  V30 2665 C 248.979 4.27414 0.223958 0
M  V30 2666 C 248.305 5.19074 1.2832 0
M  V30 2667 C 249.605 5.14445 -0.90242 0
M  V30 2668 H 251.299 2.88819 -0.788921 0
M  V30 2669 H 248.845 1.38873 -0.38083 0
M  V30 2670 H 250.798 3.97787 1.39081 0
M  V30 2671 H 249.522 2.77861 1.71642 0
M  V30 2672 H 248.181 3.65904 -0.225864 0
M  V30 2673 H 247.829 4.58387 2.071 0
M  V30 2674 H 247.529 5.81822 0.821995 0
M  V30 2675 H 249.053 5.84867 1.75392 0
M  V30 2676 H 250.467 5.70998 -0.513272 0
M  V30 2677 H 248.864 5.86072 -1.28997 0
M  V30 2678 H 249.934 4.52322 -1.74737 0
M  V30 2679 N 251.277 0.427512 1.51691 0
M  V30 2680 C 252.24 -0.377132 2.26076 0
M  V30 2681 C 253.24 -0.958089 1.29141 0
M  V30 2682 O 254.43 -0.83408 1.52934 0
M  V30 2683 C 251.562 -1.53262 3.04506 0
M  V30 2684 H 252.755 0.27464 2.9864 0
M  V30 2685 H 250.308 0.180445 1.55255 0
M  V30 2686 H 251.043 -2.22072 2.36335 0
M  V30 2687 H 250.828 -1.12232 3.75694 0
M  V30 2688 H 252.318 -2.10135 3.60878 0
M  V30 2689 N 252.755 -1.56801 0.158532 0
M  V30 2690 C 254.171 -1.5837 -0.197774 0
M  V30 2691 C 254.371 -1.17334 -1.63814 0
M  V30 2692 O 253.427 -0.878988 -2.36707 0
M  V30 2693 C 254.74 -3.00615 0.0714459 0
M  V30 2694 C 256.288 -3.12999 0.00864533 0
M  V30 2695 C 256.763 -4.57313 0.250685 0
M  V30 2696 N 258.254 -4.62777 0.198014 0
M  V30 2697 C 258.989 -5.72271 0.359642 0
M  V30 2698 N 258.485 -6.90371 0.579625 0
M  V30 2699 N 260.278 -5.61318 0.296438 0
M  V30 2700 H 252.429 -1.81765 1.09887 0
M  V30 2701 H 254.692 -0.841849 0.435884 0
M  V30 2702 H 254.398 -3.35068 1.06874 0
M  V30 2703 H 254.272 -3.71683 -0.642757 0
M  V30 2704 H 256.659 -2.7838 -0.979217 0
M  V30 2705 H 256.74 -2.44393 0.755359 0
M  V30 2706 H 256.384 -4.92639 1.2357 0
M  V30 2707 H 256.314 -5.24061 -0.516489 0
M  V30 2708 H 258.805 -3.77885 0.0331115 0
M  V30 2709 H 259.118 -7.69689 0.69275 0
M  V30 2710 H 257.463 -6.92264 0.616087 0
M  V30 2711 H 260.654 -4.67932 0.125258 0
M  V30 2712 H 260.827 -6.46599 0.425831 0
M  V30 2713 N 254.233 0.115231 -1.57178 0
M  V30 2714 C 255.196 1.12526 -1.99676 0
M  V30 2715 C 256.196 1.34095 -0.88742 0
M  V30 2716 O 257.386 1.30548 -1.15337 0
M  V30 2717 C 254.518 2.4789 -2.34015 0
M  V30 2718 H 255.711 0.759912 -2.90113 0
M  V30 2719 H 253.264 0.359648 -1.52106 0
M  V30 2720 H 253.999 2.89339 -1.4647 0
M  V30 2721 H 253.784 2.33588 -3.14927 0
M  V30 2722 H 255.274 3.20575 -2.67622 0
M  V30 2723 N 255.711 1.52812 0.385517 0
M  V30 2724 C 256.641 1.80808 1.47752 0
M  V30 2725 C 257.622 0.660318 1.5676 0
M  V30 2726 O 258.807 0.908246 1.71652 0
M  V30 2727 C 255.937 1.98008 2.85324 0
M  V30 2728 C 254.891 3.13709 2.91154 0
M  V30 2729 C 254.217 3.16169 4.31209 0
M  V30 2730 C 255.517 4.52709 2.60483 0
M  V30 2731 H 257.211 2.72253 1.24573 0
M  V30 2732 H 254.757 1.31003 0.597839 0
M  V30 2733 H 256.71 2.16176 3.61726 0
M  V30 2734 H 255.434 1.03255 3.09848 0
M  V30 2735 H 254.093 2.95329 2.17201 0
M  V30 2736 H 253.741 2.19092 4.52778 0
M  V30 2737 H 253.441 3.93894 4.36029 0
M  V30 2738 H 254.965 3.36496 5.09512 0
M  V30 2739 H 256.379 4.71173 3.26602 0
M  V30 2740 H 254.776 5.32528 2.76648 0
M  V30 2741 H 255.846 4.59186 1.55809 0
M  V30 2742 N 257.189 -0.644168 1.43834 0
M  V30 2743 C 258.466 -1.40188 1.36406 0
M  V30 2744 C 258.846 -2.11094 0.0163124 0
M  V30 2745 O 258.194 -2.05426 -1.00062 0
M  V30 2746 C 258.404 -2.3791 2.55343 0
M  V30 2747 C 259.752 -3.01637 2.98832 0
M  V30 2748 O 260.776 -2.48237 2.55455 0
M  V30 2749 O 259.635 -3.98477 3.74003 0
M  V30 2750 H 256.729 -0.626773 0.539523 0
M  V30 2751 H 259.275 -0.670317 1.559 0
M  V30 2752 H 258.047 -1.84525 3.4506 0
M  V30 2753 H 257.67 -3.18503 2.37995 0
M  V30 2754 N 258.668 -1.30515 -0.883378 0
M  V30 2755 C 259.615 -1.17032 -1.98927 0
M  V30 2756 C 260.585 -0.0594241 -1.65994 0
M  V30 2757 O 261.77 -0.229895 -1.8941 0
M  V30 2758 C 258.91 -0.869777 -3.33959 0
M  V30 2759 C 258.023 -2.06271 -3.79574 0
M  V30 2760 C 257.158 -1.70011 -5.03259 0
M  V30 2761 C 256.197 -2.8579 -5.41286 0
M  V30 2762 N 255.334 -2.49816 -6.56153 0
M  V30 2763 H 260.174 -2.1164 -2.09792 0
M  V30 2764 H 257.711 -1.05296 -1.02719 0
M  V30 2765 H 259.669 -0.676138 -4.11685 0
M  V30 2766 H 258.299 0.0394332 -3.22776 0
M  V30 2767 H 257.351 -2.36755 -2.97744 0
M  V30 2768 H 258.663 -2.92971 -4.03694 0
M  V30 2769 H 257.817 -1.47032 -5.88614 0
M  V30 2770 H 256.556 -0.804829 -4.81013 0
M  V30 2771 H 255.561 -3.09434 -4.54456 0
M  V30 2772 H 256.786 -3.76008 -5.65504 0
M  V30 2773 H 254.732 -1.62795 -6.35479 0
M  V30 2774 H 254.649 -3.30048 -6.8015 0
M  V30 2775 H 255.917 -2.30197 -7.44735 0
M  V30 2776 N 260.146 1.09593 -1.13257 0
M  V30 2777 C 261.093 2.1618 -0.808381 0
M  V30 2778 C 262.063 1.64517 0.228754 0
M  V30 2779 O 263.248 1.9053 0.101381 0
M  V30 2780 C 260.388 3.43973 -0.278675 0
M  V30 2781 C 259.501 4.09545 -1.37466 0
M  V30 2782 C 258.636 5.25088 -0.803479 0
M  V30 2783 C 257.675 5.82579 -1.87799 0
M  V30 2784 N 256.812 6.89486 -1.32488 0
M  V30 2785 H 261.652 2.43254 -1.72138 0
M  V30 2786 H 259.189 1.19392 -0.859294 0
M  V30 2787 H 261.147 4.17174 0.0465583 0
M  V30 2788 H 259.777 3.17223 0.597459 0
M  V30 2789 H 258.829 3.34226 -1.81652 0
M  V30 2790 H 260.141 4.48307 -2.18684 0
M  V30 2791 H 259.295 6.05178 -0.429427 0
M  V30 2792 H 258.034 4.87684 0.0397956 0
M  V30 2793 H 257.039 5.01152 -2.26113 0
M  V30 2794 H 258.264 6.22045 -2.72463 0
M  V30 2795 H 256.21 6.54064 -0.503575 0
M  V30 2796 H 256.127 7.27007 -2.07355 0
M  V30 2797 H 257.395 7.73336 -0.978336 0
M  V30 2798 N 261.624 0.925811 1.2754 0
M  V30 2799 C 262.554 0.440748 2.29303 0
M  V30 2800 C 263.535 -0.497971 1.62648 0
M  V30 2801 O 264.72 -0.403126 1.8997 0
M  V30 2802 C 261.85 -0.309048 3.45922 0
M  V30 2803 C 260.804 0.54166 4.24559 0
M  V30 2804 C 260.13 -0.337191 5.33636 0
M  V30 2805 C 261.43 1.80516 4.90114 0
M  V30 2806 H 263.124 1.29121 2.70126 0
M  V30 2807 H 260.67 0.622323 1.29858 0
M  V30 2808 H 262.623 -0.659315 4.1621 0
M  V30 2809 H 261.347 -1.19352 3.04011 0
M  V30 2810 H 260.006 0.874609 3.56014 0
M  V30 2811 H 259.654 -1.22056 4.87966 0
M  V30 2812 H 259.354 0.228497 5.87156 0
M  V30 2813 H 260.878 -0.683072 6.06767 0
M  V30 2814 H 262.292 1.52307 5.52698 0
M  V30 2815 H 260.689 2.3142 5.53683 0
M  V30 2816 H 261.759 2.52581 4.13921 0
M  V30 2817 N 263.102 -1.41638 0.69111 0
M  V30 2818 C 264.032 -2.3347 0.037248 0
M  V30 2819 C 265.013 -1.51575 -0.771947 0
M  V30 2820 O 266.198 -1.80126 -0.72582 0
M  V30 2821 C 263.328 -3.35354 -0.903064 0
M  V30 2822 C 262.282 -4.27526 -0.201288 0
M  V30 2823 C 261.608 -5.19747 -1.25565 0
M  V30 2824 C 262.908 -5.13959 0.929689 0
M  V30 2825 H 264.602 -2.88397 0.804227 0
M  V30 2826 H 262.148 -1.38669 0.388189 0
M  V30 2827 H 264.101 -3.98519 -1.36969 0
M  V30 2828 H 262.825 -2.78767 -1.70166 0
M  V30 2829 H 261.484 -3.65779 0.245265 0
M  V30 2830 H 261.132 -4.59479 -2.04666 0
M  V30 2831 H 260.832 -5.8225 -0.791128 0
M  V30 2832 H 262.356 -5.85789 -1.72288 0
M  V30 2833 H 263.77 -5.70718 0.543546 0
M  V30 2834 H 262.167 -5.85379 1.32103 0
M  V30 2835 H 263.237 -4.51389 1.77133 0
M  V30 2836 N 264.58 -0.43555 -1.51462 0
M  V30 2837 C 265.805 0.132627 -2.06976 0
M  V30 2838 C 266.23 1.35848 -1.30104 0
M  V30 2839 O 265.588 1.78112 -0.338493 0
M  V30 2840 C 265.636 0.43523 -3.57964 0
M  V30 2841 O 264.74 1.52198 -3.83288 0
M  V30 2842 H 264.081 0.00265 -0.663995 0
M  V30 2843 H 266.611 -0.616369 -1.95095 0
M  V30 2844 H 266.621 0.686206 -4.02188 0
M  V30 2845 H 265.296 -0.460739 -4.1334 0
M  V30 2846 H 263.873 1.2611 -3.50928 0
M  V30 2847 N 266.058 1.56714 -0.166846 0
M  V30 2848 C 266.988 2.20754 0.760913 0
M  V30 2849 C 267.969 1.16178 1.24244 0
M  V30 2850 O 269.154 1.44592 1.29641 0
M  V30 2851 C 266.284 2.84478 1.99223 0
M  V30 2852 C 265.238 3.95053 1.64672 0
M  V30 2853 C 264.564 4.45805 2.95232 0
M  V30 2854 C 265.864 5.14865 0.878155 0
M  V30 2855 H 267.558 2.98537 0.22713 0
M  V30 2856 H 265.104 1.43596 0.107805 0
M  V30 2857 H 267.057 3.27951 2.64624 0
M  V30 2858 H 265.781 2.04056 2.55007 0
M  V30 2859 H 264.44 3.52228 1.01641 0
M  V30 2860 H 264.088 3.62181 3.49047 0
M  V30 2861 H 263.788 5.204 2.7287 0
M  V30 2862 H 265.312 4.91962 3.6167 0
M  V30 2863 H 266.726 5.55059 1.43466 0
M  V30 2864 H 265.123 5.95348 0.753738 0
M  V30 2865 H 266.193 4.84735 -0.126377 0
M  V30 2866 N 267.536 -0.106894 1.57237 0
M  V30 2867 C 268.483 -1.13049 2.01217 0
M  V30 2868 C 269.453 -1.40471 0.886403 0
M  V30 2869 O 270.638 -1.52133 1.15153 0
M  V30 2870 C 267.778 -2.4487 2.43172 0
M  V30 2871 C 266.891 -2.24281 3.69218 0
M  V30 2872 C 266.026 -3.49417 4.00101 0
M  V30 2873 C 265.065 -3.24038 5.19294 0
M  V30 2874 N 264.202 -4.41409 5.45988 0
M  V30 2875 H 269.042 -0.748456 2.88448 0
M  V30 2876 H 266.579 -0.358054 1.42676 0
M  V30 2877 H 268.537 -3.21786 2.65537 0
M  V30 2878 H 267.167 -2.80944 1.58967 0
M  V30 2879 H 266.219 -1.38224 3.54398 0
M  V30 2880 H 267.531 -2.01512 4.56283 0
M  V30 2881 H 266.685 -4.34746 4.2318 0
M  V30 2882 H 265.424 -3.75229 3.11535 0
M  V30 2883 H 264.429 -2.37102 4.96047 0
M  V30 2884 H 265.654 -2.99584 6.09447 0
M  V30 2885 H 263.6 -4.67319 4.60379 0
M  V30 2886 H 263.517 -4.21788 6.274 0
M  V30 2887 H 264.785 -5.27836 5.73593 0
M  V30 2888 N 269.014 -1.53014 -0.377408 0
M  V30 2889 C 270.242 -1.72515 -1.14219 0
M  V30 2890 C 270.657 -0.448735 -1.8339 0
M  V30 2891 O 270.014 0.577592 -1.73119 0
M  V30 2892 C 270.065 -2.8826 -2.18148 0
M  V30 2893 O 269.786 -4.10962 -1.51795 0
M  V30 2894 C 271.287 -3.19536 -3.07264 0
M  V30 2895 H 268.507 -0.577301 -0.342001 0
M  V30 2896 H 271.051 -1.99712 -0.439935 0
M  V30 2897 H 269.206 -2.63492 -2.83991 0
M  V30 2898 H 269.62 -4.75693 -2.20945 0
M  V30 2899 H 271.094 -4.03959 -3.76193 0
M  V30 2900 H 271.571 -2.34403 -3.71419 0
M  V30 2901 H 272.177 -3.46186 -2.47053 0
M  V30 2902 N 270.492 0.636531 -1.44174 0
M  V30 2903 C 271.738 1.39826 -1.4689 0
M  V30 2904 C 272.071 1.93947 -0.0990585 0
M  V30 2905 O 271.346 1.73325 0.882544 0
M  V30 2906 C 271.629 2.56751 -2.5249 0
M  V30 2907 C 271.482 2.08014 -3.98811 0
M  V30 2908 C 272.801 3.58946 -2.54649 0
M  V30 2909 H 269.92 0.507075 -0.53483 0
M  V30 2910 H 272.562 0.720188 -1.75822 0
M  V30 2911 H 270.712 3.14597 -2.2795 0
M  V30 2912 H 272.384 1.5504 -4.34466 0
M  V30 2913 H 270.627 1.39242 -4.10846 0
M  V30 2914 H 271.298 2.92169 -4.68339 0
M  V30 2915 H 273.774 3.1089 -2.76563 0
M  V30 2916 H 272.65 4.38286 -3.3045 0
M  V30 2917 H 272.911 4.12655 -1.58646 0
M  V30 2918 N 271.97 1.30982 0.876444 0
M  V30 2919 C 273.195 1.23373 1.66715 0
M  V30 2920 C 273.62 -0.19885 1.87046 0
M  V30 2921 O 272.978 -1.1427 1.40756 0
M  V30 2922 C 273.026 1.97644 3.01611 0
M  V30 2923 O 272.13 1.30935 3.91062 0
M  V30 2924 H 271.471 0.426279 0.509099 0
M  V30 2925 H 274.001 1.72944 1.09323 0
M  V30 2926 H 274.011 2.06992 3.51594 0
M  V30 2927 H 272.686 3.01829 2.86133 0
M  V30 2928 H 271.263 1.29996 3.49507 0
M  V30 2929 N 273.449 -1.08991 1.13837 0
M  V30 2930 C 274.726 -1.77863 0.813876 0
M  V30 2931 C 275.106 -1.99375 -0.693746 0
M  V30 2932 O 274.454 -1.59875 -1.63255 0
M  V30 2933 C 274.664 -3.0986 1.60586 0
M  V30 2934 C 276.012 -3.84493 1.8014 0
M  V30 2935 O 277.036 -3.19624 1.57222 0
M  V30 2936 O 275.895 -5.00957 2.18413 0
M  V30 2937 H 272.989 -0.771589 0.297624 0
M  V30 2938 H 275.535 -1.15507 1.24323 0
M  V30 2939 H 274.307 -2.89715 2.63022 0
M  V30 2940 H 273.93 -3.79942 1.17173 0
M  V30 2941 N 274.927 -0.932562 -1.27047 0
M  V30 2942 C 276.152 -0.591474 -1.98787 0
M  V30 2943 C 276.577 0.824601 -1.69062 0
M  V30 2944 O 275.935 1.5541 -0.933677 0
M  V30 2945 C 275.983 -0.829808 -3.50922 0
M  V30 2946 O 275.087 0.102266 -4.12273 0
M  V30 2947 H 274.428 -0.227185 -0.623926 0
M  V30 2948 H 276.958 -1.25314 -1.61733 0
M  V30 2949 H 276.968 -0.747292 -4.01098 0
M  V30 2950 H 275.643 -1.86201 -3.7189 0
M  V30 2951 H 274.22 -0.0305761 -3.72887 0
M  V30 2952 N 276.405 1.4127 -0.698611 0
M  V30 2953 C 277.352 2.30773 -0.0352094 0
M  V30 2954 C 278.322 1.47273 0.768111 0
M  V30 2955 O 279.507 1.76053 0.735524 0
M  V30 2956 C 276.647 3.33346 0.893 0
M  V30 2957 C 275.76 4.31924 0.0809695 0
M  V30 2958 C 274.895 5.21566 1.0071 0
M  V30 2959 C 273.934 6.11811 0.188155 0
M  V30 2960 N 273.071 6.93926 1.06825 0
M  V30 2961 H 277.911 2.86943 -0.804207 0
M  V30 2962 H 275.448 1.4132 -0.408294 0
M  V30 2963 H 277.406 3.91368 1.44523 0
M  V30 2964 H 276.036 2.78719 1.62836 0
M  V30 2965 H 275.088 3.75825 -0.588224 0
M  V30 2966 H 276.4 4.95716 -0.553801 0
M  V30 2967 H 275.554 5.84437 1.62845 0
M  V30 2968 H 274.293 4.58008 1.67572 0
M  V30 2969 H 273.298 5.47986 -0.446254 0
M  V30 2970 H 274.523 6.77425 -0.476716 0
M  V30 2971 H 272.469 6.32973 1.72283 0
M  V30 2972 H 272.386 7.54416 0.489123 0
M  V30 2973 H 273.654 7.61262 1.67632 0
M  V30 2974 N 277.883 0.443576 1.51229 0
M  V30 2975 C 279.294 -0.0180867 1.86691 0
M  V30 2976 C 279.645 -1.41384 1.36033 0
M  V30 2977 O 278.77 -2.04291 0.713722 0
M  V30 2978 C 279.365 -0.039597 3.38777 0
M  V30 2979 C 277.924 -0.445692 3.73752 0
M  V30 2980 C 277.071 0.357584 2.74985 0
M  V30 2981 H 280.022 0.659138 1.44364 0
M  V30 2982 H 280.043 -0.847761 3.70936 0
M  V30 2983 H 279.555 0.976382 3.75617 0
M  V30 2984 H 277.656 -1.46704 3.42503 0
M  V30 2985 H 277.769 -0.166155 4.78812 0
M  V30 2986 H 276.133 -0.184973 2.54027 0
M  V30 2987 H 276.916 1.37256 3.14668 0
M  V30 2988 N 279.361 -1.56624 0.175154 0
M  V30 2989 C 280.638 -1.88688 -0.515373 0
M  V30 2990 C 281.018 -1.08564 -1.81044 0
M  V30 2991 O 280.366 -0.180703 -2.27784 0
M  V30 2992 C 280.576 -3.40768 -0.753552 0
M  V30 2993 C 281.924 -4.10587 -1.08184 0
M  V30 2994 O 282.948 -3.46106 -0.841961 0
M  V30 2995 O 281.807 -5.24512 -1.53459 0
M  V30 2996 H 278.901 -0.78301 -0.26613 0
M  V30 2997 H 281.447 -1.68347 0.213877 0
M  V30 2998 H 280.219 -3.90965 0.161829 0
M  V30 2999 H 279.842 -3.66733 -1.53598 0
M  V30 3000 N 280.839 0.0985539 -1.57292 0
M  V30 3001 C 281.769 1.12064 -2.04851 0
M  V30 3002 C 282.75 1.41981 -0.936767 0
M  V30 3003 O 283.935 1.52071 -1.20781 0
M  V30 3004 C 281.065 2.44144 -2.47004 0
M  V30 3005 C 280.019 2.28643 -3.6181 0
M  V30 3006 C 279.345 3.65869 -3.89929 0
M  V30 3007 C 280.645 1.72986 -4.92822 0
M  V30 3008 H 282.339 0.724979 -2.9049 0
M  V30 3009 H 279.885 0.34729 -1.39749 0
M  V30 3010 H 281.838 3.15914 -2.78884 0
M  V30 3011 H 280.562 2.85639 -1.5836 0
M  V30 3012 H 279.221 1.59318 -3.30172 0
M  V30 3013 H 278.869 4.04885 -2.98458 0
M  V30 3014 H 278.569 3.56344 -4.67218 0
M  V30 3015 H 280.093 4.39112 -4.2428 0
M  V30 3016 H 281.507 2.34593 -5.23105 0
M  V30 3017 H 279.904 1.74229 -5.74251 0
M  V30 3018 H 280.974 0.689007 -4.7998 0
M  V30 3019 N 282.317 1.53212 0.369288 0
M  V30 3020 C 283.542 1.73423 1.1375 0
M  V30 3021 C 283.967 0.460404 1.82378 0
M  V30 3022 O 283.325 -0.585298 1.71592 0
M  V30 3023 C 283.373 2.89769 2.1463 0
M  V30 3024 O 282.477 2.58119 3.21634 0
M  V30 3025 H 281.818 0.576061 0.330227 0
M  V30 3026 H 284.348 2.00083 0.427547 0
M  V30 3027 H 284.358 3.15829 2.58294 0
M  V30 3028 H 283.033 3.8217 1.64071 0
M  V30 3029 H 281.61 2.42864 2.82969 0
M  V30 3030 N 283.795 -0.628877 1.44509 0
M  V30 3031 C 284.725 -1.75187 1.54376 0
M  V30 3032 C 285.706 -1.65411 0.396618 0
M  V30 3033 O 286.891 -1.84137 0.617031 0
M  V30 3034 C 284.021 -3.13725 1.48976 0
M  V30 3035 C 282.975 -3.38291 2.62189 0
M  V30 3036 C 282.301 -4.76883 2.41841 0
M  V30 3037 C 283.601 -3.30632 4.04326 0
M  V30 3038 H 285.295 -1.67187 2.48373 0
M  V30 3039 H 282.841 -0.802909 1.19538 0
M  V30 3040 H 284.794 -3.92064 1.54478 0
M  V30 3041 H 283.518 -3.22515 0.514961 0
M  V30 3042 H 282.177 -2.62334 2.56079 0
M  V30 3043 H 281.825 -4.82378 1.42548 0
M  V30 3044 H 281.525 -4.94278 3.17747 0
M  V30 3045 H 283.049 -5.57449 2.49165 0
M  V30 3046 H 284.463 -3.98873 4.11793 0
M  V30 3047 H 282.86 -3.59561 4.80454 0
M  V30 3048 H 283.93 -2.28404 4.27738 0
M  V30 3049 N 285.273 -1.31445 -0.869486 0
M  V30 3050 C 286.205 -1.14955 -1.98287 0
M  V30 3051 C 287.218 -0.0885037 -1.62559 0
M  V30 3052 O 288.407 -0.336044 -1.75308 0
M  V30 3053 C 285.507 -0.734255 -3.3085 0
M  V30 3054 C 284.68 -1.88042 -3.94917 0
M  V30 3055 C 283.739 -1.4511 -5.05796 0
M  V30 3056 O 282.765 -2.16082 -5.2659 0
M  V30 3057 N 283.967 -0.338763 -5.79511 0
M  V30 3058 H 286.732 -2.10856 -2.12979 0
M  V30 3059 H 284.293 -1.23786 -1.04349 0
M  V30 3060 H 286.285 -0.42975 -4.02412 0
M  V30 3061 H 284.855 0.133158 -3.12316 0
M  V30 3062 H 284.075 -2.35222 -3.1633 0
M  V30 3063 H 285.363 -2.6481 -4.34457 0
M  V30 3064 H 284.761 0.252274 -5.65137 0
M  V30 3065 H 283.318 -0.0937925 -6.51733 0
M  V30 3066 N 286.751 1.08385 -1.14413 0
M  V30 3067 C 287.681 2.17321 -0.854044 0
M  V30 3068 C 288.662 1.69024 0.191049 0
M  V30 3069 O 289.847 1.94141 0.0476779 0
M  V30 3070 C 286.977 3.45719 -0.330983 0
M  V30 3071 C 285.931 4.07409 -1.31155 0
M  V30 3072 C 285.257 5.30762 -0.64778 0
M  V30 3073 C 286.557 4.48665 -2.67388 0
M  V30 3074 H 288.251 2.41845 -1.76498 0
M  V30 3075 H 285.797 1.16233 -0.850051 0
M  V30 3076 H 287.75 4.21241 -0.115645 0
M  V30 3077 H 286.474 3.2075 0.615381 0
M  V30 3078 H 285.133 3.33919 -1.51306 0
M  V30 3079 H 284.781 5.02078 0.304398 0
M  V30 3080 H 284.481 5.72992 -1.30207 0
M  V30 3081 H 286.005 6.08998 -0.441972 0
M  V30 3082 H 287.419 5.15364 -2.51143 0
M  V30 3083 H 285.816 5.01814 -3.29093 0
M  V30 3084 H 286.886 3.60543 -3.24248 0
M  V30 3085 N 288.23 0.939286 1.26551 0
M  V30 3086 C 289.479 0.581601 1.93133 0
M  V30 3087 C 289.792 -0.883224 1.74524 0
M  V30 3088 O 290.998 -1.3502 2.35546 0
M  V30 3089 C 289.454 0.989425 3.46032 0
M  V30 3090 C 289.062 2.47573 3.73379 0
M  V30 3091 C 290.806 0.703544 4.18629 0
M  V30 3092 C 288.713 2.82235 5.19709 0
M  V30 3093 H 287.643 0.213803 0.723052 0
M  V30 3094 H 290.294 1.14167 1.4366 0
M  V30 3095 H 288.676 0.357902 3.94379 0
M  V30 3096 H 289.85 3.15614 3.35744 0
M  V30 3097 H 288.165 2.73471 3.1401 0
M  V30 3098 H 290.762 0.938869 5.26393 0
M  V30 3099 H 291.105 -0.359639 4.14744 0
M  V30 3100 H 291.638 1.2947 3.76141 0
M  V30 3101 H 288.377 3.87509 5.28694 0
M  V30 3102 H 287.897 2.18854 5.58447 0
M  V30 3103 H 289.576 2.70599 5.87695 0
M  V30 3104 N 289.708 -1.40897 0.706093 0
M  V30 3105 C 290.955 -2.01054 0.241531 0
M  V30 3106 C 291.283 -1.55956 -1.16223 0
M  V30 3107 O 290.538 -0.766336 -1.80072 0
M  V30 3108 C 290.837 -3.5646 0.259099 0
M  V30 3109 C 290.503 -4.21106 1.61184 0
M  V30 3110 C 289.165 -4.38479 1.98216 0
M  V30 3111 C 291.517 -4.57256 2.50132 0
M  V30 3112 C 288.845 -4.89282 3.2376 0
M  V30 3113 C 291.197 -5.09454 3.7502 0
M  V30 3114 C 289.861 -5.25037 4.12181 0
M  V30 3115 H 289.131 -0.73571 0.0883825 0
M  V30 3116 H 291.778 -1.68645 0.907257 0
M  V30 3117 H 290.083 -3.88721 -0.490189 0
M  V30 3118 H 291.78 -4.00826 -0.11804 0
M  V30 3119 H 288.37 -4.07966 1.31384 0
M  V30 3120 H 292.554 -4.43479 2.228 0
M  V30 3121 H 287.81 -4.99531 3.52532 0
M  V30 3122 H 291.984 -5.36404 4.44121 0
M  V30 3123 H 289.611 -5.64164 5.09532 0
M  V30 3124 N 291.186 -0.45159 -1.50991 0
M  V30 3125 C 292.433 0.110074 -2.02201 0
M  V30 3126 C 292.761 1.4146 -1.33489 0
M  V30 3127 O 292.016 1.90617 -0.443125 0
M  V30 3128 C 292.315 0.361728 -3.55565 0
M  V30 3129 C 291.981 -0.858717 -4.42648 0
M  V30 3130 C 290.643 -1.19338 -4.66167 0
M  V30 3131 C 292.995 -1.67221 -4.93646 0
M  V30 3132 C 290.323 -2.34195 -5.37931 0
M  V30 3133 C 292.675 -2.8119 -5.6667 0
M  V30 3134 C 291.339 -3.15094 -5.88449 0
M  V30 3135 H 290.609 0.040279 -0.739904 0
M  V30 3136 H 293.256 -0.601696 -1.81802 0
M  V30 3137 H 291.561 1.15554 -3.74372 0
M  V30 3138 H 293.258 0.80996 -3.92735 0
M  V30 3139 H 289.848 -0.58796 -4.24548 0
M  V30 3140 H 294.032 -1.42686 -4.75347 0
M  V30 3141 H 289.288 -2.6076 -5.53005 0
M  V30 3142 H 293.462 -3.44585 -6.05173 0
M  V30 3143 H 291.089 -4.04204 -6.43835 0
M  V30 3144 N 292.664 1.56529 -0.183458 0
M  V30 3145 C 293.941 1.88959 0.50536 0
M  V30 3146 C 294.321 1.09523 1.80466 0
M  V30 3147 O 293.669 0.19278 2.27685 0
M  V30 3148 C 293.879 3.41162 0.73547 0
M  V30 3149 C 295.227 4.11155 1.06005 0
M  V30 3150 O 296.251 3.46548 0.823594 0
M  V30 3151 O 295.11 5.25318 1.50675 0
M  V30 3152 H 292.204 0.78441 0.261973 0
M  V30 3153 H 294.75 1.68231 -0.222802 0
M  V30 3154 H 293.522 3.90874 -0.182561 0
M  V30 3155 H 293.145 3.67543 1.51651 0
M  V30 3156 N 294.142 -0.090211 1.57342 0
M  V30 3157 C 295.39 -0.791241 1.85967 0
M  V30 3158 C 295.711 -1.7903 0.772859 0
M  V30 3159 O 294.981 -1.94872 -0.200398 0
M  V30 3160 H 293.561 -0.295205 0.686195 0
M  V30 3161 H 296.223 -0.0706782 1.94772 0
M  V30 3162 H 295.319 -1.31882 2.82867 0
M  V30 3163 N 295.62 -1.53406 -0.361157 0
M  V30 3164 C 296.53 -1.83122 -1.4664 0
M  V30 3165 C 297.546 -0.719943 -1.58407 0
M  V30 3166 O 298.722 -1.01046 -1.74218 0
M  V30 3167 C 295.787 -2.01891 -2.81853 0
M  V30 3168 C 294.848 -3.25784 -2.79577 0
M  V30 3169 C 294.081 -3.43648 -4.0834 0
M  V30 3170 O 294.304 -2.65714 -5.0473 0
M  V30 3171 O 293.238 -4.37018 -4.13883 0
M  V30 3172 H 297.064 -2.7703 -1.24451 0
M  V30 3173 H 294.649 -1.38841 -0.551678 0
M  V30 3174 H 296.531 -2.15782 -3.61962 0
M  V30 3175 H 295.206 -1.11173 -3.0401 0
M  V30 3176 H 294.113 -3.17312 -1.98151 0
M  V30 3177 H 295.446 -4.16439 -2.62373 0
M  V30 3178 N 297.098 0.621204 -1.44841 0
M  V30 3179 C 298.008 1.7612 -1.5498 0
M  V30 3180 C 299.024 1.68477 -0.434927 0
M  V30 3181 O 300.2 1.89076 -0.693693 0
M  V30 3182 C 297.265 3.1254 -1.50065 0
M  V30 3183 C 296.326 3.31741 -2.72482 0
M  V30 3184 C 295.559 4.61653 -2.67792 0
M  V30 3185 O 295.782 5.431 -1.74352 0
M  V30 3186 O 294.716 4.83271 -3.58794 0
M  V30 3187 H 298.542 1.70518 -2.51311 0
M  V30 3188 H 296.127 0.783643 -1.27198 0
M  V30 3189 H 298.009 3.93844 -1.49882 0
M  V30 3190 H 296.684 3.18663 -0.568806 0
M  V30 3191 H 295.591 2.50077 -2.7823 0
M  V30 3192 H 296.924 3.30486 -3.64746 0
M  V30 3193 N 298.576 1.31904 0.862503 0
M  V30 3194 C 299.539 1.20131 1.95195 0
M  V30 3195 C 300.539 0.126409 1.60302 0
M  V30 3196 O 301.729 0.376234 1.70089 0
M  V30 3197 C 298.861 0.845691 3.30244 0
M  V30 3198 H 300.054 2.16943 2.07064 0
M  V30 3199 H 297.607 1.15622 1.05172 0
M  V30 3200 H 298.342 -0.120957 3.24074 0
M  V30 3201 H 298.127 1.62276 3.56944 0
M  V30 3202 H 299.617 0.787418 4.10109 0
M  V30 3203 N 300.054 -1.07777 1.14986 0
M  V30 3204 C 301.301 -1.8029 0.922056 0
M  V30 3205 C 301.629 -1.86531 -0.55105 0
M  V30 3206 O 300.884 -1.34189 -1.42449 0
M  V30 3207 C 301.183 -3.25495 1.47608 0
M  V30 3208 C 300.849 -3.39361 2.96893 0
M  V30 3209 C 299.511 -3.42852 3.37647 0
M  V30 3210 C 301.863 -3.42512 3.92854 0
M  V30 3211 C 299.191 -3.47094 4.73015 0
M  V30 3212 C 301.543 -3.4829 5.28088 0
M  V30 3213 C 300.207 -3.50058 5.68345 0
M  V30 3214 H 299.477 -0.659727 0.337404 0
M  V30 3215 H 302.124 -1.26854 1.43459 0
M  V30 3216 H 300.429 -3.81683 0.88463 0
M  V30 3217 H 302.126 -3.80168 1.27568 0
M  V30 3218 H 298.716 -3.37339 2.64387 0
M  V30 3219 H 302.9 -3.3904 3.62444 0
M  V30 3220 H 298.156 -3.46758 5.03556 0
M  V30 3221 H 302.33 -3.49675 6.02246 0
M  V30 3222 H 299.957 -3.53097 6.73221 0
M  V30 3223 N 301.532 -0.945985 -1.26051 0
M  V30 3224 C 302.462 -0.477172 -2.28572 0
M  V30 3225 C 303.443 0.472032 -1.63419 0
M  V30 3226 O 304.628 0.372853 -1.90587 0
M  V30 3227 C 301.758 0.253975 -3.4637 0
M  V30 3228 C 300.712 -0.609135 -4.23643 0
M  V30 3229 C 300.038 0.252252 -5.34105 0
M  V30 3230 C 301.338 -1.8829 -4.8718 0
M  V30 3231 H 303.032 -1.33402 -2.68038 0
M  V30 3232 H 300.578 -0.642904 -1.28852 0
M  V30 3233 H 302.531 0.593016 -4.17207 0
M  V30 3234 H 301.255 1.145 -3.05871 0
M  V30 3235 H 299.914 -0.931138 -3.54578 0
M  V30 3236 H 299.562 1.14278 -4.89846 0
M  V30 3237 H 299.262 -0.32188 -5.86718 0
M  V30 3238 H 300.786 0.586454 -6.07777 0
M  V30 3239 H 302.2 -1.61081 -5.50205 0
M  V30 3240 H 300.597 -2.40199 -5.49931 0
M  V30 3241 H 301.667 -2.59134 -4.09851 0
M  V30 3242 N 303.011 1.40521 -0.713556 0
M  V30 3243 C 303.961 2.27971 -0.036165 0
M  V30 3244 C 304.945 1.43151 0.734623 0
M  V30 3245 O 306.137 1.66261 0.607158 0
M  V30 3246 C 303.266 3.31661 0.886331 0
M  V30 3247 C 302.352 4.23955 0.110836 0
M  V30 3248 N 302.743 4.97641 -0.904847 0
M  V30 3249 C 301.041 4.44674 0.343692 0
M  V30 3250 C 301.742 5.65322 -1.37064 0
M  V30 3251 N 300.718 5.39162 -0.693168 0
M  V30 3252 H 304.52 2.82384 -0.814645 0
M  V30 3253 H 302.034 1.52948 -0.545963 0
M  V30 3254 H 304.031 3.93154 1.38692 0
M  V30 3255 H 302.691 2.78808 1.66421 0
M  V30 3256 H 303.702 5.01689 -1.28563 0
M  V30 3257 H 300.379 4.02801 1.09805 0
M  V30 3258 H 301.769 6.34359 -2.21447 0
M  V30 3259 N 304.489 0.459591 1.5075 0
M  V30 3260 C 305.735 -0.091664 2.03193 0
M  V30 3261 C 306.09 -1.38432 1.3362 0
M  V30 3262 O 305.383 -1.86257 0.449322 0
M  V30 3263 C 305.577 -0.342866 3.55752 0
M  V30 3264 C 305.406 0.923888 4.40107 0
M  V30 3265 C 304.176 1.46388 4.83631 0
M  V30 3266 C 306.374 1.81617 4.81165 0
M  V30 3267 N 304.356 2.68086 5.52271 0
M  V30 3268 C 305.727 2.87907 5.49099 0
M  V30 3269 C 307.782 1.82793 4.63132 0
M  V30 3270 C 306.485 3.95347 6.0091 0
M  V30 3271 C 308.511 2.89182 5.15876 0
M  V30 3272 C 307.873 3.94191 5.83774 0
M  V30 3273 H 303.972 0.00619247 0.781975 0
M  V30 3274 H 306.556 0.625233 1.84388 0
M  V30 3275 H 304.727 -1.0288 3.74527 0
M  V30 3276 H 306.459 -0.887445 3.9485 0
M  V30 3277 H 303.214 1.01466 4.62603 0
M  V30 3278 H 303.638 3.29857 5.91205 0
M  V30 3279 H 308.28 1.0293 4.1008 0
M  V30 3280 H 305.998 4.76035 6.53006 0
M  V30 3281 H 309.584 2.91061 5.0376 0
M  V30 3282 H 308.464 4.75161 6.23853 0
M  V30 3283 N 305.967 -1.56429 0.191757 0
M  V30 3284 C 307.192 -2.02309 -0.456706 0
M  V30 3285 C 307.617 -1.07103 -1.5463 0
M  V30 3286 O 306.975 -0.0539677 -1.8122 0
M  V30 3287 C 307.023 -3.46654 -0.993159 0
M  V30 3288 O 306.127 -3.54559 -2.10622 0
M  V30 3289 H 305.468 -0.655303 -0.107114 0
M  V30 3290 H 307.998 -2.02364 0.301653 0
M  V30 3291 H 308.008 -3.86377 -1.31061 0
M  V30 3292 H 306.683 -4.1544 -0.195504 0
M  V30 3293 H 305.26 -3.26708 -1.79767 0
M  V30 3294 N 307.445 0.0818655 -1.57387 0
M  V30 3295 C 308.856 0.634871 -1.75574 0
M  V30 3296 C 309.207 1.78435 -0.815809 0
M  V30 3297 O 308.332 2.164 0.0025366 0
M  V30 3298 C 308.927 1.15845 -3.18379 0
M  V30 3299 C 307.486 1.65741 -3.37945 0
M  V30 3300 C 306.633 0.572549 -2.71325 0
M  V30 3301 H 309.584 -0.144268 -1.58043 0
M  V30 3302 H 309.605 2.02751 -3.21982 0
M  V30 3303 H 309.117 0.321631 -3.86765 0
M  V30 3304 H 307.218 2.51781 -2.74658 0
M  V30 3305 H 307.331 1.74129 -4.46336 0
M  V30 3306 H 305.695 1.01518 -2.33594 0
M  V30 3307 H 306.478 -0.253918 -3.4236 0
M  V30 3308 N 308.923 1.53595 0.353017 0
M  V30 3309 C 309.855 1.77219 1.45348 0
M  V30 3310 C 310.868 0.65324 1.49119 0
M  V30 3311 O 312.057 0.929775 1.52373 0
M  V30 3312 C 309.157 1.84841 2.84055 0
M  V30 3313 C 308.33 3.14649 3.03833 0
M  V30 3314 C 307.389 3.13351 4.22727 0
M  V30 3315 O 306.415 3.87107 4.17297 0
M  V30 3316 N 307.617 2.35052 5.30783 0
M  V30 3317 H 310.382 2.72178 1.25457 0
M  V30 3318 H 307.943 1.52528 0.542833 0
M  V30 3319 H 309.935 1.81435 3.61751 0
M  V30 3320 H 308.505 0.971114 2.97133 0
M  V30 3321 H 307.725 3.31256 2.13689 0
M  V30 3322 H 309.013 4.00411 3.13925 0
M  V30 3323 H 308.411 1.74663 5.38061 0
M  V30 3324 H 306.968 2.37453 6.07009 0
M  V30 3325 N 310.401 -0.613514 1.45168 0
M  V30 3326 C 311.678 -1.37263 1.39349 0
M  V30 3327 C 312.058 -2.11012 0.0610848 0
M  V30 3328 O 311.406 -2.07502 -0.956825 0
M  V30 3329 C 311.616 -2.3244 2.60332 0
M  V30 3330 C 312.964 -2.9523 3.05163 0
M  V30 3331 O 313.988 -2.42762 2.60663 0
M  V30 3332 O 312.847 -3.90454 3.82372 0
M  V30 3333 H 309.941 -0.615188 0.552696 0
M  V30 3334 H 312.487 -0.637097 1.57287 0
M  V30 3335 H 311.259 -1.77164 3.48896 0
M  V30 3336 H 310.882 -3.13383 2.44698 0
M  V30 3337 N 311.879 -1.3236 -0.855495 0
M  V30 3338 C 313.104 -1.2601 -1.64731 0
M  V30 3339 C 313.529 0.169068 -1.87339 0
M  V30 3340 O 312.887 1.12016 -1.42556 0
M  V30 3341 C 312.935 -2.02417 -2.98429 0
M  V30 3342 O 312.039 -1.3714 -3.8893 0
M  V30 3343 H 311.38 -0.434325 -0.502253 0
M  V30 3344 H 313.91 -1.74661 -1.06558 0
M  V30 3345 H 313.92 -2.12559 -3.48257 0
M  V30 3346 H 312.595 -3.06343 -2.81295 0
M  V30 3347 H 311.172 -1.3554 -3.47395 0
M  V30 3348 N 313.357 1.07166 -1.15556 0
M  V30 3349 C 314.287 2.16403 -0.877046 0
M  V30 3350 C 315.268 1.69217 0.173111 0
M  V30 3351 O 316.453 1.94181 0.027084 0
M  V30 3352 C 313.583 3.45349 -0.367632 0
M  V30 3353 C 312.537 4.05995 -1.35468 0
M  V30 3354 C 311.863 5.30045 -0.704038 0
M  V30 3355 C 313.163 4.45804 -2.72132 0
M  V30 3356 H 314.857 2.39959 -1.79053 0
M  V30 3357 H 312.403 1.15325 -0.862331 0
M  V30 3358 H 314.356 4.21095 -0.160317 0
M  V30 3359 H 313.08 3.21385 0.581326 0
M  V30 3360 H 311.739 3.32296 -1.54839 0
M  V30 3361 H 311.387 5.02373 0.251128 0
M  V30 3362 H 311.087 5.71579 -1.36277 0
M  V30 3363 H 312.611 6.08495 -0.50654 0
M  V30 3364 H 314.025 5.12671 -2.56595 0
M  V30 3365 H 312.422 4.98296 -3.34397 0
M  V30 3366 H 313.492 3.57083 -3.28054 0
M  V30 3367 N 314.835 0.952656 1.25548 0
M  V30 3368 C 316.065 0.622592 1.96996 0
M  V30 3369 C 316.473 -0.809112 1.71026 0
M  V30 3370 O 315.816 -1.55258 0.981861 0
M  V30 3371 C 315.878 0.798946 3.5051 0
M  V30 3372 C 315.542 2.20744 4.00151 0
M  V30 3373 C 316.539 3.18394 4.11001 0
M  V30 3374 C 314.224 2.5311 4.33867 0
M  V30 3375 C 316.218 4.46504 4.54877 0
M  V30 3376 C 313.905 3.8145 4.7743 0
M  V30 3377 C 314.903 4.77959 4.87897 0
M  V30 3378 O 314.591 6.04012 5.30494 0
M  V30 3379 H 314.323 0.232503 0.634758 0
M  V30 3380 H 316.877 1.2789 1.60728 0
M  V30 3381 H 315.107 0.0854903 3.86605 0
M  V30 3382 H 316.796 0.47023 4.03167 0
M  V30 3383 H 317.562 2.94715 3.85186 0
M  V30 3384 H 313.441 1.78719 4.24948 0
M  V30 3385 H 316.985 5.21835 4.62962 0
M  V30 3386 H 312.882 4.04936 5.0269 0
M  V30 3387 H 313.65 6.0736 5.48685 0
M  V30 3388 N 316.313 -1.40141 0.720998 0
M  V30 3389 C 317.561 -2.0039 0.262323 0
M  V30 3390 C 317.882 -1.57469 -1.15015 0
M  V30 3391 O 317.152 -0.816582 -1.78069 0
M  V30 3392 H 315.732 -0.741063 0.093996 0
M  V30 3393 H 318.394 -1.71398 0.927835 0
M  V30 3394 H 317.49 -3.10658 0.299671 0
M  V30 3395 N 317.792 -0.46758 -1.50504 0
M  V30 3396 C 319.017 0.0886943 -2.0721 0
M  V30 3397 C 319.442 1.33057 -1.32956 0
M  V30 3398 O 318.8 1.77354 -0.376197 0
M  V30 3399 C 318.848 0.359202 -3.58806 0
M  V30 3400 O 317.952 1.44034 -3.8643 0
M  V30 3401 H 317.293 -0.0114349 -0.663902 0
M  V30 3402 H 319.823 -0.657613 -1.93744 0
M  V30 3403 H 319.833 0.600742 -4.03553 0
M  V30 3404 H 318.508 -0.548311 -4.1227 0
M  V30 3405 H 317.085 1.18638 -3.53524 0
M  V30 3406 N 319.27 1.56325 -0.20005 0
M  V30 3407 C 320.686 1.58839 0.155716 0
M  V30 3408 C 320.886 1.21636 1.60645 0
M  V30 3409 O 319.942 0.941437 2.34293 0
M  V30 3410 C 321.255 3.0032 -0.151124 0
M  V30 3411 C 322.803 3.12866 -0.0916284 0
M  V30 3412 C 323.278 4.56488 -0.371845 0
M  V30 3413 N 324.769 4.62089 -0.320641 0
M  V30 3414 C 325.504 5.71116 -0.511243 0
M  V30 3415 N 325 6.88592 -0.762461 0
M  V30 3416 N 326.793 5.60335 -0.445157 0
M  V30 3417 H 318.944 1.78788 -1.14668 0
M  V30 3418 H 321.207 0.829996 -0.458051 0
M  V30 3419 H 320.913 3.32117 -1.15721 0
M  V30 3420 H 320.787 3.73257 0.543986 0
M  V30 3421 H 323.174 2.80878 0.905065 0
M  V30 3422 H 323.255 2.42304 -0.81989 0
M  V30 3423 H 322.899 4.89189 -1.36588 0
M  V30 3424 H 322.829 5.25246 0.377362 0
M  V30 3425 H 325.32 3.77665 -0.13329 0
M  V30 3426 H 325.633 7.67581 -0.896576 0
M  V30 3427 H 323.978 6.90387 -0.799412 0
M  V30 3428 H 327.169 4.67436 -0.249278 0
M  V30 3429 H 327.342 6.45243 -0.597116 0
M  V30 3430 N 320.748 -0.0735177 1.57428 0
M  V30 3431 C 321.698 -1.09442 2.00016 0
M  V30 3432 C 322.682 -1.34575 0.881947 0
M  V30 3433 O 323.874 -1.34905 1.14585 0
M  V30 3434 C 321.003 -2.40865 2.4462 0
M  V30 3435 C 320.089 -2.19014 3.63172 0
M  V30 3436 N 320.48 -1.67087 4.77405 0
M  V30 3437 C 318.778 -2.49494 3.69688 0
M  V30 3438 C 319.479 -1.6001 5.5926 0
M  V30 3439 N 318.455 -2.05999 5.03056 0
M  V30 3440 H 322.257 -0.686227 2.85776 0
M  V30 3441 H 319.771 -0.280617 1.59957 0
M  V30 3442 H 321.768 -3.14763 2.73368 0
M  V30 3443 H 320.428 -2.82403 1.60246 0
M  V30 3444 H 321.439 -1.35975 4.99731 0
M  V30 3445 H 318.116 -2.94409 2.96023 0
M  V30 3446 H 319.506 -1.2073 6.60964 0
M  V30 3447 N 322.226 -1.5378 -0.344866 0
M  V30 3448 C 323.156 -1.84662 -1.42906 0
M  V30 3449 C 324.137 -0.701648 -1.54955 0
M  V30 3450 O 325.322 -0.953438 -1.69184 0
M  V30 3451 C 322.452 -2.05503 -2.79974 0
M  V30 3452 C 321.406 -3.21318 -2.82734 0
M  V30 3453 C 320.732 -3.2749 -4.22675 0
M  V30 3454 C 322.032 -4.59456 -2.48389 0
M  V30 3455 H 323.726 -2.75461 -1.17311 0
M  V30 3456 H 321.272 -1.32542 -0.562896 0
M  V30 3457 H 323.225 -2.25691 -3.55867 0
M  V30 3458 H 321.949 -1.11434 -3.07002 0
M  V30 3459 H 320.608 -3.00984 -2.09294 0
M  V30 3460 H 320.256 -2.31019 -4.4681 0
M  V30 3461 H 319.956 -4.05316 -4.25433 0
M  V30 3462 H 321.48 -3.49887 -5.00412 0
M  V30 3463 H 322.894 -4.79667 -3.13995 0
M  V30 3464 H 321.291 -5.39675 -2.62432 0
M  V30 3465 H 322.361 -4.63155 -1.4358 0
M  V30 3466 N 323.704 0.605807 -1.45491 0
M  V30 3467 C 324.667 1.69836 -1.5391 0
M  V30 3468 C 325.667 1.55261 -0.418424 0
M  V30 3469 O 326.857 1.60296 -0.681965 0
M  V30 3470 C 323.989 3.09117 -1.43734 0
M  V30 3471 H 325.182 1.63738 -2.51257 0
M  V30 3472 H 322.735 0.821689 -1.32959 0
M  V30 3473 H 323.47 3.20791 -0.475788 0
M  V30 3474 H 323.255 3.21104 -2.25021 0
M  V30 3475 H 324.745 3.88696 -1.52661 0
M  V30 3476 N 325.182 1.32811 0.848464 0
M  V30 3477 C 326.145 1.22194 1.9391 0
M  V30 3478 C 327.145 0.143404 1.60159 0
M  V30 3479 O 328.335 0.394253 1.6968 0
M  V30 3480 C 325.467 0.88067 3.29328 0
M  V30 3481 H 326.66 2.19127 2.04752 0
M  V30 3482 H 324.213 1.16731 1.0394 0
M  V30 3483 H 324.948 -0.0865776 3.24184 0
M  V30 3484 H 324.733 1.66052 3.55203 0
M  V30 3485 H 326.223 0.830871 4.09251 0
M  V30 3486 N 326.66 -1.06551 1.16123 0
M  V30 3487 C 327.607 -2.13961 0.865414 0
M  V30 3488 C 328.577 -1.65066 -0.185055 0
M  V30 3489 O 329.762 -1.90732 -0.05083 0
M  V30 3490 C 326.902 -3.43113 0.369776 0
M  V30 3491 C 326.015 -4.05756 1.48276 0
M  V30 3492 C 325.15 -5.22773 0.942414 0
M  V30 3493 C 324.189 -5.77395 2.03179 0
M  V30 3494 N 323.326 -6.85731 1.50721 0
M  V30 3495 H 328.166 -2.38605 1.78527 0
M  V30 3496 H 325.703 -1.17072 0.890646 0
M  V30 3497 H 327.661 -4.17151 0.0640643 0
M  V30 3498 H 326.291 -3.18695 -0.513143 0
M  V30 3499 H 325.343 -3.29292 1.9045 0
M  V30 3500 H 326.655 -4.42351 2.30493 0
M  V30 3501 H 325.809 -6.03827 0.589729 0
M  V30 3502 H 324.548 -4.87618 0.0895191 0
M  V30 3503 H 323.553 -4.94981 2.3932 0
M  V30 3504 H 324.778 -6.14603 2.8886 0
M  V30 3505 H 322.724 -6.52499 0.676811 0
M  V30 3506 H 322.641 -7.21254 2.26557 0
M  V30 3507 H 323.909 -7.7047 1.18303 0
M  V30 3508 N 328.138 -0.959301 -1.25041 0
M  V30 3509 C 329.071 -0.427418 -2.24161 0
M  V30 3510 C 330.049 0.493837 -1.54919 0
M  V30 3511 O 331.233 0.427144 -1.83597 0
M  V30 3512 C 328.36 0.383893 -3.36517 0
M  V30 3513 C 327.406 -0.478431 -4.23808 0
M  V30 3514 S 328.239 -1.91353 -5.00144 0
M  V30 3515 C 329.395 -1.11077 -6.15965 0
M  V30 3516 H 329.628 -1.26743 -2.6893 0
M  V30 3517 H 327.161 -0.763714 -1.34189 0
M  V30 3518 H 329.119 0.846039 -4.01687 0
M  V30 3519 H 327.78 1.19878 -2.90324 0
M  V30 3520 H 326.973 0.14406 -5.03794 0
M  V30 3521 H 326.575 -0.87597 -3.63597 0
M  V30 3522 H 328.867 -0.361699 -6.76534 0
M  V30 3523 H 329.81 -1.88472 -6.82557 0
M  V30 3524 H 330.218 -0.638843 -5.60873 0
M  V30 3525 N 329.616 1.39756 -0.72842 0
M  V30 3526 C 330.579 2.29012 -0.0927297 0
M  V30 3527 C 331.579 1.45992 0.674025 0
M  V30 3528 O 332.769 1.66749 0.50402 0
M  V30 3529 C 329.901 3.29396 0.878137 0
M  V30 3530 H 331.094 2.86729 -0.879011 0
M  V30 3531 H 328.647 1.48293 -0.493847 0
M  V30 3532 H 329.382 2.76722 1.69101 0
M  V30 3533 H 329.167 3.907 0.331051 0
M  V30 3534 H 330.657 3.96199 1.3197 0
M  V30 3535 N 331.094 0.475555 1.50254 0
M  V30 3536 C 332.319 -0.0777042 2.07254 0
M  V30 3537 C 332.744 -1.3235 1.3366 0
M  V30 3538 O 332.102 -1.77152 0.385597 0
M  V30 3539 C 332.15 -0.340169 3.58992 0
M  V30 3540 O 331.254 -1.41982 3.87188 0
M  V30 3541 H 330.595 0.0149556 0.663832 0
M  V30 3542 H 333.125 0.667878 1.93392 0
M  V30 3543 H 333.135 -0.579332 4.03866 0
M  V30 3544 H 331.81 0.570167 4.11973 0
M  V30 3545 H 330.387 -1.16762 3.54148 0
M  V30 3546 N 332.573 -1.56217 0.208337 0
M  V30 3547 C 333.801 -2.02337 -0.43215 0
M  V30 3548 C 334.216 -1.08834 -1.54275 0
M  V30 3549 O 333.573 -0.0955462 -1.8225 0
M  V30 3550 C 333.624 -3.48072 -0.976138 0
M  V30 3551 O 333.345 -4.38007 0.0901621 0
M  V30 3552 C 334.846 -4.09773 -1.69119 0
M  V30 3553 H 332.066 -0.662385 -0.10718 0
M  V30 3554 H 334.61 -2.01966 0.320923 0
M  V30 3555 H 332.765 -3.49099 -1.67954 0
M  V30 3556 H 333.179 -5.23543 -0.316701 0
M  V30 3557 H 334.653 -5.13556 -2.02397 0
M  V30 3558 H 335.13 -3.53999 -2.59964 0
M  V30 3559 H 335.736 -4.12556 -1.03332 0
M  V30 3560 N 334.051 0.0651679 -1.57465 0
M  V30 3561 C 335.462 0.616213 -1.76238 0
M  V30 3562 C 335.813 1.7756 -0.834689 0
M  V30 3563 O 334.938 2.1639 -0.0204156 0
M  V30 3564 C 335.533 1.12462 -3.1959 0
M  V30 3565 C 334.092 1.62147 -3.39684 0
M  V30 3566 C 333.239 0.543739 -2.71917 0
M  V30 3567 H 336.19 -0.161022 -1.57881 0
M  V30 3568 H 336.211 1.99324 -3.24114 0
M  V30 3569 H 335.723 0.280592 -3.87084 0
M  V30 3570 H 333.824 2.48854 -2.77313 0
M  V30 3571 H 333.937 1.69385 -4.48158 0
M  V30 3572 H 332.301 0.990352 -2.34657 0
M  V30 3573 H 333.084 -0.290216 -3.42071 0
M  V30 3574 N 335.529 1.53961 0.336706 0
M  V30 3575 C 336.479 1.7881 1.41461 0
M  V30 3576 C 337.463 0.643561 1.47469 0
M  V30 3577 O 338.655 0.903166 1.52223 0
M  V30 3578 C 335.784 2.00722 2.78506 0
M  V30 3579 C 334.87 3.2126 2.76862 0
M  V30 3580 N 335.261 4.42588 2.44845 0
M  V30 3581 C 333.559 3.22568 3.08004 0
M  V30 3582 C 334.26 5.2447 2.51607 0
M  V30 3583 N 333.236 4.61344 2.87511 0
M  V30 3584 H 337.038 2.70205 1.15615 0
M  V30 3585 H 334.552 1.52978 0.545112 0
M  V30 3586 H 336.549 2.1666 3.5618 0
M  V30 3587 H 335.209 1.10573 3.05293 0
M  V30 3588 H 336.22 4.69819 2.17922 0
M  V30 3589 H 332.897 2.42409 3.39918 0
M  V30 3590 H 334.287 6.31324 2.29955 0
M  V30 3591 N 337.007 -0.598083 1.45811 0
M  V30 3592 C 338.418 -1.18011 1.44673 0
M  V30 3593 C 338.769 -1.95378 0.179364 0
M  V30 3594 O 337.894 -2.04124 -0.718509 0
M  V30 3595 C 338.489 -2.14677 2.62105 0
M  V30 3596 C 337.048 -2.68236 2.64057 0
M  V30 3597 C 336.195 -1.43816 2.37091 0
M  V30 3598 H 339.146 -0.38686 1.53913 0
M  V30 3599 H 339.167 -2.97878 2.36746 0
M  V30 3600 H 338.679 -1.5834 3.5433 0
M  V30 3601 H 336.78 -3.28486 1.75864 0
M  V30 3602 H 336.893 -3.12021 3.63566 0
M  V30 3603 H 335.257 -1.731 1.86838 0
M  V30 3604 H 336.04 -0.893333 3.31473 0
M  V30 3605 N 338.485 -1.33259 -0.841409 0
M  V30 3606 C 339.896 -1.22066 -1.41269 0
M  V30 3607 C 340.247 0.161479 -1.95534 0
M  V30 3608 O 339.372 1.06094 -1.88608 0
M  V30 3609 C 339.967 -2.20996 -2.568 0
M  V30 3610 C 338.526 -2.13649 -3.09888 0
M  V30 3611 C 337.673 -2.08623 -1.82679 0
M  V30 3612 H 340.624 -1.44895 -0.647395 0
M  V30 3613 H 340.645 -1.81621 -3.34356 0
M  V30 3614 H 340.157 -3.2158 -2.17274 0
M  V30 3615 H 338.258 -1.16359 -3.53965 0
M  V30 3616 H 338.371 -3.04079 -3.70234 0
M  V30 3617 H 336.735 -1.54061 -2.02824 0
M  V30 3618 H 337.518 -3.1101 -1.45353 0
M  V30 3619 N 339.963 1.05934 -1.16686 0
M  V30 3620 C 341.211 1.78447 -0.948744 0
M  V30 3621 C 341.532 1.87813 0.524523 0
M  V30 3622 O 340.802 1.38945 1.38098 0
M  V30 3623 H 339.382 0.660971 -0.348033 0
M  V30 3624 H 342.044 1.27947 -1.47022 0
M  V30 3625 H 341.14 2.80394 -1.37061 0
M  V30 3626 N 341.441 0.965919 1.2453 0
M  V30 3627 C 342.404 0.499547 2.2369 0
M  V30 3628 C 343.404 -0.40294 1.5567 0
M  V30 3629 O 344.594 -0.19865 1.73064 0
M  V30 3630 C 341.726 -0.276792 3.39774 0
M  V30 3631 H 342.919 1.37613 2.66463 0
M  V30 3632 H 340.472 0.750324 1.37112 0
M  V30 3633 H 341.207 -1.17055 3.02438 0
M  V30 3634 H 340.992 0.370826 3.90343 0
M  V30 3635 H 342.482 -0.592175 4.1338 0
M  V30 3636 N 342.919 -1.39368 0.735821 0
M  V30 3637 C 344.335 -1.54204 0.411492 0
M  V30 3638 C 344.535 -1.70268 -1.07755 0
M  V30 3639 O 343.591 -1.70364 -1.86366 0
M  V30 3640 C 344.904 -2.75925 1.19523 0
M  V30 3641 C 346.452 -2.89761 1.18354 0
M  V30 3642 C 346.927 -4.14421 1.94986 0
M  V30 3643 N 348.418 -4.21462 1.92156 0
M  V30 3644 C 349.153 -5.16871 2.48258 0
M  V30 3645 N 348.649 -6.18063 3.13001 0
M  V30 3646 N 350.442 -5.09093 2.38287 0
M  V30 3647 H 342.593 -1.27189 1.70108 0
M  V30 3648 H 344.856 -0.616517 0.720147 0
M  V30 3649 H 344.562 -2.70401 2.24892 0
M  V30 3650 H 344.436 -3.68614 0.800222 0
M  V30 3651 H 346.823 -2.94777 0.137975 0
M  V30 3652 H 346.904 -1.98133 1.61793 0
M  V30 3653 H 346.548 -4.10166 2.99543 0
M  V30 3654 H 346.478 -5.05095 1.48953 0
M  V30 3655 H 348.969 -3.48979 1.44991 0
M  V30 3656 H 349.282 -6.87326 3.53275 0
M  V30 3657 H 347.627 -6.18448 3.17091 0
M  V30 3658 H 350.818 -4.28973 1.8735 0
M  V30 3659 H 350.991 -5.83272 2.82308 0
M  V30 3660 N 344.397 -0.483516 -1.5 0
M  V30 3661 C 345.645 0.067027 -2.01989 0
M  V30 3662 C 345.966 1.3909 -1.36671 0
M  V30 3663 O 345.236 1.88978 -0.516152 0
M  V30 3664 H 343.816 0.0277606 -0.746484 0
M  V30 3665 H 346.478 -0.636773 -1.84204 0
M  V30 3666 H 345.574 0.209484 -3.11396 0
M  V30 3667 N 345.875 1.56104 -0.216619 0
M  V30 3668 C 347.103 2.02563 0.421413 0
M  V30 3669 C 347.518 1.0965 1.53695 0
M  V30 3670 O 346.875 0.10521 1.82196 0
M  V30 3671 C 346.926 3.48584 0.957665 0
M  V30 3672 O 346.647 4.37953 -0.113389 0
M  V30 3673 C 348.148 4.10664 1.66943 0
M  V30 3674 H 345.368 0.662944 0.103665 0
M  V30 3675 H 347.912 2.01793 -0.331629 0
M  V30 3676 H 346.067 3.49985 1.661 0
M  V30 3677 H 346.481 5.23704 0.288932 0
M  V30 3678 H 347.955 5.14622 1.99671 0
M  V30 3679 H 348.432 3.55373 2.58083 0
M  V30 3680 H 349.038 4.13098 1.01142 0
M  V30 3681 N 347.353 -0.0568162 1.57498 0
M  V30 3682 C 348.578 -0.769402 1.92601 0
M  V30 3683 C 349.003 -1.69559 0.814336 0
M  V30 3684 O 348.361 -1.79811 -0.231903 0
M  V30 3685 C 348.409 -1.52634 3.26704 0
M  V30 3686 O 347.513 -2.63797 3.16994 0
M  V30 3687 H 346.854 -0.208909 0.63028 0
M  V30 3688 H 349.384 -0.0205798 2.0459 0
M  V30 3689 H 349.394 -1.90234 3.60936 0
M  V30 3690 H 348.069 -0.846875 4.07186 0
M  V30 3691 H 346.646 -2.28943 2.94346 0
M  V30 3692 N 348.832 -1.54138 -0.328536 0
M  V30 3693 C 349.764 -1.79509 -1.4251 0
M  V30 3694 C 350.777 -0.67688 -1.48061 0
M  V30 3695 O 351.966 -0.953898 -1.50874 0
M  V30 3696 C 349.066 -1.89337 -2.81078 0
M  V30 3697 C 348.239 -3.19443 -2.98789 0
M  V30 3698 C 347.298 -3.20036 -4.17688 0
M  V30 3699 O 346.324 -3.93697 -4.11086 0
M  V30 3700 N 347.526 -2.43467 -5.26976 0
M  V30 3701 H 350.291 -2.74139 -1.21111 0
M  V30 3702 H 347.852 -1.53373 -0.518499 0
M  V30 3703 H 349.844 -1.87167 -3.58818 0
M  V30 3704 H 348.414 -1.01826 -2.95551 0
M  V30 3705 H 347.634 -3.34614 -2.08391 0
M  V30 3706 H 348.922 -4.05354 -3.07515 0
M  V30 3707 H 348.32 -1.83201 -5.35214 0
M  V30 3708 H 346.877 -2.4708 -6.03154 0
M  V30 3709 N 350.31 0.590341 -1.46126 0
M  V30 3710 C 351.24 1.71032 -1.58966 0
M  V30 3711 C 352.221 1.64302 -0.440335 0
M  V30 3712 O 353.406 1.82436 -0.665634 0
M  V30 3713 C 350.536 3.09665 -1.57241 0
M  V30 3714 C 349.49 3.31221 -2.71066 0
M  V30 3715 C 348.816 4.70303 -2.54399 0
M  V30 3716 C 350.116 3.19796 -4.1295 0
M  V30 3717 H 351.81 1.60543 -2.52718 0
M  V30 3718 H 349.356 0.770933 -1.21625 0
M  V30 3719 H 351.309 3.87831 -1.64819 0
M  V30 3720 H 350.033 3.21036 -0.600289 0
M  V30 3721 H 348.692 2.55452 -2.62944 0
M  V30 3722 H 348.34 4.78429 -1.55288 0
M  V30 3723 H 348.04 4.85679 -3.30741 0
M  V30 3724 H 349.564 5.50647 -2.63857 0
M  V30 3725 H 350.978 3.87815 -4.22223 0
M  V30 3726 H 349.375 3.46696 -4.89818 0
M  V30 3727 H 350.445 2.16983 -4.33643 0
M  V30 3728 N 351.788 1.33704 0.83433 0
M  V30 3729 C 352.738 1.20899 1.93306 0
M  V30 3730 C 353.722 0.110783 1.60518 0
M  V30 3731 O 354.914 0.339331 1.73717 0
M  V30 3732 C 352.043 0.955018 3.29749 0
M  V30 3733 C 351.129 2.09587 3.68692 0
M  V30 3734 N 351.52 3.34621 3.79292 0
M  V30 3735 C 349.818 2.00358 3.98463 0
M  V30 3736 C 350.519 4.09472 4.13167 0
M  V30 3737 N 349.495 3.37954 4.25779 0
M  V30 3738 H 353.297 2.15665 1.99664 0
M  V30 3739 H 350.811 1.25777 1.02732 0
M  V30 3740 H 352.808 0.844208 4.08263 0
M  V30 3741 H 351.468 0.0159317 3.24696 0
M  V30 3742 H 352.479 3.69313 3.63082 0
M  V30 3743 H 349.156 1.14137 4.01596 0
M  V30 3744 H 350.546 5.17391 4.28668 0
M  V30 3745 N 353.266 -1.05314 1.17247 0
M  V30 3746 C 354.514 -1.77941 0.958194 0
M  V30 3747 C 354.835 -1.88089 -0.514556 0
M  V30 3748 O 354.105 -1.39676 -1.37359 0
M  V30 3749 H 352.685 -0.659116 0.351533 0
M  V30 3750 H 355.347 -1.27166 1.47699 0
M  V30 3751 H 354.443 -2.79663 1.38546 0
M  V30 3752 N 354.744 -0.972509 -1.24016 0
M  V30 3753 C 355.677 -0.45117 -2.23696 0
M  V30 3754 C 356.655 0.477378 -1.55434 0
M  V30 3755 O 357.839 0.407647 -1.84039 0
M  V30 3756 C 354.966 0.34818 -3.36906 0
M  V30 3757 C 354.012 -0.523355 -4.23277 0
M  V30 3758 S 354.845 -1.96647 -4.98087 0
M  V30 3759 C 356.001 -1.17604 -6.14752 0
M  V30 3760 H 356.234 -1.29588 -2.67571 0
M  V30 3761 H 353.767 -0.777903 -1.33372 0
M  V30 3762 H 355.725 0.803387 -4.02562 0
M  V30 3763 H 354.386 1.16792 -2.91579 0
M  V30 3764 H 353.579 0.0906181 -5.03919 0
M  V30 3765 H 353.181 -0.914485 -3.62647 0
M  V30 3766 H 355.473 -0.433434 -6.76112 0
M  V30 3767 H 356.416 -1.95701 -6.8052 0
M  V30 3768 H 356.824 -0.698295 -5.60164 0
M  V30 3769 N 356.222 1.38976 -0.743202 0
M  V30 3770 C 357.499 1.94351 -0.220705 0
M  V30 3771 C 357.879 1.67935 1.2791 0
M  V30 3772 O 357.227 1.01211 2.04862 0
M  V30 3773 C 357.437 3.44426 -0.563171 0
M  V30 3774 C 358.785 4.2144 -0.517046 0
M  V30 3775 O 359.809 3.52661 -0.500846 0
M  V30 3776 O 358.668 5.44032 -0.518806 0
M  V30 3777 H 355.762 0.825879 -0.043047 0
M  V30 3778 H 358.308 1.48429 -0.822618 0
M  V30 3779 H 357.08 3.5712 -1.59941 0
M  V30 3780 H 356.703 3.97543 0.0672883 0
M  V30 3781 N 357.7 0.491464 1.49741 0
M  V30 3782 C 358.63 -0.28154 2.31796 0
M  V30 3783 C 359.611 -0.971473 1.3963 0
M  V30 3784 O 360.796 -0.964719 1.68543 0
M  V30 3785 C 357.926 -1.35203 3.19902 0
M  V30 3786 C 356.88 -0.782529 4.20786 0
M  V30 3787 C 356.206 -1.95283 4.97764 0
M  V30 3788 C 357.506 0.21999 5.21837 0
M  V30 3789 H 359.2 0.403355 2.96671 0
M  V30 3790 H 356.746 0.195425 1.42668 0
M  V30 3791 H 358.699 -1.90045 3.76113 0
M  V30 3792 H 357.423 -2.06598 2.52953 0
M  V30 3793 H 356.082 -0.255928 3.65706 0
M  V30 3794 H 355.73 -2.65423 4.2727 0
M  V30 3795 H 355.43 -1.57789 5.66018 0
M  V30 3796 H 356.954 -2.50577 5.56816 0
M  V30 3797 H 358.368 -0.23996 5.72798 0
M  V30 3798 H 356.765 0.51026 5.97927 0
M  V30 3799 H 357.835 1.13911 4.7133 0
M  V30 3800 N 359.178 -1.55987 0.224894 0
M  V30 3801 C 360.108 -2.23426 -0.678457 0
M  V30 3802 C 361.089 -1.20709 -1.19847 0
M  V30 3803 O 362.274 -1.49304 -1.24186 0
M  V30 3804 C 359.404 -2.91676 -1.88527 0
M  V30 3805 C 358.358 -4.00893 -1.49896 0
M  V30 3806 C 357.684 -4.56455 -2.78483 0
M  V30 3807 C 358.984 -5.17769 -0.686461 0
M  V30 3808 H 360.678 -2.99175 -0.116173 0
M  V30 3809 H 358.224 -1.43897 -0.054436 0
M  V30 3810 H 360.177 -3.37547 -2.5227 0
M  V30 3811 H 358.901 -2.1338 -2.47258 0
M  V30 3812 H 357.56 -3.55758 -0.884985 0
M  V30 3813 H 357.208 -3.74886 -3.35365 0
M  V30 3814 H 356.908 -5.30169 -2.53368 0
M  V30 3815 H 358.432 -5.05047 -3.43162 0
M  V30 3816 H 359.846 -5.60001 -1.22767 0
M  V30 3817 H 358.243 -5.97735 -0.532259 0
M  V30 3818 H 359.313 -4.83932 0.306196 0
M  V30 3819 N 360.656 0.0484629 -1.57525 0
M  V30 3820 C 361.902 0.744226 -1.88651 0
M  V30 3821 C 362.235 1.76029 -0.820212 0
M  V30 3822 O 361.51 1.93782 0.166985 0
M  V30 3823 C 361.793 1.43128 -3.30434 0
M  V30 3824 C 361.646 0.43005 -4.47739 0
M  V30 3825 C 362.965 2.37031 -3.70816 0
M  V30 3826 H 360.084 0.269089 -0.68612 0
M  V30 3827 H 362.726 0.00713532 -1.89999 0
M  V30 3828 H 360.876 2.05956 -3.29415 0
M  V30 3829 H 362.548 -0.194816 -4.60888 0
M  V30 3830 H 360.791 -0.252522 -4.33064 0
M  V30 3831 H 361.462 0.948874 -5.43783 0
M  V30 3832 H 363.938 1.84263 -3.73077 0
M  V30 3833 H 362.814 2.82094 -4.70865 0
M  V30 3834 H 363.075 3.22864 -3.02012 0
M  V30 3835 N 362.134 1.5431 0.320358 0
M  V30 3836 C 363.064 1.86912 1.3995 0
M  V30 3837 C 364.045 0.726211 1.53819 0
M  V30 3838 O 365.23 0.980233 1.67646 0
M  V30 3839 C 362.36 2.09932 2.7667 0
M  V30 3840 C 361.314 3.25776 2.77586 0
M  V30 3841 C 360.64 3.34173 4.17412 0
M  V30 3842 C 361.94 4.6335 2.41048 0
M  V30 3843 H 363.634 2.77292 1.12914 0
M  V30 3844 H 361.18 1.33421 0.541738 0
M  V30 3845 H 363.133 2.31324 3.52232 0
M  V30 3846 H 361.857 1.16304 3.0519 0
M  V30 3847 H 360.516 3.04276 2.04479 0
M  V30 3848 H 360.164 2.38098 4.43078 0
M  V30 3849 H 359.864 4.12033 4.18931 0
M  V30 3850 H 361.388 3.57803 4.94782 0
M  V30 3851 H 362.802 4.84602 3.06324 0
M  V30 3852 H 361.199 5.43782 2.53813 0
M  V30 3853 H 362.269 4.65381 1.36193 0
M  V30 3854 N 363.613 -0.582584 1.46437 0
M  V30 3855 C 364.543 -1.70187 1.59871 0
M  V30 3856 C 365.524 -1.64066 0.449042 0
M  V30 3857 O 366.709 -1.82081 0.6753 0
M  V30 3858 C 363.839 -3.08827 1.58881 0
M  V30 3859 C 362.793 -3.29779 2.72819 0
M  V30 3860 C 362.119 -4.68947 2.5689 0
M  V30 3861 C 363.419 -3.17601 4.1464 0
M  V30 3862 H 365.113 -1.592 2.53566 0
M  V30 3863 H 362.659 -0.764472 1.22032 0
M  V30 3864 H 364.612 -3.86951 1.66873 0
M  V30 3865 H 363.336 -3.20713 0.617306 0
M  V30 3866 H 361.995 -2.54054 2.64296 0
M  V30 3867 H 361.643 -4.77599 1.57823 0
M  V30 3868 H 361.343 -4.83919 3.33312 0
M  V30 3869 H 362.867 -5.4924 2.66773 0
M  V30 3870 H 364.281 -3.8557 4.24274 0
M  V30 3871 H 362.678 -3.44094 4.9165 0
M  V30 3872 H 363.748 -2.14681 4.34788 0
M  V30 3873 N 365.091 -1.34144 -0.827227 0
M  V30 3874 C 366.368 -1.16844 -1.56865 0
M  V30 3875 C 366.748 0.260654 -2.09485 0
M  V30 3876 O 366.096 1.26138 -1.9053 0
M  V30 3877 C 366.306 -2.21939 -2.6934 0
M  V30 3878 C 367.654 -2.56695 -3.3822 0
M  V30 3879 O 368.678 -2.20695 -2.79593 0
M  V30 3880 O 367.537 -3.18518 -4.44082 0
M  V30 3881 H 364.631 -0.452669 -0.692112 0
M  V30 3882 H 367.177 -1.45763 -0.868973 0
M  V30 3883 H 365.949 -3.17882 -2.28182 0
M  V30 3884 H 365.572 -1.94172 -3.46962 0
M  V30 3885 N 366.569 1.04691 -1.17803 0
M  V30 3886 C 367.499 2.14494 -0.92275 0
M  V30 3887 C 368.48 1.69546 0.137179 0
M  V30 3888 O 369.665 1.94195 -0.0141108 0
M  V30 3889 C 366.795 3.44491 -0.440803 0
M  V30 3890 C 365.749 4.03031 -1.4405 0
M  V30 3891 C 365.075 5.28432 -0.81631 0
M  V30 3892 C 366.375 4.39932 -2.81527 0
M  V30 3893 H 368.069 2.36107 -1.84103 0
M  V30 3894 H 365.615 1.1347 -0.886599 0
M  V30 3895 H 367.568 4.2066 -0.249602 0
M  V30 3896 H 366.292 3.22546 0.513025 0
M  V30 3897 H 364.951 3.28937 -1.61853 0
M  V30 3898 H 364.599 5.02792 0.144511 0
M  V30 3899 H 364.299 5.68559 -1.48371 0
M  V30 3900 H 365.823 6.07284 -0.635496 0
M  V30 3901 H 367.237 5.07113 -2.67412 0
M  V30 3902 H 365.634 4.9109 -3.44892 0
M  V30 3903 H 366.704 3.50045 -3.35554 0
M  V30 3904 N 368.047 0.979072 1.23499 0
M  V30 3905 C 369.296 0.642751 1.91185 0
M  V30 3906 C 369.609 -0.827253 1.77245 0
M  V30 3907 O 370.815 -1.27458 2.39722 0
M  V30 3908 C 369.271 1.09901 3.42709 0
M  V30 3909 C 368.879 2.59327 3.65313 0
M  V30 3910 C 370.623 0.836371 4.16179 0
M  V30 3911 C 368.53 2.98627 5.10467 0
M  V30 3912 H 367.46 0.236698 0.715884 0
M  V30 3913 H 370.111 1.1868 1.39955 0
M  V30 3914 H 368.493 0.48319 3.93041 0
M  V30 3915 H 369.667 3.26136 3.25533 0
M  V30 3916 H 367.982 2.83323 3.05151 0
M  V30 3917 H 370.579 1.10586 5.23139 0
M  V30 3918 H 370.922 -0.227509 4.15678 0
M  V30 3919 H 371.455 1.41371 3.71832 0
M  V30 3920 H 368.194 4.04133 5.16098 0
M  V30 3921 H 367.714 2.3651 5.51201 0
M  V30 3922 H 369.393 2.89159 5.78788 0
M  V30 3923 N 369.525 -1.3858 0.750561 0
M  V30 3924 C 370.773 -1.99789 0.30477 0
M  V30 3925 C 371.094 -1.59874 -1.11649 0
M  V30 3926 O 370.364 -0.85417 -1.76297 0
M  V30 3927 H 368.944 -0.738902 0.109694 0
M  V30 3928 H 371.606 -1.69391 0.963983 0
M  V30 3929 H 370.702 -3.09952 0.365499 0
M  V30 3930 N 371.003 -0.499398 -1.49478 0
M  V30 3931 C 371.966 0.268838 -2.27618 0
M  V30 3932 C 372.966 0.895383 -1.33565 0
M  V30 3933 O 374.156 0.760164 -1.56739 0
M  V30 3934 C 371.288 1.38559 -3.11471 0
M  V30 3935 H 372.481 -0.416812 -2.96989 0
M  V30 3936 H 370.034 -0.254313 -1.54217 0
M  V30 3937 H 370.769 2.10544 -2.46661 0
M  V30 3938 H 370.554 0.941797 -3.80621 0
M  V30 3939 H 372.044 1.92678 -3.70493 0
M  V30 3940 N 372.481 1.55866 -0.233164 0
M  V30 3941 C 373.892 1.847 0.272554 0
M  V30 3942 C 374.243 1.15477 1.58617 0
M  V30 3943 O 373.368 0.42841 2.12117 0
M  V30 3944 C 373.963 3.35071 0.501299 0
M  V30 3945 C 372.522 3.6418 0.951304 0
M  V30 3946 C 371.669 2.77292 0.0208209 0
M  V30 3947 H 374.62 1.52005 -0.456074 0
M  V30 3948 H 374.641 3.55906 1.34577 0
M  V30 3949 H 374.153 3.85424 -0.454936 0
M  V30 3950 H 372.254 3.19293 1.92049 0
M  V30 3951 H 372.367 4.72071 0.817675 0
M  V30 3952 H 370.731 2.49131 0.529723 0
M  V30 3953 H 371.514 3.30448 -0.93054 0
M  V30 3954 N 373.959 -0.0401083 1.57549 0
M  V30 3955 C 374.907 -1.06264 2.06908 0
M  V30 3956 C 375.901 -1.38132 0.980608 0
M  V30 3957 O 377.107 -1.37167 1.16556 0
M  V30 3958 H 373.482 -0.360166 0.660139 0
M  V30 3959 H 375.453 -0.620445 2.91878 0
M  V30 3960 C 374.202 -2.35846 2.55483 0
M  V30 3961 H 373.525 -2.12183 3.38849 0
M  V30 3962 H 374.965 -3.05765 2.93741 0
M  V30 3963 C 373.424 -3.0404 1.45126 0
M  V30 3964 O 373.954 -3.93424 0.811216 0
M  V30 3965 N 372.16 -2.65184 1.18852 0
M  V30 3966 H 371.707 -1.92584 1.71083 0
M  V30 3967 H 371.665 -3.1113 0.452244 0
M  V30 3968 N 375.437 -1.54477 -0.31217 0
M  V30 3969 C 376.848 -1.64344 -0.885891 0
M  V30 3970 C 377.199 -0.54485 -1.88483 0
M  V30 3971 O 376.324 0.320387 -2.14015 0
M  V30 3972 C 376.919 -2.97908 -1.61357 0
M  V30 3973 C 375.478 -3.09933 -2.13585 0
M  V30 3974 C 374.625 -2.59971 -0.964897 0
M  V30 3975 H 377.576 -1.58448 -0.0894528 0
M  V30 3976 H 377.597 -2.88706 -2.47848 0
M  V30 3977 H 377.109 -3.77845 -0.886277 0
M  V30 3978 H 375.21 -2.34694 -2.89395 0
M  V30 3979 H 375.323 -4.15916 -2.37804 0
M  V30 3980 H 373.687 -2.16147 -1.34731 0
M  V30 3981 H 374.47 -3.42376 -0.251742 0
M  V30 3982 N 376.915 0.57481 -1.46744 0
M  V30 3983 C 378.143 1.35856 -1.56047 0
M  V30 3984 C 378.558 1.87691 -0.204365 0
M  V30 3985 O 377.915 1.64049 0.79963 0
M  V30 3986 C 377.966 2.54066 -2.57163 0
M  V30 3987 O 377.687 2.04377 -3.87507 0
M  V30 3988 C 379.188 3.46514 -2.76483 0
M  V30 3989 H 376.408 0.414754 -0.527466 0
M  V30 3990 H 378.952 0.698035 -1.92218 0
M  V30 3991 H 377.107 3.16092 -2.23974 0
M  V30 3992 H 377.521 2.81419 -4.4261 0
M  V30 3993 H 378.995 4.25919 -3.51137 0
M  V30 3994 H 379.472 3.98951 -1.83671 0
M  V30 3995 H 380.078 2.90318 -3.10799 0
M  V30 3996 N 378.394 1.34581 0.820102 0
M  V30 3997 C 379.641 1.27096 1.57648 0
M  V30 3998 C 379.969 -0.158317 1.93855 0
M  V30 3999 O 379.224 -1.12028 1.60463 0
M  V30 4000 C 379.523 2.10997 2.8847 0
M  V30 4001 C 379.189 3.59966 2.71543 0
M  V30 4002 C 377.851 4.00575 2.66634 0
M  V30 4003 C 380.203 4.54548 2.55021 0
M  V30 4004 C 377.531 5.33953 2.43128 0
M  V30 4005 C 379.883 5.88109 2.33047 0
M  V30 4006 C 378.547 6.27878 2.26552 0
M  V30 4007 H 377.817 0.465078 0.576874 0
M  V30 4008 H 380.464 1.6635 0.948671 0
M  V30 4009 H 378.769 1.6458 3.55557 0
M  V30 4010 H 380.466 2.0255 3.46084 0
M  V30 4011 H 377.056 3.27733 2.76205 0
M  V30 4012 H 381.24 4.24069 2.57835 0
M  V30 4013 H 376.496 5.63781 2.3656 0
M  V30 4014 H 380.67 6.60985 2.19251 0
M  V30 4015 H 378.297 7.31162 2.081 0
M  V30 4016 N 379.872 -1.04064 1.18357 0
M  V30 4017 C 381.283 -1.58719 0.98312 0
M  V30 4018 C 381.634 -1.90556 -0.467193 0
M  V30 4019 O 380.759 -1.69561 -1.34454 0
M  V30 4020 C 381.354 -2.88379 1.77828 0
M  V30 4021 C 379.913 -3.3965 1.62218 0
M  V30 4022 C 379.06 -2.13235 1.77274 0
M  V30 4023 H 382.011 -0.867359 1.32901 0
M  V30 4024 H 382.032 -3.58773 1.26737 0
M  V30 4025 H 381.544 -2.65176 2.83379 0
M  V30 4026 H 379.645 -3.67866 0.592036 0
M  V30 4027 H 379.758 -4.13475 2.42023 0
M  V30 4028 H 378.122 -2.24542 1.20221 0
M  V30 4029 H 378.905 -1.92487 2.8426 0
M  V30 4030 N 381.35 -0.985608 -1.22978 0
M  V30 4031 C 382.298 -0.522631 -2.26652 0
M  V30 4032 C 383.292 0.422998 -1.64034 0
M  V30 4033 O 384.498 0.296319 -1.77544 0
M  V30 4034 H 380.873 -0.150597 -0.736766 0
M  V30 4035 H 382.844 -1.40863 -2.63059 0
M  V30 4036 C 381.593 0.154238 -3.47358 0
M  V30 4037 H 380.916 -0.564329 -3.95797 0
M  V30 4038 H 382.356 0.441744 -4.21693 0
M  V30 4039 C 380.815 1.38719 -3.07016 0
M  V30 4040 O 381.345 2.48307 -3.15764 0
M  V30 4041 N 379.551 1.25975 -2.61875 0
M  V30 4042 H 379.098 0.368068 -2.54957 0
M  V30 4043 H 379.056 2.08578 -2.3525 0
M  V30 4044 N 382.828 1.3818 -0.7579 0
M  V30 4045 C 384.075 2.00019 -0.315985 0
M  V30 4046 C 384.403 1.60163 1.10355 0
M  V30 4047 O 383.658 0.83264 1.77103 0
M  V30 4048 C 383.957 3.55252 -0.391218 0
M  V30 4049 C 383.623 4.14834 -1.76702 0
M  V30 4050 C 382.285 4.30821 -2.14353 0
M  V30 4051 C 384.637 4.47658 -2.66931 0
M  V30 4052 C 381.965 4.76928 -3.41696 0
M  V30 4053 C 384.317 4.95184 -3.93669 0
M  V30 4054 C 382.981 5.09377 -4.31383 0
M  V30 4055 H 382.251 0.731923 -0.115627 0
M  V30 4056 H 384.898 1.65161 -0.969223 0
M  V30 4057 H 383.203 3.90273 0.34558 0
M  V30 4058 H 384.9 4.00988 -0.030805 0
M  V30 4059 H 381.49 4.02808 -1.46435 0
M  V30 4060 H 385.674 4.34904 -2.39106 0
M  V30 4061 H 380.93 4.86103 -3.70829 0
M  V30 4062 H 385.104 5.19551 -4.63724 0
M  V30 4063 H 382.731 5.44865 -5.30119 0
M  V30 4064 N 384.306 0.507319 1.49211 0
M  V30 4065 C 385.553 -0.0349529 2.0247 0
M  V30 4066 C 385.881 -1.36409 1.38647 0
M  V30 4067 O 385.136 -1.88841 0.513566 0
M  V30 4068 C 385.435 -0.229513 3.56662 0
M  V30 4069 C 385.101 1.02241 4.39156 0
M  V30 4070 C 383.763 1.36557 4.61417 0
M  V30 4071 C 386.115 1.85428 4.871 0
M  V30 4072 C 383.443 2.53999 5.28868 0
M  V30 4073 C 385.795 3.02028 5.55843 0
M  V30 4074 C 384.459 3.36717 5.76349 0
M  V30 4075 H 383.729 -0.0127902 0.74089 0
M  V30 4076 H 386.376 0.668756 1.79443 0
M  V30 4077 H 384.681 -1.0158 3.78403 0
M  V30 4078 H 386.378 -0.663641 3.9547 0
M  V30 4079 H 382.968 0.745124 4.22073 0
M  V30 4080 H 387.152 1.6023 4.69723 0
M  V30 4081 H 382.408 2.81105 5.42946 0
M  V30 4082 H 386.582 3.66808 5.91967 0
M  V30 4083 H 384.209 4.27821 6.28389 0
M  V30 4084 N 385.784 -1.5574 0.241426 0
M  V30 4085 C 387.195 -1.84842 -0.262755 0
M  V30 4086 C 387.546 -1.16317 -1.58003 0
M  V30 4087 O 386.671 -0.439653 -2.11887 0
M  V30 4088 C 387.266 -3.35332 -0.483523 0
M  V30 4089 C 385.825 -3.6468 -0.931977 0
M  V30 4090 C 384.972 -2.77299 -0.0061151 0
M  V30 4091 H 387.923 -1.51761 0.464129 0
M  V30 4092 H 387.944 -3.56615 -1.32688 0
M  V30 4093 H 387.456 -3.85178 0.47537 0
M  V30 4094 H 385.557 -3.20307 -1.90353 0
M  V30 4095 H 385.67 -4.72498 -0.792628 0
M  V30 4096 H 384.034 -2.49408 -0.516503 0
M  V30 4097 H 384.817 -3.2995 0.948052 0
M  V30 4098 N 387.262 0.0317525 -1.57568 0
M  V30 4099 C 388.21 1.05165 -2.07468 0
M  V30 4100 C 389.204 1.3761 -0.98792 0
M  V30 4101 O 390.41 1.36546 -1.17282 0
M  V30 4102 H 386.785 0.35666 -0.66204 0
M  V30 4103 H 388.756 0.604958 -2.92203 0
M  V30 4104 C 387.505 2.34488 -2.56731 0
M  V30 4105 H 386.828 2.10383 -3.39969 0
M  V30 4106 H 388.268 3.04203 -2.95358 0
M  V30 4107 C 386.727 3.03266 -1.46736 0
M  V30 4108 O 387.257 3.92988 -0.832069 0
M  V30 4109 N 385.463 2.6455 -1.20256 0
M  V30 4110 H 385.01 1.91674 -1.72102 0
M  V30 4111 H 384.968 3.10886 -0.468737 0
M  V30 4112 N 388.74 1.54641 0.303973 0
M  V30 4113 C 389.965 1.78092 1.06292 0
M  V30 4114 C 390.39 0.537342 1.80262 0
M  V30 4115 O 389.748 -0.511993 1.7392 0
M  V30 4116 C 389.796 2.98612 2.02147 0
M  V30 4117 O 388.9 2.71528 3.10397 0
M  V30 4118 H 388.241 0.589548 0.305497 0
M  V30 4119 H 390.771 2.01716 0.3423 0
M  V30 4120 H 390.781 3.265 2.44667 0
M  V30 4121 H 389.456 3.88785 1.47714 0
M  V30 4122 H 388.033 2.54648 2.72413 0
M  V30 4123 N 390.218 -0.567019 1.47046 0
M  V30 4124 C 391.181 -1.65696 1.58359 0
M  V30 4125 C 392.181 -1.54097 0.459441 0
M  V30 4126 O 393.371 -1.58432 0.724225 0
M  V30 4127 C 390.503 -3.05197 1.51879 0
M  V30 4128 H 391.696 -1.57019 2.5551 0
M  V30 4129 H 389.249 -0.786148 1.3509 0
M  V30 4130 H 389.984 -3.19417 0.560673 0
M  V30 4131 H 389.769 -3.15025 2.33455 0
M  V30 4132 H 391.259 -3.84511 1.62913 0
M  V30 4133 N 391.696 -1.35014 -0.812953 0
M  V30 4134 C 393.112 -1.14914 -1.10757 0
M  V30 4135 C 393.312 0.0426818 -2.01455 0
M  V30 4136 O 392.368 0.715212 -2.42159 0
M  V30 4137 C 393.681 -2.44911 -1.74468 0
M  V30 4138 C 395.229 -2.5106 -1.86917 0
M  V30 4139 C 395.704 -3.81085 -2.54044 0
M  V30 4140 N 397.195 -3.82301 -2.61535 0
M  V30 4141 C 397.93 -4.79634 -3.14227 0
M  V30 4142 N 397.426 -5.87353 -3.67407 0
M  V30 4143 N 399.219 -4.67078 -3.12721 0
M  V30 4144 H 391.37 -2.1136 -0.20989 0
M  V30 4145 H 393.633 -0.935128 -0.155692 0
M  V30 4146 H 393.339 -3.32267 -1.15289 0
M  V30 4147 H 393.213 -2.58989 -2.74234 0
M  V30 4148 H 395.6 -1.64137 -2.45241 0
M  V30 4149 H 395.681 -2.40901 -0.860242 0
M  V30 4150 H 395.325 -4.68402 -1.96372 0
M  V30 4151 H 395.255 -3.88529 -3.55461 0
M  V30 4152 H 397.746 -3.04465 -2.23851 0
M  V30 4153 H 398.059 -6.57624 -4.05894 0
M  V30 4154 H 396.404 -5.91054 -3.65623 0
M  V30 4155 H 399.595 -3.82067 -2.70449 0
M  V30 4156 H 399.768 -5.43098 -3.53481 0
M  V30 4157 N 393.175 1.03435 -1.18907 0
M  V30 4158 C 394.421 1.7713 -0.99982 0
M  V30 4159 C 394.776 1.86695 0.465049 0
M  V30 4160 O 394.069 1.36866 1.34083 0
M  V30 4161 C 394.263 3.19792 -1.59586 0
M  V30 4162 C 394.092 3.24134 -3.11717 0
M  V30 4163 C 392.862 3.32398 -3.80578 0
M  V30 4164 C 395.06 3.11625 -4.09138 0
M  V30 4165 N 393.042 3.26055 -5.20155 0
M  V30 4166 C 394.413 3.12855 -5.35277 0
M  V30 4167 C 396.468 2.95713 -4.00572 0
M  V30 4168 C 395.171 2.99805 -6.53842 0
M  V30 4169 C 397.197 2.84011 -5.1874 0
M  V30 4170 C 396.559 2.8589 -6.43775 0
M  V30 4171 H 392.658 0.659683 -0.419931 0
M  V30 4172 H 395.242 1.2317 -1.50789 0
M  V30 4173 H 393.413 3.72085 -1.11389 0
M  V30 4174 H 395.145 3.81819 -1.3415 0
M  V30 4175 H 391.9 3.38392 -3.31342 0
M  V30 4176 H 392.324 3.26307 -5.93172 0
M  V30 4177 H 396.966 2.93086 -3.0473 0
M  V30 4178 H 394.684 3.01184 -7.49876 0
M  V30 4179 H 398.27 2.72744 -5.13909 0
M  V30 4180 H 397.15 2.76931 -7.33675 0
M  V30 4181 N 394.653 0.992116 1.22453 0
M  V30 4182 C 395.9 0.667534 1.91181 0
M  V30 4183 C 396.228 -0.800317 1.77271 0
M  V30 4184 O 395.483 -1.59421 1.13505 0
M  V30 4185 C 395.782 1.01832 3.42586 0
M  V30 4186 C 395.448 2.47831 3.76684 0
M  V30 4187 C 394.11 2.87729 3.85701 0
M  V30 4188 C 396.462 3.42466 3.92895 0
M  V30 4189 C 393.79 4.21252 4.08367 0
M  V30 4190 C 396.142 4.75648 4.17064 0
M  V30 4191 C 394.806 5.15288 4.24305 0
M  V30 4192 H 394.076 0.244268 0.699581 0
M  V30 4193 H 396.723 1.24816 1.45235 0
M  V30 4194 H 395.028 0.355769 3.90181 0
M  V30 4195 H 396.725 0.745228 3.94014 0
M  V30 4196 H 393.315 2.15905 3.70247 0
M  V30 4197 H 397.499 3.12814 3.85307 0
M  V30 4198 H 392.755 4.51554 4.122 0
M  V30 4199 H 396.929 5.48924 4.2855 0
M  V30 4200 H 394.556 6.18769 4.41621 0
M  V30 4201 N 396.131 -1.37776 0.765217 0
M  V30 4202 C 397.041 -2.34135 0.147666 0
M  V30 4203 C 398.057 -1.59854 -0.687215 0
M  V30 4204 O 399.233 -1.91983 -0.608659 0
M  V30 4205 C 396.298 -3.3901 -0.72617 0
M  V30 4206 C 395.359 -4.2912 0.124417 0
M  V30 4207 C 394.592 -5.28986 -0.707807 0
M  V30 4208 O 394.815 -5.36205 -1.94525 0
M  V30 4209 O 393.749 -6.01779 -0.12046 0
M  V30 4210 H 397.575 -2.88664 0.943758 0
M  V30 4211 H 395.16 -1.39824 0.526277 0
M  V30 4212 H 397.042 -4.03195 -1.22524 0
M  V30 4213 H 395.717 -2.86819 -1.50056 0
M  V30 4214 H 394.624 -3.68057 0.669696 0
M  V30 4215 H 395.957 -4.84598 0.861736 0
M  V30 4216 N 397.609 -0.515225 -1.4894 0
M  V30 4217 C 399.025 -0.172099 -1.58669 0
M  V30 4218 C 399.225 1.32405 -1.51892 0
M  V30 4219 O 398.281 2.10116 -1.40027 0
M  V30 4220 C 399.594 -0.761533 -2.90897 0
M  V30 4221 C 401.142 -0.728926 -3.04394 0
M  V30 4222 C 401.617 -1.29667 -4.39261 0
M  V30 4223 N 403.108 -1.25799 -4.4579 0
M  V30 4224 C 403.843 -1.66733 -5.48623 0
M  V30 4225 N 403.339 -2.15327 -6.58488 0
M  V30 4226 N 405.132 -1.58061 -5.39419 0
M  V30 4227 H 397.283 -1.48778 -1.51588 0
M  V30 4228 H 399.546 -0.617968 -0.718901 0
M  V30 4229 H 399.252 -1.81136 -3.01468 0
M  V30 4230 H 399.126 -0.230106 -3.76497 0
M  V30 4231 H 401.513 0.312098 -2.93445 0
M  V30 4232 H 401.594 -1.29766 -2.20442 0
M  V30 4233 H 401.238 -2.33655 -4.50963 0
M  V30 4234 H 401.168 -0.703752 -5.21876 0
M  V30 4235 H 403.659 -0.902102 -3.66975 0
M  V30 4236 H 403.972 -2.44594 -7.33071 0
M  V30 4237 H 402.317 -2.19311 -6.59491 0
M  V30 4238 H 405.508 -1.19906 -4.52482 0
M  V30 4239 H 405.681 -1.90284 -6.19432 0
M  V30 4240 N 399.087 1.5561 -0.249682 0
M  V30 4241 C 400.017 2.24477 0.642826 0
M  V30 4242 C 400.998 1.22601 1.17911 0
M  V30 4243 O 402.183 1.5126 1.21795 0
M  V30 4244 C 399.313 2.94638 1.83863 0
M  V30 4245 C 398.267 4.03227 1.435 0
M  V30 4246 C 397.593 4.60828 2.71186 0
M  V30 4247 C 398.893 5.18796 0.604002 0
M  V30 4248 H 400.587 2.99321 0.0685625 0
M  V30 4249 H 398.133 1.43965 0.0315363 0
M  V30 4250 H 400.086 3.41517 2.46868 0
M  V30 4251 H 398.81 2.17287 2.43832 0
M  V30 4252 H 397.469 3.57121 0.828275 0
M  V30 4253 H 397.117 3.80174 3.29358 0
M  V30 4254 H 396.817 5.34132 2.44901 0
M  V30 4255 H 398.341 5.10442 3.35084 0
M  V30 4256 H 399.755 5.61883 1.13842 0
M  V30 4257 H 398.152 5.98506 0.437097 0
M  V30 4258 H 399.222 4.83384 -0.383147 0
M  V30 4259 N 400.565 -0.0233959 1.57583 0
M  V30 4260 C 401.497 -1.04994 2.03737 0
M  V30 4261 C 402.51 -1.32125 0.951152 0
M  V30 4262 O 403.699 -1.29512 1.22837 0
M  V30 4263 C 400.799 -2.39026 2.40249 0
M  V30 4264 C 399.972 -2.31171 3.7132 0
M  V30 4265 C 399.031 -3.47698 3.94959 0
M  V30 4266 O 398.057 -3.26937 4.65941 0
M  V30 4267 N 399.259 -4.6976 3.41037 0
M  V30 4268 H 402.024 -0.656507 2.92421 0
M  V30 4269 H 399.585 -0.211235 1.60516 0
M  V30 4270 H 401.577 -3.15712 2.53196 0
M  V30 4271 H 400.147 -2.70194 1.57207 0
M  V30 4272 H 399.367 -1.39547 3.68674 0
M  V30 4273 H 400.655 -2.23071 4.57293 0
M  V30 4274 H 400.053 -4.89528 2.83512 0
M  V30 4275 H 398.61 -5.43791 3.59353 0
M  V30 4276 N 402.043 -1.548 -0.295768 0
M  V30 4277 C 403.006 -1.85363 -1.34808 0
M  V30 4278 C 404.006 -0.726817 -1.43436 0
M  V30 4279 O 405.196 -0.995088 -1.42981 0
M  V30 4280 C 402.328 -2.03859 -2.73229 0
M  V30 4281 H 403.521 -2.7941 -1.08949 0
M  V30 4282 H 401.074 -1.46942 -0.532702 0
M  V30 4283 H 401.809 -1.12117 -3.04303 0
M  V30 4284 H 401.594 -2.8588 -2.68356 0
M  V30 4285 H 403.084 -2.28857 -3.49305 0
M  V30 4286 N 403.521 0.559213 -1.47345 0
M  V30 4287 C 404.77 1.31281 -1.53128 0
M  V30 4288 C 405.083 1.94602 -0.197344 0
M  V30 4289 O 406.289 2.71173 -0.133154 0
M  V30 4290 C 404.745 2.38051 -2.69925 0
M  V30 4291 C 404.353 1.8093 -4.0984 0
M  V30 4292 C 406.097 3.14604 -2.84999 0
M  V30 4293 C 404.004 2.85468 -5.1794 0
M  V30 4294 H 402.934 0.493614 -0.569966 0
M  V30 4295 H 405.585 0.594155 -1.73615 0
M  V30 4296 H 403.967 3.12822 -2.42814 0
M  V30 4297 H 405.141 1.12544 -4.46845 0
M  V30 4298 H 403.456 1.16967 -3.99634 0
M  V30 4299 H 406.053 3.92666 -3.62929 0
M  V30 4300 H 406.396 3.68665 -1.93369 0
M  V30 4301 H 406.929 2.46945 -3.1187 0
M  V30 4302 H 403.668 2.36264 -6.1144 0
M  V30 4303 H 403.188 3.52269 -4.85455 0
M  V30 4304 H 404.867 3.48996 -5.44803 0
M  V30 4305 N 404.999 1.35443 0.805782 0
M  V30 4306 C 405.909 1.30546 1.94923 0
M  V30 4307 C 406.925 0.210233 1.72725 0
M  V30 4308 O 408.101 0.43975 1.9654 0
M  V30 4309 C 405.166 1.07782 3.29521 0
M  V30 4310 C 404.227 2.26625 3.64609 0
M  V30 4311 C 403.46 2.04938 4.92784 0
M  V30 4312 O 403.683 1.01624 5.61274 0
M  V30 4313 O 402.617 2.9232 5.26149 0
M  V30 4314 H 406.443 2.26779 2.02002 0
M  V30 4315 H 404.028 1.15823 0.943682 0
M  V30 4316 H 405.91 0.969392 4.10098 0
M  V30 4317 H 404.585 0.146003 3.23371 0
M  V30 4318 H 403.492 2.43033 2.84404 0
M  V30 4319 H 404.825 3.18257 3.75464 0
M  V30 4320 N 406.477 -1.02803 1.19454 0
M  V30 4321 C 407.427 -2.0945 0.900827 0
M  V30 4322 C 408.411 -1.60335 -0.134715 0
M  V30 4323 O 409.603 -1.76857 0.0710924 0
M  V30 4324 C 406.732 -3.4044 0.442229 0
M  V30 4325 C 405.818 -3.96286 1.51056 0
M  V30 4326 N 406.209 -4.25785 2.73021 0
M  V30 4327 C 404.507 -4.24307 1.37404 0
M  V30 4328 C 405.208 -4.70654 3.41848 0
M  V30 4329 N 404.184 -4.72238 2.69243 0
M  V30 4330 H 407.986 -2.3015 1.82779 0
M  V30 4331 H 405.5 -1.20672 1.08683 0
M  V30 4332 H 407.497 -4.16354 0.21326 0
M  V30 4333 H 406.157 -3.21159 -0.478238 0
M  V30 4334 H 407.168 -4.15041 3.09776 0
M  V30 4335 H 403.845 -4.14285 0.517103 0
M  V30 4336 H 405.235 -5.02392 4.46152 0
M  V30 4337 N 407.956 -0.998596 -1.21925 0
M  V30 4338 C 408.866 -0.562736 -2.27751 0
M  V30 4339 C 409.882 0.391203 -1.69545 0
M  V30 4340 O 411.058 0.256625 -1.99758 0
M  V30 4341 C 408.123 0.11012 -3.46525 0
M  V30 4342 C 407.184 -0.887495 -4.20026 0
M  V30 4343 C 406.417 -0.246654 -5.3313 0
M  V30 4344 O 406.64 0.958088 -5.62296 0
M  V30 4345 O 405.574 -0.954374 -5.94286 0
M  V30 4346 H 409.4 -1.44329 -2.67213 0
M  V30 4347 H 406.985 -0.767135 -1.28201 0
M  V30 4348 H 408.867 0.486756 -4.18579 0
M  V30 4349 H 407.542 0.965154 -3.08976 0
M  V30 4350 H 406.449 -1.31517 -3.5022 0
M  V30 4351 H 407.782 -1.71191 -4.6147 0
M  V30 4352 N 409.434 1.37368 -0.772513 0
M  V30 4353 C 410.364 2.32856 -0.173304 0
M  V30 4354 C 411.345 1.55818 0.682262 0
M  V30 4355 O 412.53 1.84052 0.619566 0
M  V30 4356 C 409.66 3.40048 0.706007 0
M  V30 4357 C 408.614 4.27973 -0.0483144 0
M  V30 4358 C 407.94 5.26184 0.950491 0
M  V30 4359 C 409.24 5.07665 -1.22776 0
M  V30 4360 H 410.934 2.83217 -0.971002 0
M  V30 4361 H 408.48 1.3617 -0.468377 0
M  V30 4362 H 410.433 4.05827 1.13501 0
M  V30 4363 H 409.157 2.88214 1.53623 0
M  V30 4364 H 407.816 3.63726 -0.458107 0
M  V30 4365 H 407.464 4.7063 1.77529 0
M  V30 4366 H 407.164 5.85872 0.450314 0
M  V30 4367 H 408.688 5.94838 1.37842 0
M  V30 4368 H 410.102 5.66578 -0.875366 0
M  V30 4369 H 408.499 5.76681 -1.66007 0
M  V30 4370 H 409.569 4.40294 -2.03149 0
M  V30 4371 N 410.912 0.523116 1.48665 0
M  V30 4372 C 411.862 -0.263106 2.26477 0
M  V30 4373 C 412.846 -0.916005 1.32281 0
M  V30 4374 O 414.038 -0.819946 1.56863 0
M  V30 4375 C 411.167 -1.31361 3.17174 0
M  V30 4376 C 410.253 -0.665849 4.1884 0
M  V30 4377 N 410.644 0.244434 5.05209 0
M  V30 4378 C 408.942 -0.923863 4.36326 0
M  V30 4379 C 409.643 0.617443 5.78414 0
M  V30 4380 N 408.619 -0.0198686 5.43596 0
M  V30 4381 H 412.421 0.437295 2.90629 0
M  V30 4382 H 409.935 0.340675 1.58787 0
M  V30 4383 H 411.932 -1.89052 3.71571 0
M  V30 4384 H 410.592 -2.01546 2.54576 0
M  V30 4385 H 411.603 0.616621 5.14216 0
M  V30 4386 H 408.28 -1.6168 3.84923 0
M  V30 4387 H 409.67 1.36346 6.57921 0
M  V30 4388 N 412.39 -1.55475 0.257931 0
M  V30 4389 C 413.3 -2.2549 -0.647425 0
M  V30 4390 C 414.316 -1.2748 -1.18427 0
M  V30 4391 O 415.492 -1.6038 -1.2182 0
M  V30 4392 C 412.557 -2.94916 -1.82278 0
M  V30 4393 C 411.618 -4.08363 -1.32432 0
M  V30 4394 C 410.851 -4.74469 -2.44366 0
M  V30 4395 O 411.074 -4.39701 -3.63344 0
M  V30 4396 O 410.008 -5.62763 -2.13497 0
M  V30 4397 H 413.834 -3.03593 -0.0807707 0
M  V30 4398 H 411.419 -1.49377 0.0259962 0
M  V30 4399 H 413.301 -3.38606 -2.50846 0
M  V30 4400 H 411.976 -2.19744 -2.37685 0
M  V30 4401 H 410.883 -3.69166 -0.605605 0
M  V30 4402 H 412.216 -4.85385 -0.816211 0
M  V30 4403 N 413.868 0.0150385 -1.57593 0
M  V30 4404 C 414.798 1.01047 -2.10503 0
M  V30 4405 C 415.779 1.36816 -1.01071 0
M  V30 4406 O 416.964 1.45455 -1.28672 0
M  V30 4407 C 414.094 2.30708 -2.59598 0
M  V30 4408 C 413.048 2.09142 -3.73421 0
M  V30 4409 C 412.374 3.44685 -4.08774 0
M  V30 4410 C 413.674 1.46619 -5.01298 0
M  V30 4411 H 415.368 0.569978 -2.93925 0
M  V30 4412 H 412.914 0.272724 -1.41394 0
M  V30 4413 H 414.867 3.00687 -2.95238 0
M  V30 4414 H 413.591 2.76843 -1.73279 0
M  V30 4415 H 412.25 1.41592 -3.38153 0
M  V30 4416 H 411.898 3.88495 -3.195 0
M  V30 4417 H 411.598 3.31077 -4.8545 0
M  V30 4418 H 413.122 4.16004 -4.4696 0
M  V30 4419 H 414.536 2.06535 -5.34805 0
M  V30 4420 H 412.933 1.43544 -5.82679 0
M  V30 4421 H 414.003 0.433611 -4.82957 0
M  V30 4422 N 415.346 1.54954 0.287554 0
M  V30 4423 C 416.594 1.74528 1.01904 0
M  V30 4424 C 416.915 0.541349 1.87335 0
M  V30 4425 O 416.185 -0.444108 1.908 0
M  V30 4426 H 414.765 0.643576 0.379235 0
M  V30 4427 H 417.427 1.92333 0.315294 0
M  V30 4428 H 416.523 2.64015 1.6644 0
M  V30 4429 N 416.824 -0.551391 1.4764 0
M  V30 4430 C 417.754 -1.66757 1.63445 0
M  V30 4431 C 418.735 -1.63077 0.483742 0
M  V30 4432 O 419.92 -1.80607 0.71377 0
M  V30 4433 C 417.05 -3.05387 1.65396 0
M  V30 4434 C 416.004 -3.23918 2.79752 0
M  V30 4435 C 415.33 -4.63393 2.66779 0
M  V30 4436 C 416.63 -3.08735 4.21284 0
M  V30 4437 H 418.324 -1.53786 2.56886 0
M  V30 4438 H 415.87 -0.738415 1.23626 0
M  V30 4439 H 417.823 -3.83325 1.75043 0
M  V30 4440 H 416.547 -3.19332 0.685195 0
M  V30 4441 H 415.206 -2.48391 2.69625 0
M  V30 4442 H 414.854 -4.74144 1.67918 0
M  V30 4443 H 414.554 -4.7674 3.43501 0
M  V30 4444 H 416.078 -5.43458 2.78364 0
M  V30 4445 H 417.492 -3.76484 4.32357 0
M  V30 4446 H 415.889 -3.33588 4.98838 0
M  V30 4447 H 416.959 -2.0541 4.39243 0
M  V30 4448 N 418.302 -1.35869 -0.798587 0
M  V30 4449 C 419.232 -1.32118 -1.92528 0
M  V30 4450 C 420.213 -0.194209 -1.68988 0
M  V30 4451 O 421.398 -0.390426 -1.90235 0
M  V30 4452 C 418.528 -1.10047 -3.29404 0
M  V30 4453 C 417.482 -2.19471 -3.67446 0
M  V30 4454 C 416.808 -1.82555 -5.02571 0
M  V30 4455 C 418.108 -3.61495 -3.76987 0
M  V30 4456 H 419.802 -2.26394 -1.95924 0
M  V30 4457 H 417.348 -1.08981 -0.94123 0
M  V30 4458 H 419.301 -1.06061 -4.07835 0
M  V30 4459 H 418.025 -0.122195 -3.26371 0
M  V30 4460 H 416.684 -2.22568 -2.91306 0
M  V30 4461 H 416.332 -0.833249 -4.9605 0
M  V30 4462 H 416.032 -2.5581 -5.28995 0
M  V30 4463 H 417.556 -1.80108 -5.83432 0
M  V30 4464 H 418.97 -3.60676 -4.4563 0
M  V30 4465 H 417.367 -4.33577 -4.14887 0
M  V30 4466 H 418.437 -3.97065 -2.78329 0
M  V30 4467 N 419.78 1.02168 -1.19998 0
M  V30 4468 C 420.727 2.10601 -0.944228 0
M  V30 4469 C 421.697 1.65639 0.123664 0
M  V30 4470 O 422.882 1.9079 -0.0199941 0
M  V30 4471 C 420.022 3.41504 -0.496865 0
M  V30 4472 C 419.135 3.99973 -1.63234 0
M  V30 4473 C 418.27 5.18915 -1.13579 0
M  V30 4474 C 417.309 5.69456 -2.24468 0
M  V30 4475 N 416.446 6.79665 -1.76068 0
M  V30 4476 H 421.286 2.31814 -1.8726 0
M  V30 4477 H 418.823 1.13686 -0.933483 0
M  V30 4478 H 420.781 4.16626 -0.218843 0
M  V30 4479 H 419.411 3.2038 0.394508 0
M  V30 4480 H 418.463 3.21997 -2.0254 0
M  V30 4481 H 419.775 4.33492 -2.46752 0
M  V30 4482 H 418.929 6.01222 -0.813429 0
M  V30 4483 H 417.668 4.8695 -0.270434 0
M  V30 4484 H 416.673 4.85757 -2.57526 0
M  V30 4485 H 417.898 6.03459 -3.11472 0
M  V30 4486 H 415.844 6.49538 -0.918516 0
M  V30 4487 H 415.761 7.12349 -2.5317 0
M  V30 4488 H 417.029 7.65549 -1.46817 0
M  V30 4489 N 421.258 1.00505 1.21394 0
M  V30 4490 C 422.535 0.603277 1.86064 0
M  V30 4491 C 422.915 -0.919095 1.90042 0
M  V30 4492 O 422.263 -1.80607 1.39977 0
M  V30 4493 C 422.473 1.23772 3.26315 0
M  V30 4494 C 423.821 1.34586 4.02705 0
M  V30 4495 O 424.845 1.19304 3.35626 0
M  V30 4496 O 423.704 1.59169 5.22807 0
M  V30 4497 H 420.798 0.206634 0.800769 0
M  V30 4498 H 423.344 1.1017 1.29076 0
M  V30 4499 H 422.116 2.27848 3.18121 0
M  V30 4500 H 421.739 0.725648 3.90922 0
M  V30 4501 N 422.737 -1.36956 0.779787 0
M  V30 4502 C 423.687 -2.27539 0.144892 0
M  V30 4503 C 424.671 -1.46493 -0.665488 0
M  V30 4504 O 425.863 -1.68968 -0.527141 0
M  V30 4505 C 422.992 -3.35512 -0.727082 0
M  V30 4506 C 422.078 -4.24001 0.0915642 0
M  V30 4507 N 422.469 -4.92757 1.14125 0
M  V30 4508 C 420.767 -4.45807 -0.131141 0
M  V30 4509 C 421.468 -5.58138 1.6388 0
M  V30 4510 N 420.444 -5.35241 0.94962 0
M  V30 4511 H 424.246 -2.78176 0.948446 0
M  V30 4512 H 421.76 -1.50169 0.618315 0
M  V30 4513 H 423.757 -3.99324 -1.19776 0
M  V30 4514 H 422.417 -2.86431 -1.52929 0
M  V30 4515 H 423.428 -4.94984 1.52353 0
M  V30 4516 H 420.105 -4.07582 -0.904621 0
M  V30 4517 H 421.495 -6.23071 2.51461 0
M  V30 4518 N 424.215 -0.530993 -1.48385 0
M  V30 4519 C 425.44 0.000729535 -2.074 0
M  V30 4520 C 425.865 1.27298 -1.3848 0
M  V30 4521 O 425.223 1.75599 -0.451081 0
M  V30 4522 C 425.271 0.206697 -3.60007 0
M  V30 4523 O 424.375 1.27514 -3.92191 0
M  V30 4524 H 423.716 -0.039583 -0.662819 0
M  V30 4525 H 426.246 -0.739194 -1.9078 0
M  V30 4526 H 426.256 0.42904 -4.05738 0
M  V30 4527 H 424.931 -0.722675 -4.09573 0
M  V30 4528 H 423.508 1.03537 -3.58238 0
M  V30 4529 N 425.693 1.55336 -0.266172 0
M  V30 4530 C 426.623 2.25146 0.618981 0
M  V30 4531 C 427.604 1.23845 1.16604 0
M  V30 4532 O 428.789 1.52544 1.20183 0
M  V30 4533 C 425.919 2.96572 1.80728 0
M  V30 4534 C 424.873 4.04726 1.39215 0
M  V30 4535 C 424.199 4.63678 2.66283 0
M  V30 4536 C 425.499 5.19407 0.548942 0
M  V30 4537 H 427.193 2.99377 0.0368116 0
M  V30 4538 H 424.739 1.43991 0.0162651 0
M  V30 4539 H 426.692 3.44116 2.43232 0
M  V30 4540 H 425.416 2.19861 2.41514 0
M  V30 4541 H 424.075 3.57979 0.790351 0
M  V30 4542 H 423.723 3.83646 3.25308 0
M  V30 4543 H 423.423 5.367 2.39222 0
M  V30 4544 H 424.947 5.13967 3.29651 0
M  V30 4545 H 426.361 5.63059 1.07876 0
M  V30 4546 H 424.758 5.98936 0.373593 0
M  V30 4547 H 425.828 4.8295 -0.434394 0
M  V30 4548 N 427.171 -0.0066808 1.57599 0
M  V30 4549 C 428.081 -1.01671 2.11424 0
M  V30 4550 C 429.097 -1.38143 1.05795 0
M  V30 4551 O 430.273 -1.47011 1.37658 0
M  V30 4552 C 427.338 -2.29192 2.60139 0
M  V30 4553 C 426.399 -1.99094 3.80342 0
M  V30 4554 C 425.632 -3.20535 4.26724 0
M  V30 4555 O 425.855 -4.3199 3.72479 0
M  V30 4556 O 424.789 -3.04924 5.18946 0
M  V30 4557 H 428.615 -0.589181 2.9793 0
M  V30 4558 H 426.2 -0.225091 1.47695 0
M  V30 4559 H 428.082 -3.0412 2.917 0
M  V30 4560 H 426.757 -2.71195 1.76733 0
M  V30 4561 H 425.664 -1.21663 3.53764 0
M  V30 4562 H 426.997 -1.61931 4.648 0
M  V30 4563 N 428.649 -1.55105 -0.279332 0
M  V30 4564 C 429.897 -1.75066 -1.00977 0
M  V30 4565 C 430.218 -0.551276 -1.87045 0
M  V30 4566 O 429.488 0.433984 -1.91032 0
M  V30 4567 H 428.068 -0.645578 -0.375816 0
M  V30 4568 H 430.73 -1.92497 -0.305089 0
M  V30 4569 H 429.826 -2.64894 -1.65038 0
M  V30 4570 N 430.127 0.543554 -1.4793 0
M  V30 4571 C 431.543 0.870806 -1.3375 0
M  V30 4572 C 431.743 1.9864 -0.338261 0
M  V30 4573 O 430.799 2.51305 0.245371 0
M  V30 4574 C 432.112 1.25114 -2.73435 0
M  V30 4575 C 433.66 1.3618 -2.81823 0
M  V30 4576 C 434.135 1.77563 -4.22179 0
M  V30 4577 N 435.626 1.8469 -4.24787 0
M  V30 4578 C 436.361 2.18067 -5.30315 0
M  V30 4579 N 435.857 2.49963 -6.46135 0
M  V30 4580 N 437.65 2.18958 -5.17701 0
M  V30 4581 H 429.801 -0.19275 -2.11524 0
M  V30 4582 H 432.064 -0.0235777 -0.947707 0
M  V30 4583 H 431.77 0.50514 -3.48053 0
M  V30 4584 H 431.644 2.20431 -3.06088 0
M  V30 4585 H 434.031 2.09859 -2.07468 0
M  V30 4586 H 434.112 0.390169 -2.52807 0
M  V30 4587 H 433.756 1.04449 -4.97044 0
M  V30 4588 H 433.686 2.75753 -4.48629 0
M  V30 4589 H 436.177 1.62372 -3.41239 0
M  V30 4590 H 436.49 2.74497 -7.22406 0
M  V30 4591 H 434.835 2.47513 -6.49432 0
M  V30 4592 H 438.026 1.93488 -4.2624 0
M  V30 4593 H 438.199 2.44639 -6.00047 0
M  V30 4594 N 431.605 1.3629 0.791371 0
M  V30 4595 C 432.835 1.33368 1.57786 0
M  V30 4596 C 433.243 -0.0875188 1.88997 0
M  V30 4597 O 432.586 -1.05427 1.50435 0
M  V30 4598 C 432.648 2.08802 2.92646 0
M  V30 4599 C 432.312 3.57903 2.84174 0
M  V30 4600 C 433.309 4.52191 2.56553 0
M  V30 4601 C 430.994 4.00762 3.02812 0
M  V30 4602 C 432.988 5.87315 2.47669 0
M  V30 4603 C 430.675 5.35977 2.93551 0
M  V30 4604 C 431.673 6.29066 2.66017 0
M  V30 4605 O 431.361 7.61798 2.56746 0
M  V30 4606 H 431.093 0.459166 0.496128 0
M  V30 4607 H 433.647 1.79952 0.990269 0
M  V30 4608 H 431.877 1.56878 3.53449 0
M  V30 4609 H 433.566 1.98762 3.53904 0
M  V30 4610 H 434.332 4.20393 2.41858 0
M  V30 4611 H 430.211 3.2868 3.2325 0
M  V30 4612 H 433.755 6.59943 2.26099 0
M  V30 4613 H 429.652 5.67384 3.07808 0
M  V30 4614 H 430.42 7.71898 2.72242 0
M  V30 4615 N 433.083 -1.0153 1.20538 0
M  V30 4616 C 434.33 -1.75149 1.01633 0
M  V30 4617 C 434.658 -1.89189 -0.451399 0
M  V30 4618 O 433.913 -1.41551 -1.35136 0
M  V30 4619 C 434.212 -3.17213 1.64654 0
M  V30 4620 C 433.878 -3.23146 3.14464 0
M  V30 4621 C 432.54 -3.24472 3.55347 0
M  V30 4622 C 434.892 -3.21207 4.10458 0
M  V30 4623 C 432.22 -3.21532 4.90748 0
M  V30 4624 C 434.572 -3.19808 5.45807 0
M  V30 4625 C 433.236 -3.19439 5.86102 0
M  V30 4626 H 432.506 -0.640914 0.3719 0
M  V30 4627 H 435.153 -1.19071 1.49981 0
M  V30 4628 H 433.458 -3.76457 1.08571 0
M  V30 4629 H 435.155 -3.72871 1.4754 0
M  V30 4630 H 431.745 -3.2285 2.81897 0
M  V30 4631 H 435.929 -3.19351 3.79906 0
M  V30 4632 H 431.185 -3.19578 5.21229 0
M  V30 4633 H 435.359 -3.1726 6.19935 0
M  V30 4634 H 432.986 -3.16915 6.90991 0
M  V30 4635 N 434.561 -1.01147 -1.20859 0
M  V30 4636 C 435.493 -0.535546 -2.22855 0
M  V30 4637 C 436.506 0.379323 -1.58319 0
M  V30 4638 O 437.695 0.178489 -1.77605 0
M  V30 4639 C 434.795 0.240962 -3.38042 0
M  V30 4640 C 433.968 -0.674562 -4.32167 0
M  V30 4641 C 433.027 0.053467 -5.26173 0
M  V30 4642 O 432.053 -0.567339 -5.66366 0
M  V30 4643 N 433.255 1.32997 -5.65059 0
M  V30 4644 H 436.02 -1.41268 -2.64317 0
M  V30 4645 H 433.581 -0.888386 -1.35349 0
M  V30 4646 H 435.573 0.737115 -3.97931 0
M  V30 4647 H 434.143 1.01935 -2.95513 0
M  V30 4648 H 433.363 -1.35111 -3.70322 0
M  V30 4649 H 434.651 -1.2974 -4.91981 0
M  V30 4650 H 434.049 1.85536 -5.34409 0
M  V30 4651 H 432.606 1.77095 -6.2728 0
M  V30 4652 N 436.039 1.36541 -0.78704 0
M  V30 4653 C 436.987 2.31965 -0.171724 0
M  V30 4654 C 437.981 1.55689 0.667631 0
M  V30 4655 O 439.187 1.70969 0.562981 0
M  V30 4656 H 435.562 0.751101 -0.0367545 0
M  V30 4657 H 437.533 2.81428 -0.992017 0
M  V30 4658 C 436.282 3.40968 0.680904 0
M  V30 4659 H 435.605 3.99775 0.0443961 0
M  V30 4660 H 437.045 4.10063 1.07815 0
M  V30 4661 C 435.504 2.82338 1.83813 0
M  V30 4662 O 436.034 2.74311 2.93456 0
M  V30 4663 N 434.24 2.39661 1.6435 0
M  V30 4664 H 433.787 2.46389 0.751668 0
M  V30 4665 H 433.745 2.00779 2.4194 0
M  V30 4666 N 437.518 0.538854 1.48102 0
M  V30 4667 C 438.748 0.0122958 2.06596 0
M  V30 4668 C 439.156 -1.27861 1.39457 0
M  V30 4669 O 438.499 -1.77348 0.478907 0
M  V30 4670 C 438.561 -0.273131 3.58461 0
M  V30 4671 C 438.225 0.92561 4.47528 0
M  V30 4672 C 439.222 1.82637 4.86765 0
M  V30 4673 C 436.907 1.13511 4.89306 0
M  V30 4674 C 438.901 2.92047 5.66558 0
M  V30 4675 C 436.588 2.23233 5.68868 0
M  V30 4676 C 437.586 3.12333 6.07402 0
M  V30 4677 O 437.274 4.20155 6.85365 0
M  V30 4678 H 437.006 0.0344283 0.675123 0
M  V30 4679 H 439.56 0.746494 1.91355 0
M  V30 4680 H 437.79 -1.06141 3.71848 0
M  V30 4681 H 439.479 -0.742842 3.99045 0
M  V30 4682 H 440.245 1.67649 4.55103 0
M  V30 4683 H 436.124 0.450835 4.5879 0
M  V30 4684 H 439.668 3.6162 5.96554 0
M  V30 4685 H 435.565 2.38201 5.99942 0
M  V30 4686 H 436.333 4.17975 7.03732 0
M  V30 4687 N 438.996 -1.55193 0.274407 0
M  V30 4688 C 440.221 -2.04446 -0.348824 0
M  V30 4689 C 440.646 -1.15149 -1.48735 0
M  V30 4690 O 440.004 -0.149952 -1.80679 0
M  V30 4691 C 440.052 -3.51431 -0.808009 0
M  V30 4692 O 439.156 -3.65225 -1.91531 0
M  V30 4693 H 438.497 -0.66006 -0.0722276 0
M  V30 4694 H 441.027 -2.00481 0.408498 0
M  V30 4695 H 441.037 -3.92781 -1.10395 0
M  V30 4696 H 439.712 -4.15892 0.0249865 0
M  V30 4697 H 438.289 -3.35778 -1.62196 0
M  V30 4698 N 440.474 -0.00167713 -1.576 0
M  V30 4699 C 441.704 0.692754 -1.94639 0
M  V30 4700 C 442.112 1.67744 -0.87513 0
M  V30 4701 O 441.455 1.8305 0.154382 0
M  V30 4702 C 441.517 1.47881 -3.27676 0
M  V30 4703 C 441.181 0.655518 -4.52274 0
M  V30 4704 C 442.178 -0.0575214 -5.19868 0
M  V30 4705 C 439.863 0.600994 -4.98692 0
M  V30 4706 C 441.857 -0.814052 -6.3218 0
M  V30 4707 C 439.544 -0.15926 -6.10892 0
M  V30 4708 C 440.542 -0.865515 -6.77494 0
M  V30 4709 O 440.23 -1.61336 -7.87544 0
M  V30 4710 H 439.962 0.197792 -0.646417 0
M  V30 4711 H 442.516 -0.049423 -2.05341 0
M  V30 4712 H 440.746 2.2655 -3.13388 0
M  V30 4713 H 442.435 2.05874 -3.49816 0
M  V30 4714 H 443.201 -0.0245611 -4.84994 0
M  V30 4715 H 439.08 1.14025 -4.46676 0
M  V30 4716 H 442.624 -1.36584 -6.84098 0
M  V30 4717 H 438.521 -0.194035 -6.45208 0
M  V30 4718 H 439.289 -1.53025 -8.04068 0
M  V30 4719 N 441.952 1.55251 0.271103 0
M  V30 4720 C 443.2 1.75599 1.00047 0
M  V30 4721 C 443.521 0.561188 1.8675 0
M  V30 4722 O 442.791 -0.423846 1.9126 0
M  V30 4723 H 441.371 0.647562 0.372387 0
M  V30 4724 H 444.033 1.92656 0.294876 0
M  V30 4725 H 443.129 2.65766 1.6363 0
M  V30 4726 N 443.43 -0.535701 1.48216 0
M  V30 4727 C 444.678 -1.28928 1.55634 0
M  V30 4728 C 444.999 -1.93645 0.229514 0
M  V30 4729 O 444.269 -1.81038 -0.74846 0
M  V30 4730 H 442.849 -0.47884 0.573342 0
M  V30 4731 H 445.511 -0.623853 1.84646 0
M  V30 4732 H 444.607 -2.07157 2.33436 0
M  V30 4733 N 444.908 -1.36708 -0.784132 0
M  V30 4734 C 446.154 -1.31426 -1.54451 0
M  V30 4735 C 446.487 0.10476 -1.93917 0
M  V30 4736 O 445.762 1.05934 -1.6312 0
M  V30 4737 C 446.045 -2.24189 -2.818 0
M  V30 4738 C 445.898 -3.74813 -2.48667 0
M  V30 4739 C 447.217 -2.15626 -3.83658 0
M  V30 4740 H 444.336 -0.478739 -0.560337 0
M  V30 4741 H 446.978 -1.67305 -0.900498 0
M  V30 4742 H 445.128 -1.93722 -3.36755 0
M  V30 4743 H 446.8 -4.15823 -1.99722 0
M  V30 4744 H 445.043 -3.93989 -1.81535 0
M  V30 4745 H 445.714 -4.35138 -3.39646 0
M  V30 4746 H 448.19 -2.42456 -3.38163 0
M  V30 4747 H 447.066 -2.82694 -4.70506 0
M  V30 4748 H 447.327 -1.14522 -4.27009 0
M  V30 4749 N 446.386 1.0089 -1.21074 0
M  V30 4750 C 447.635 1.74019 -1.01981 0
M  V30 4751 C 447.948 1.90408 0.447665 0
M  V30 4752 O 449.154 2.60707 0.757906 0
M  V30 4753 C 447.61 3.13026 -1.77603 0
M  V30 4754 C 447.218 3.04623 -3.28495 0
M  V30 4755 C 448.962 3.90312 -1.66904 0
M  V30 4756 C 446.869 4.38685 -3.96623 0
M  V30 4757 H 445.799 0.652422 -0.377971 0
M  V30 4758 H 448.45 1.12755 -1.44771 0
M  V30 4759 H 446.832 3.74878 -1.27604 0
M  V30 4760 H 448.006 2.52032 -3.85767 0
M  V30 4761 H 446.321 2.40827 -3.39693 0
M  V30 4762 H 448.918 4.8951 -2.15138 0
M  V30 4763 H 449.261 4.11558 -0.62658 0
M  V30 4764 H 449.794 3.35104 -2.14359 0
M  V30 4765 H 446.533 4.22641 -5.01054 0
M  V30 4766 H 446.053 4.91252 -3.4414 0
M  V30 4767 H 447.732 5.075 -4.01314 0
M  V30 4768 N 447.864 1.01787 1.20321 0
M  V30 4769 C 448.796 0.547357 2.22568 0
M  V30 4770 C 449.809 -0.370922 1.58518 0
M  V30 4771 O 450.998 -0.169067 1.77698 0
M  V30 4772 C 448.098 -0.223031 3.38165 0
M  V30 4773 C 447.271 0.697472 4.31803 0
M  V30 4774 C 446.33 -0.025562 5.26194 0
M  V30 4775 O 445.356 0.597367 5.66057 0
M  V30 4776 N 446.558 -1.29999 5.65757 0
M  V30 4777 H 449.323 1.42668 2.63564 0
M  V30 4778 H 446.884 0.895552 1.34876 0
M  V30 4779 H 448.876 -0.716002 3.98316 0
M  V30 4780 H 447.446 -1.00366 2.9605 0
M  V30 4781 H 446.666 1.37073 3.69601 0
M  V30 4782 H 447.954 1.32347 4.91286 0
M  V30 4783 H 447.352 -1.827 5.35385 0
M  V30 4784 H 445.909 -1.73766 6.28211 0
M  V30 4785 N 449.342 -1.36122 0.79427 0
M  V30 4786 C 450.619 -1.93398 0.292685 0
M  V30 4787 C 450.999 -1.72567 -1.21589 0
M  V30 4788 O 450.347 -1.08745 -2.00965 0
M  V30 4789 C 450.557 -3.42099 0.690614 0
M  V30 4790 C 451.905 -4.19231 0.673105 0
M  V30 4791 O 452.929 -3.50559 0.631389 0
M  V30 4792 O 451.788 -5.41732 0.720362 0
M  V30 4793 H 448.882 -0.823712 0.0736693 0
M  V30 4794 H 451.428 -1.45273 0.87714 0
M  V30 4795 H 450.2 -3.50938 1.73085 0
M  V30 4796 H 449.823 -3.97519 0.0803036 0
M  V30 4797 N 450.82 -0.546701 -1.47814 0
M  V30 4798 C 452.097 0.0464413 -1.95545 0
M  V30 4799 C 452.477 1.4962 -1.48919 0
M  V30 4800 O 451.825 2.16752 -0.723232 0
M  V30 4801 C 452.035 -0.0881298 -3.48889 0
M  V30 4802 C 453.383 0.0626059 -4.24554 0
M  V30 4803 O 454.407 -0.0151555 -3.56197 0
M  V30 4804 O 453.266 0.228071 -5.46024 0
M  V30 4805 H 450.36 0.0700004 -0.824032 0
M  V30 4806 H 452.906 -0.612482 -1.58262 0
M  V30 4807 H 451.678 -1.09737 -3.75597 0
M  V30 4808 H 451.301 0.608886 -3.9291 0
M  V30 4809 N 452.299 1.55045 -0.282633 0
M  V30 4810 C 453.249 2.19514 0.616249 0
M  V30 4811 C 454.233 1.16216 1.11277 0
M  V30 4812 O 455.425 1.42004 1.05659 0
M  V30 4813 C 452.554 2.92548 1.7964 0
M  V30 4814 C 451.64 4.03142 1.31671 0
M  V30 4815 N 452.031 5.0276 0.553695 0
M  V30 4816 C 450.329 4.1635 1.59903 0
M  V30 4817 C 451.03 5.80923 0.30054 0
M  V30 4818 N 450.006 5.3651 0.875116 0
M  V30 4819 H 453.808 2.93889 0.0255363 0
M  V30 4820 H 451.322 1.62169 -0.0865362 0
M  V30 4821 H 453.319 3.37188 2.45173 0
M  V30 4822 H 451.979 2.19685 2.39099 0
M  V30 4823 H 452.99 5.17512 0.20032 0
M  V30 4824 H 449.667 3.54682 2.20243 0
M  V30 4825 H 451.057 6.7118 -0.311053 0
M  V30 4826 N 453.777 0.010035 1.57597 0
M  V30 4827 C 455.026 -0.671945 1.90178 0
M  V30 4828 C 455.339 -1.74376 0.886131 0
M  V30 4829 O 456.545 -2.48107 1.10252 0
M  V30 4830 C 455.001 -1.24636 3.3763 0
M  V30 4831 C 454.609 -0.208838 4.47513 0
M  V30 4832 C 456.353 -1.90595 3.79307 0
M  V30 4833 C 454.26 -0.793814 5.86048 0
M  V30 4834 H 453.19 -0.25474 0.709665 0
M  V30 4835 H 455.841 0.0722206 1.83358 0
M  V30 4836 H 454.223 -2.04152 3.3932 0
M  V30 4837 H 455.397 0.562463 4.57354 0
M  V30 4838 H 453.712 0.350889 4.14919 0
M  V30 4839 H 456.309 -2.35284 4.80151 0
M  V30 4840 H 456.652 -2.74074 3.13352 0
M  V30 4841 H 457.185 -1.17798 3.79958 0
M  V30 4842 H 453.924 0.00240855 6.555 0
M  V30 4843 H 453.444 -1.53404 5.79851 0
M  V30 4844 H 455.123 -1.2894 6.34022 0
M  V30 4845 N 455.255 -1.55392 -0.262866 0
M  V30 4846 C 456.666 -1.67079 -0.833158 0
M  V30 4847 C 457.017 -0.604539 -1.86654 0
M  V30 4848 O 456.142 0.252138 -2.14926 0
M  V30 4849 C 456.737 -3.02891 -1.51797 0
M  V30 4850 C 455.296 -3.16571 -2.03617 0
M  V30 4851 C 454.443 -2.62909 -0.881701 0
M  V30 4852 H 457.394 -1.58652 -0.0389986 0
M  V30 4853 H 457.415 -2.96445 -2.38538 0
M  V30 4854 H 456.927 -3.80473 -0.765619 0
M  V30 4855 H 455.028 -2.43782 -2.81782 0
M  V30 4856 H 455.141 -4.23271 -2.24452 0
M  V30 4857 H 453.505 -2.20324 -1.27786 0
M  V30 4858 H 454.288 -3.43003 -0.14269 0
M  V30 4859 N 456.733 0.527833 -1.48498 0
M  V30 4860 C 457.98 1.28354 -1.56625 0
M  V30 4861 C 458.308 1.93 -0.241096 0
M  V30 4862 O 457.563 1.79967 0.768798 0
M  V30 4863 C 457.862 2.39275 -2.65485 0
M  V30 4864 C 457.528 1.92268 -4.07853 0
M  V30 4865 C 456.19 1.79166 -4.46602 0
M  V30 4866 C 458.542 1.56771 -4.97064 0
M  V30 4867 C 455.87 1.28905 -5.72364 0
M  V30 4868 C 458.222 1.07972 -6.23318 0
M  V30 4869 C 456.886 0.934887 -6.60921 0
M  V30 4870 H 456.156 0.469682 -0.573131 0
M  V30 4871 H 458.803 0.588781 -1.82224 0
M  V30 4872 H 457.108 3.1443 -2.33754 0
M  V30 4873 H 458.805 2.974 -2.68988 0
M  V30 4874 H 455.395 2.03417 -3.77252 0
M  V30 4875 H 459.579 1.65753 -4.67803 0
M  V30 4876 H 454.835 1.16381 -6.00221 0
M  V30 4877 H 459.009 0.795775 -6.91838 0
M  V30 4878 H 456.636 0.543231 -7.58257 0
M  V30 4879 N 458.211 1.37122 0.776871 0
M  V30 4880 C 459.141 1.35164 1.90402 0
M  V30 4881 C 460.122 0.221069 1.68657 0
M  V30 4882 O 461.307 0.420642 1.8959 0
M  V30 4883 C 458.437 1.15274 3.27611 0
M  V30 4884 C 457.391 2.25289 3.63908 0
M  V30 4885 C 456.717 1.90527 4.99603 0
M  V30 4886 C 458.017 3.67446 3.71188 0
M  V30 4887 H 459.711 2.29482 1.92297 0
M  V30 4888 H 457.257 1.10465 0.923773 0
M  V30 4889 H 459.21 1.12536 4.06096 0
M  V30 4890 H 457.934 0.174102 3.26136 0
M  V30 4891 H 456.593 2.27174 2.87728 0
M  V30 4892 H 456.241 0.91206 4.94662 0
M  V30 4893 H 455.941 2.64193 5.24858 0
M  V30 4894 H 457.465 1.89367 5.80493 0
M  V30 4895 H 458.879 3.67719 4.39836 0
M  V30 4896 H 457.276 4.40123 4.07936 0
M  V30 4897 H 458.346 4.01443 2.71977 0
M  V30 4898 N 459.689 -1.00246 1.21608 0
M  V30 4899 C 461.105 -1.26435 0.973975 0
M  V30 4900 C 461.305 -1.98642 -0.338143 0
M  V30 4901 O 460.361 -2.29026 -1.06317 0
M  V30 4902 C 461.674 -2.08551 2.16626 0
M  V30 4903 C 463.222 -2.21769 2.20879 0
M  V30 4904 C 463.697 -3.07267 3.39633 0
M  V30 4905 N 465.188 -3.14855 3.39736 0
M  V30 4906 C 465.923 -3.81274 4.28273 0
M  V30 4907 N 465.419 -4.497 5.27012 0
M  V30 4908 N 467.212 -3.7794 4.16074 0
M  V30 4909 H 459.363 -0.518089 2.05984 0
M  V30 4910 H 461.626 -0.291368 0.902113 0
M  V30 4911 H 461.332 -1.62847 3.11727 0
M  V30 4912 H 461.206 -3.09303 2.15897 0
M  V30 4913 H 463.593 -2.66691 1.26332 0
M  V30 4914 H 463.674 -1.20478 2.25652 0
M  V30 4915 H 463.318 -2.63047 4.34475 0
M  V30 4916 H 463.248 -4.08678 3.321 0
M  V30 4917 H 465.739 -2.66147 2.6828 0
M  V30 4918 H 466.052 -4.98092 5.90867 0
M  V30 4919 H 464.397 -4.48479 5.30935 0
M  V30 4920 H 467.588 -3.23638 3.38195 0
M  V30 4921 H 467.761 -4.29424 4.85282 0
M  V30 4922 N 461.167 -1.02423 -1.1978 0
M  V30 4923 C 462.583 -0.740459 -1.41384 0
M  V30 4924 C 462.783 0.676827 -1.89793 0
M  V30 4925 O 461.839 1.4435 -2.0717 0
M  V30 4926 C 463.152 -1.77264 -2.42895 0
M  V30 4927 C 464.7 -1.79165 -2.56649 0
M  V30 4928 C 465.175 -2.8133 -3.6141 0
M  V30 4929 N 466.666 -2.80118 -3.68901 0
M  V30 4930 C 467.401 -3.55824 -4.49641 0
M  V30 4931 N 466.897 -4.41231 -5.34123 0
M  V30 4932 N 468.69 -3.44387 -4.44246 0
M  V30 4933 H 460.841 -1.9391 -0.866764 0
M  V30 4934 H 463.104 -0.838074 -0.443098 0
M  V30 4935 H 462.81 -2.7884 -2.14339 0
M  V30 4936 H 462.684 -1.59108 -3.42001 0
M  V30 4937 H 465.071 -0.782702 -2.84531 0
M  V30 4938 H 465.152 -2.01396 -1.57713 0
M  V30 4939 H 464.796 -3.82394 -3.34271 0
M  V30 4940 H 464.726 -2.56359 -4.59986 0
M  V30 4941 H 467.217 -2.1817 -3.08562 0
M  V30 4942 H 467.53 -4.95747 -5.92836 0
M  V30 4943 H 465.875 -4.45306 -5.33599 0
M  V30 4944 H 469.066 -2.7708 -3.77285 0
M  V30 4945 H 469.239 -4.0364 -5.06931 0
M  V30 4946 N 462.645 1.35699 -0.801477 0
M  V30 4947 C 463.893 1.9852 -0.37871 0
M  V30 4948 C 464.214 1.63907 1.05638 0
M  V30 4949 O 463.484 0.919013 1.73006 0
M  V30 4950 H 462.064 0.734322 -0.137042 0
M  V30 4951 H 464.726 1.65697 -1.02619 0
M  V30 4952 H 463.822 3.08382 -0.480284 0
M  V30 4953 N 464.123 0.554532 1.47522 0
M  V30 4954 C 465.369 0.0295227 2.02779 0
M  V30 4955 C 465.702 -1.31582 1.42828 0
M  V30 4956 O 464.977 -1.85561 0.582872 0
M  V30 4957 C 465.26 -0.0664057 3.60039 0
M  V30 4958 C 465.113 1.30585 4.30427 0
M  V30 4959 C 466.432 -0.781162 4.33112 0
M  V30 4960 H 463.551 0.0122027 0.736899 0
M  V30 4961 H 466.193 0.716305 1.7598 0
M  V30 4962 H 464.343 -0.651307 3.83002 0
M  V30 4963 H 466.015 1.93374 4.18813 0
M  V30 4964 H 464.258 1.88125 3.90886 0
M  V30 4965 H 464.929 1.19147 5.38988 0
M  V30 4966 H 467.405 -0.284565 4.15126 0
M  V30 4967 H 466.281 -0.817237 5.42782 0
M  V30 4968 H 466.542 -1.83672 4.0214 0
M  V30 4969 N 465.601 -1.54893 0.290851 0
M  V30 4970 C 467.012 -1.85584 -0.203816 0
M  V30 4971 C 467.363 -1.21285 -1.54222 0
M  V30 4972 O 466.488 -0.506841 -2.10381 0
M  V30 4973 C 467.083 -3.367 -0.376595 0
M  V30 4974 C 465.642 -3.6746 -0.815485 0
M  V30 4975 C 464.789 -2.77178 0.0821087 0
M  V30 4976 H 467.74 -1.50208 0.512175 0
M  V30 4977 H 467.761 -3.60656 -1.21275 0
M  V30 4978 H 467.273 -3.8347 0.59767 0
M  V30 4979 H 465.374 -3.26201 -1.80066 0
M  V30 4980 H 465.487 -4.7478 -0.641905 0
M  V30 4981 H 463.851 -2.50925 -0.436895 0
M  V30 4982 H 464.634 -3.26767 1.05254 0
M  V30 4983 N 467.08 -0.0183926 -1.57589 0
M  V30 4984 C 468.326 0.663543 -1.91638 0
M  V30 4985 C 468.659 1.72392 -0.894134 0
M  V30 4986 O 467.934 1.94316 0.0846449 0
M  V30 4987 C 468.217 1.28984 -3.36207 0
M  V30 4988 C 468.07 0.239761 -4.49161 0
M  V30 4989 C 469.389 2.2109 -3.80536 0
M  V30 4990 H 466.508 0.239746 -0.696915 0
M  V30 4991 H 469.15 -0.073456 -1.89858 0
M  V30 4992 H 467.3 1.91799 -3.37854 0
M  V30 4993 H 468.972 -0.390119 -4.59647 0
M  V30 4994 H 467.215 -0.435972 -4.31604 0
M  V30 4995 H 467.886 0.717383 -5.47319 0
M  V30 4996 H 470.362 1.68273 -3.80557 0
M  V30 4997 H 469.238 2.61869 -4.82406 0
M  V30 4998 H 469.499 3.09764 -3.15434 0
M  V30 4999 N 468.558 1.5553 0.254621 0
M  V30 5000 C 469.488 1.9268 1.31897 0
M  V30 5001 C 470.469 0.790797 1.506 0
M  V30 5002 O 471.654 1.05045 1.63337 0
M  V30 5003 C 468.784 2.21477 2.67517 0
M  V30 5004 C 467.738 3.37256 2.63519 0
M  V30 5005 C 467.064 3.51576 4.02862 0
M  V30 5006 C 468.364 4.73157 2.21179 0
M  V30 5007 H 470.058 2.81832 1.01051 0
M  V30 5008 H 467.604 1.35599 0.484662 0
M  V30 5009 H 469.557 2.46055 3.42104 0
M  V30 5010 H 468.281 1.29144 2.99982 0
M  V30 5011 H 466.94 3.12675 1.9139 0
M  V30 5012 H 466.588 2.56676 4.32581 0
M  V30 5013 H 466.288 4.2943 4.01078 0
M  V30 5014 H 467.812 3.78467 4.79161 0
M  V30 5015 H 469.226 4.97158 2.85494 0
M  V30 5016 H 467.623 5.54058 2.30521 0
M  V30 5017 H 468.693 4.70739 1.16332 0
M  V30 5018 N 470.036 -0.519951 1.48776 0
M  V30 5019 C 470.986 -1.61995 1.60442 0
M  V30 5020 C 471.97 -1.54155 0.460991 0
M  V30 5021 O 473.162 -1.62006 0.712965 0
M  V30 5022 C 470.291 -3.00683 1.65664 0
M  V30 5023 C 469.377 -3.1359 2.8552 0
M  V30 5024 N 469.768 -2.96441 4.09825 0
M  V30 5025 C 468.066 -3.44662 2.83062 0
M  V30 5026 C 468.767 -3.1303 4.90293 0
M  V30 5027 N 467.743 -3.41058 4.23297 0
M  V30 5028 H 471.545 -1.47362 2.54287 0
M  V30 5029 H 469.059 -0.725649 1.45286 0
M  V30 5030 H 471.056 -3.79712 1.72117 0
M  V30 5031 H 469.716 -3.16401 0.729425 0
M  V30 5032 H 470.727 -2.72999 4.40104 0
M  V30 5033 H 467.404 -3.66675 1.9964 0
M  V30 5034 H 468.794 -3.04424 5.98979 0
M  V30 5035 N 471.514 -1.37532 -0.769588 0
M  V30 5036 C 472.444 -1.36172 -1.89682 0
M  V30 5037 C 473.425 -0.23001 -1.68538 0
M  V30 5038 O 474.61 -0.43069 -1.89364 0
M  V30 5039 C 471.74 -1.1701 -3.26995 0
M  V30 5040 C 470.694 -2.27216 -3.62708 0
M  V30 5041 C 470.02 -1.93174 -4.98586 0
M  V30 5042 C 471.32 -3.6941 -3.69234 0
M  V30 5043 H 473.014 -2.30499 -1.91078 0
M  V30 5044 H 470.56 -1.10953 -0.917902 0
M  V30 5045 H 472.513 -1.14688 -4.05493 0
M  V30 5046 H 471.237 -0.191395 -3.26039 0
M  V30 5047 H 469.896 -2.28697 -2.86519 0
M  V30 5048 H 469.544 -0.938281 -4.94171 0
M  V30 5049 H 469.244 -2.66973 -5.23449 0
M  V30 5050 H 470.768 -1.92443 -5.79481 0
M  V30 5051 H 472.182 -3.70047 -4.37879 0
M  V30 5052 H 470.579 -4.4228 -4.05597 0
M  V30 5053 H 471.649 -4.0288 -2.69844 0
M  V30 5054 N 472.992 0.995999 -1.22138 0
M  V30 5055 C 474.241 1.72928 -1.03821 0
M  V30 5056 C 474.554 1.90872 0.427444 0
M  V30 5057 O 475.76 2.61496 0.730212 0
M  V30 5058 C 474.216 3.11124 -1.80913 0
M  V30 5059 C 473.824 3.01122 -3.31707 0
M  V30 5060 C 475.568 3.8852 -1.71035 0
M  V30 5061 C 473.475 4.34453 -4.01253 0
M  V30 5062 H 472.405 0.648376 -0.384869 0
M  V30 5063 H 475.056 1.11213 -1.45959 0
M  V30 5064 H 473.438 3.73503 -1.31573 0
M  V30 5065 H 474.612 2.47926 -3.88419 0
M  V30 5066 H 472.927 2.3721 -3.42228 0
M  V30 5067 H 475.524 4.872 -2.20318 0
M  V30 5068 H 475.867 4.1087 -0.670196 0
M  V30 5069 H 476.4 3.32812 -2.17902 0
M  V30 5070 H 473.139 4.17303 -5.05508 0
M  V30 5071 H 472.659 4.87574 -3.49331 0
M  V30 5072 H 474.338 5.03215 -4.06674 0
M  V30 5073 N 474.47 1.03057 1.19235 0
M  V30 5074 C 475.881 0.757449 1.70645 0
M  V30 5075 C 476.232 -0.722735 1.82403 0
M  V30 5076 O 475.357 -1.56325 1.49638 0
M  V30 5077 C 475.952 1.36833 3.09939 0
M  V30 5078 C 474.511 1.14375 3.58602 0
M  V30 5079 C 473.658 1.46533 2.35422 0
M  V30 5080 H 476.609 1.19828 1.04052 0
M  V30 5081 H 476.63 0.766184 3.72706 0
M  V30 5082 H 476.142 2.44562 3.01349 0
M  V30 5083 H 474.243 0.0847542 3.72504 0
M  V30 5084 H 474.356 1.83366 4.42622 0
M  V30 5085 H 472.72 0.884712 2.38841 0
M  V30 5086 H 473.503 2.55349 2.2946 0
M  V30 5087 N 475.948 -1.35272 0.808662 0
M  V30 5088 C 477.173 -2.03477 0.401475 0
M  V30 5089 C 477.598 -1.60537 -0.980279 0
M  V30 5090 O 476.956 -0.78304 -1.63518 0
M  V30 5091 C 477.004 -3.57181 0.495354 0
M  V30 5092 O 476.108 -4.09474 -0.490397 0
M  V30 5093 H 475.449 -0.642561 0.167366 0
M  V30 5094 H 477.979 -1.72824 1.09512 0
M  V30 5095 H 477.989 -4.06356 0.365912 0
M  V30 5096 H 476.664 -3.87784 1.5032 0
M  V30 5097 H 475.241 -3.71516 -0.321023 0
M  V30 5098 N 477.426 -0.562348 -1.47226 0
M  V30 5099 C 478.837 -0.130325 -1.86245 0
M  V30 5100 C 479.188 1.30128 -1.46838 0
M  V30 5101 O 478.313 1.97974 -0.873805 0
M  V30 5102 C 478.908 -0.229738 -3.3802 0
M  V30 5103 C 477.467 0.14728 -3.76112 0
M  V30 5104 C 476.614 -0.574971 -2.71274 0
M  V30 5105 H 479.565 -0.771773 -1.3867 0
M  V30 5106 H 479.586 0.550316 -3.76499 0
M  V30 5107 H 479.098 -1.27178 -3.66671 0
M  V30 5108 H 477.199 1.19023 -3.53078 0
M  V30 5109 H 477.312 -0.214858 -4.78618 0
M  V30 5110 H 475.676 -0.0174756 -2.54694 0
M  V30 5111 H 476.459 -1.61827 -3.02766 0
M  V30 5112 N 478.904 1.54736 -0.299062 0
M  V30 5113 C 480.151 2.00101 0.310784 0
M  V30 5114 C 480.479 1.18746 1.54045 0
M  V30 5115 O 479.734 0.251198 1.94081 0
M  V30 5116 C 480.033 3.50199 0.713835 0
M  V30 5117 C 479.699 4.48997 -0.413873 0
M  V30 5118 C 478.361 4.7573 -0.723462 0
M  V30 5119 C 480.713 5.07839 -1.17257 0
M  V30 5120 C 478.041 5.5857 -1.79491 0
M  V30 5121 C 480.393 5.91844 -2.23392 0
M  V30 5122 C 479.057 6.16889 -2.54959 0
M  V30 5123 H 478.327 0.732221 0.113724 0
M  V30 5124 H 480.974 1.86888 -0.417756 0
M  V30 5125 H 479.279 3.61012 1.52243 0
M  V30 5126 H 480.976 3.82723 1.19684 0
M  V30 5127 H 477.566 4.28292 -0.162476 0
M  V30 5128 H 481.75 4.87188 -0.946651 0
M  V30 5129 H 477.006 5.76213 -2.04423 0
M  V30 5130 H 481.18 6.36465 -2.8264 0
M  V30 5131 H 478.807 6.80869 -3.38114 0
M  V30 5132 N 480.382 0.0267497 1.57577 0
M  V30 5133 C 481.793 -0.512413 1.79531 0
M  V30 5134 C 482.144 -1.72391 0.936791 0
M  V30 5135 O 481.269 -2.15903 0.146543 0
M  V30 5136 C 481.864 -0.936378 3.25603 0
M  V30 5137 C 480.423 -1.42067 3.4856 0
M  V30 5138 C 479.57 -0.384278 2.74624 0
M  V30 5139 H 482.521 0.252797 1.56674 0
M  V30 5140 H 482.542 -1.80088 3.35184 0
M  V30 5141 H 482.054 -0.0544332 3.88062 0
M  V30 5142 H 480.155 -2.32262 2.9135 0
M  V30 5143 H 480.268 -1.42968 4.57271 0
M  V30 5144 H 478.632 -0.851855 2.40032 0
M  V30 5145 H 479.415 0.489159 3.39797 0
M  V30 5146 N 481.861 -1.55662 -0.24637 0
M  V30 5147 C 482.771 -1.93495 -1.32653 0
M  V30 5148 C 483.787 -0.835462 -1.5263 0
M  V30 5149 O 484.963 -1.1369 -1.66242 0
M  V30 5150 C 482.028 -2.22242 -2.66101 0
M  V30 5151 C 481.089 -3.45625 -2.54641 0
M  V30 5152 C 480.322 -3.72991 -3.81724 0
M  V30 5153 O 480.545 -3.02421 -4.8363 0
M  V30 5154 O 479.479 -4.66515 -3.80325 0
M  V30 5155 H 483.305 -2.85498 -1.03559 0
M  V30 5156 H 480.89 -1.42551 -0.44717 0
M  V30 5157 H 482.772 -2.42037 -3.44958 0
M  V30 5158 H 481.447 -1.33417 -2.94926 0
M  V30 5159 H 480.354 -3.31136 -1.74067 0
M  V30 5160 H 481.687 -4.34754 -2.3076 0
M  V30 5161 N 483.339 0.512053 -1.4905 0
M  V30 5162 C 484.585 1.26874 -1.58212 0
M  V30 5163 C 484.918 1.9241 -0.263073 0
M  V30 5164 O 484.193 1.80181 0.732476 0
M  V30 5165 C 484.476 2.34428 -2.73341 0
M  V30 5166 C 484.329 1.73466 -4.15006 0
M  V30 5167 C 485.648 3.36073 -2.84154 0
M  V30 5168 H 482.767 0.459924 -0.575881 0
M  V30 5169 H 485.409 0.568587 -1.81293 0
M  V30 5170 H 483.559 2.94146 -2.53792 0
M  V30 5171 H 485.231 1.17661 -4.46042 0
M  V30 5172 H 483.474 1.03921 -4.21168 0
M  V30 5173 H 484.145 2.51426 -4.91415 0
M  V30 5174 H 486.621 2.86332 -3.01916 0
M  V30 5175 H 485.497 4.08703 -3.66406 0
M  V30 5176 H 485.758 3.97725 -1.93048 0
M  V30 5177 N 484.817 1.37938 0.762283 0
M  V30 5178 C 486.063 1.34873 1.52253 0
M  V30 5179 C 486.418 -0.0635972 1.92295 0
M  V30 5180 O 485.711 -1.02434 1.61919 0
M  V30 5181 C 485.905 2.23042 2.79261 0
M  V30 5182 C 485.734 3.72706 2.51635 0
M  V30 5183 C 484.504 4.41771 2.45289 0
M  V30 5184 C 486.702 4.65345 2.18994 0
M  V30 5185 N 484.684 5.76921 2.09846 0
M  V30 5186 C 486.055 5.88943 1.9377 0
M  V30 5187 C 488.11 4.53636 2.0523 0
M  V30 5188 C 486.813 7.02142 1.5617 0
M  V30 5189 C 488.839 5.6673 1.69031 0
M  V30 5190 C 488.201 6.89383 1.44673 0
M  V30 5191 H 484.3 0.548818 0.557067 0
M  V30 5192 H 486.884 1.73247 0.888458 0
M  V30 5193 H 485.055 1.8687 3.40491 0
M  V30 5194 H 486.787 2.11165 3.45241 0
M  V30 5195 H 483.542 3.94883 2.61465 0
M  V30 5196 H 483.966 6.4837 1.94794 0
M  V30 5197 H 488.608 3.5937 2.2274 0
M  V30 5198 H 486.326 7.96334 1.37399 0
M  V30 5199 H 489.912 5.59645 1.59026 0
M  V30 5200 H 488.792 7.75411 1.17079 0
M  V30 5201 N 486.295 -0.989507 1.22664 0
M  V30 5202 C 487.245 -2.06478 0.967005 0
M  V30 5203 C 488.229 -1.60682 -0.0836374 0
M  V30 5204 O 489.421 -1.76541 0.127322 0
M  V30 5205 C 486.55 -3.38861 0.550313 0
M  V30 5206 C 485.636 -3.9128 1.63587 0
M  V30 5207 N 486.027 -4.16884 2.86429 0
M  V30 5208 C 484.325 -4.1972 1.50834 0
M  V30 5209 C 485.026 -4.5954 3.56648 0
M  V30 5210 N 484.002 -4.63434 2.84131 0
M  V30 5211 H 487.804 -2.24219 1.90008 0
M  V30 5212 H 485.318 -1.17153 1.12467 0
M  V30 5213 H 487.315 -4.15465 0.345612 0
M  V30 5214 H 485.975 -3.22518 -0.375822 0
M  V30 5215 H 486.986 -4.04976 3.22823 0
M  V30 5216 H 483.663 -4.1243 0.648643 0
M  V30 5217 H 485.053 -4.87944 4.61909 0
M  V30 5218 N 487.773 -1.03688 -1.18687 0
M  V30 5219 C 489.001 -0.757918 -1.92518 0
M  V30 5220 C 489.416 0.684398 -1.75959 0
M  V30 5221 O 488.773 1.46617 -1.08673 0
M  V30 5222 C 488.824 -1.10985 -3.44042 0
M  V30 5223 O 488.545 -2.49554 -3.60076 0
M  V30 5224 C 490.046 -0.854844 -4.3498 0
M  V30 5225 H 487.266 -0.276699 -0.611293 0
M  V30 5226 H 489.81 -1.38352 -1.50595 0
M  V30 5227 H 487.965 -0.529279 -3.83767 0
M  V30 5228 H 488.379 -2.6291 -4.53849 0
M  V30 5229 H 489.853 -1.15098 -5.39867 0
M  V30 5230 H 490.33 0.210507 -4.38695 0
M  V30 5231 H 490.936 -1.41853 -4.00946 0
M  V30 5232 N 489.251 1.34841 -0.815825 0
M  V30 5233 C 490.184 2.27504 -0.178062 0
M  V30 5234 C 491.162 1.48542 0.661373 0
M  V30 5235 O 492.346 1.77779 0.626653 0
M  V30 5236 C 489.473 3.30246 0.752002 0
M  V30 5237 C 488.519 4.26499 -0.00899172 0
M  V30 5238 S 489.352 5.18169 -1.35134 0
M  V30 5239 C 490.508 6.24449 -0.42596 0
M  V30 5240 H 490.741 2.81248 -0.963684 0
M  V30 5241 H 488.274 1.41781 -0.611355 0
M  V30 5242 H 490.232 3.89933 1.28308 0
M  V30 5243 H 488.893 2.75363 1.51109 0
M  V30 5244 H 488.086 4.99146 0.697766 0
M  V30 5245 H 487.688 3.7103 -0.470396 0
M  V30 5246 H 489.98 6.76404 0.385234 0
M  V30 5247 H 490.923 6.99156 -1.1219 0
M  V30 5248 H 491.331 5.64497 -0.0175461 0
M  V30 5249 N 490.729 0.570148 1.46925 0
M  V30 5250 C 492.006 -0.0153259 1.95594 0
M  V30 5251 C 492.386 -1.47232 1.51281 0
M  V30 5252 O 491.734 -2.15574 0.757624 0
M  V30 5253 C 491.944 0.143624 3.48704 0
M  V30 5254 C 493.292 0.00494484 4.246 0
M  V30 5255 O 494.316 0.0718214 3.56128 0
M  V30 5256 O 493.175 -0.141175 5.46318 0
M  V30 5257 H 490.269 -0.0568819 0.825041 0
M  V30 5258 H 492.815 0.637583 1.57267 0
M  V30 5259 H 491.587 1.15699 3.73804 0
M  V30 5260 H 491.21 -0.5463 3.93829 0
M  V30 5261 N 492.207 -1.54576 0.307264 0
M  V30 5262 C 493.484 -1.92377 -0.353605 0
M  V30 5263 C 493.864 -1.23517 -1.71192 0
M  V30 5264 O 493.212 -0.373101 -2.25433 0
M  V30 5265 C 493.422 -3.45928 -0.462039 0
M  V30 5266 C 494.77 -4.18278 -0.729975 0
M  V30 5267 O 495.794 -3.51997 -0.545605 0
M  V30 5268 O 494.653 -5.3563 -1.08454 0
M  V30 5269 H 491.747 -0.802747 -0.198812 0
M  V30 5270 H 494.293 -1.65929 0.355783 0
M  V30 5271 H 493.065 -3.88187 0.492592 0
M  V30 5272 H 492.688 -3.78431 -1.21965 0
M  V30 5273 N 493.685 -0.035106 -1.57561 0
M  V30 5274 C 494.633 0.962707 -2.11742 0
M  V30 5275 C 495.627 1.33296 -1.0454 0
M  V30 5276 O 496.833 1.31449 -1.22968 0
M  V30 5277 H 493.208 0.32826 -0.676572 0
M  V30 5278 H 495.179 0.48048 -2.94506 0
M  V30 5279 C 493.928 2.23388 -2.66445 0
M  V30 5280 H 493.251 1.95774 -3.48587 0
M  V30 5281 H 494.691 2.91402 -3.07995 0
M  V30 5282 C 493.15 2.96769 -1.59467 0
M  V30 5283 O 493.68 3.89105 -0.998 0
M  V30 5284 N 491.886 2.59212 -1.31369 0
M  V30 5285 H 491.433 1.84202 -1.80076 0
M  V30 5286 H 491.391 3.08618 -0.600173 0
M  V30 5287 N 495.163 1.55791 0.238111 0
M  V30 5288 C 496.073 1.94196 1.31625 0
M  V30 5289 C 497.089 0.843545 1.52185 0
M  V30 5290 O 498.265 1.1457 1.65637 0
M  V30 5291 C 495.33 2.2365 2.64918 0
M  V30 5292 C 494.391 3.46971 2.52804 0
M  V30 5293 C 493.624 3.7501 3.79741 0
M  V30 5294 O 493.847 3.04982 4.82019 0
M  V30 5295 O 492.781 4.68525 3.77846 0
M  V30 5296 H 496.607 2.86044 1.02043 0
M  V30 5297 H 494.192 1.42786 0.439603 0
M  V30 5298 H 496.074 2.43863 3.4367 0
M  V30 5299 H 494.749 1.34979 2.94215 0
M  V30 5300 H 493.656 3.32055 1.72309 0
M  V30 5301 H 494.989 4.35971 2.28451 0
M  V30 5302 N 496.642 -0.504142 1.49319 0
M  V30 5303 C 497.552 -1.63248 1.68486 0
M  V30 5304 C 498.568 -1.64488 0.567432 0
M  V30 5305 O 499.744 -1.82966 0.841749 0
M  V30 5306 C 496.809 -2.99627 1.74426 0
M  V30 5307 C 495.87 -3.09039 2.97982 0
M  V30 5308 C 495.103 -4.38913 3.0363 0
M  V30 5309 O 495.326 -5.27528 2.16958 0
M  V30 5310 O 494.26 -4.53231 3.96062 0
M  V30 5311 H 498.086 -1.50008 2.64067 0
M  V30 5312 H 495.671 -0.680086 1.33023 0
M  V30 5313 H 497.553 -3.80689 1.80705 0
M  V30 5314 H 496.228 -3.13136 0.820233 0
M  V30 5315 H 495.135 -2.27177 2.97223 0
M  V30 5316 H 496.468 -3.00456 3.89855 0
M  V30 5317 N 498.12 -1.38341 -0.754957 0
M  V30 5318 C 499.068 -1.35573 -1.89005 0
M  V30 5319 C 500.062 -0.241824 -1.67665 0
M  V30 5320 O 501.268 -0.410785 -1.7525 0
M  V30 5321 H 497.643 -0.422898 -0.621821 0
M  V30 5322 H 499.614 -2.31359 -1.88455 0
M  V30 5323 C 498.363 -1.19631 -3.26471 0
M  V30 5324 H 497.686 -2.04605 -3.43477 0
M  V30 5325 H 499.126 -1.21748 -4.06144 0
M  V30 5326 C 497.585 0.0968705 -3.36761 0
M  V30 5327 O 498.115 1.07439 -3.87066 0
M  V30 5328 N 496.321 0.153242 -2.90196 0
M  V30 5329 H 495.868 -0.642908 -2.49448 0
M  V30 5330 H 495.826 1.01807 -2.9746 0
M  V30 5331 N 499.598 0.982988 -1.23187 0
M  V30 5332 C 500.528 2.09301 -1.03515 0
M  V30 5333 C 501.509 1.70035 0.0471136 0
M  V30 5334 O 502.694 1.93847 -0.117029 0
M  V30 5335 C 499.824 3.4167 -0.622791 0
M  V30 5336 C 498.778 3.94828 -1.65211 0
M  V30 5337 C 498.104 5.23362 -1.09527 0
M  V30 5338 C 499.404 4.2439 -3.04451 0
M  V30 5339 H 501.098 2.26016 -1.96359 0
M  V30 5340 H 498.644 1.08611 -0.945501 0
M  V30 5341 H 500.597 4.18746 -0.472233 0
M  V30 5342 H 499.321 3.24811 0.341329 0
M  V30 5343 H 497.98 3.19895 -1.79061 0
M  V30 5344 H 497.628 5.02852 -0.122211 0
M  V30 5345 H 497.328 5.59895 -1.783 0
M  V30 5346 H 498.852 6.03062 -0.956511 0
M  V30 5347 H 500.266 4.92225 -2.93917 0
M  V30 5348 H 498.663 4.72118 -3.70438 0
M  V30 5349 H 499.733 3.31765 -3.53638 0
M  V30 5350 N 501.076 1.04316 1.18135 0
M  V30 5351 C 502.353 0.662166 1.84051 0
M  V30 5352 C 502.733 -0.858169 1.9287 0
M  V30 5353 O 502.081 -1.76062 1.45652 0
M  V30 5354 C 502.291 1.3409 3.22212 0
M  V30 5355 C 503.639 1.4733 3.9822 0
M  V30 5356 O 504.663 1.29921 3.31661 0
M  V30 5357 O 503.522 1.75722 5.17479 0
M  V30 5358 H 500.616 0.232005 0.79379 0
M  V30 5359 H 503.162 1.1422 1.25506 0
M  V30 5360 H 501.934 2.37853 3.10711 0
M  V30 5361 H 501.557 0.849649 3.88416 0
M  V30 5362 N 502.554 -1.34406 0.822964 0
M  V30 5363 C 503.464 -2.33298 0.246838 0
M  V30 5364 C 504.48 -1.62625 -0.618797 0
M  V30 5365 O 505.656 -1.94391 -0.526685 0
M  V30 5366 C 502.721 -3.41785 -0.581731 0
M  V30 5367 C 501.782 -4.28206 0.306309 0
M  V30 5368 C 501.015 -5.31512 -0.48281 0
M  V30 5369 O 501.238 -5.43973 -1.71607 0
M  V30 5370 O 500.172 -6.01749 0.134884 0
M  V30 5371 H 503.998 -2.84401 1.06534 0
M  V30 5372 H 501.583 -1.37466 0.585108 0
M  V30 5373 H 503.465 -4.08028 -1.05313 0
M  V30 5374 H 502.14 -2.92925 -1.37756 0
M  V30 5375 H 501.047 -3.64885 0.825199 0
M  V30 5376 H 502.38 -4.80507 1.06649 0
M  V30 5377 N 504.032 -0.577932 -1.46621 0
M  V30 5378 C 505.257 -0.0652536 -2.07297 0
M  V30 5379 C 505.682 1.22828 -1.4246 0
M  V30 5380 O 505.04 1.74075 -0.506718 0
M  V30 5381 C 505.088 0.0920589 -3.60482 0
M  V30 5382 O 504.192 1.14972 -3.96049 0
M  V30 5383 H 503.533 -0.06065 -0.661224 0
M  V30 5384 H 506.063 -0.799515 -1.88332 0
M  V30 5385 H 506.073 0.299741 -4.06897 0
M  V30 5386 H 504.748 -0.852612 -4.07067 0
M  V30 5387 H 503.325 0.920879 -3.61351 0
M  V30 5388 N 505.51 1.54411 -0.315457 0
M  V30 5389 C 506.738 2.04833 0.291738 0
M  V30 5390 C 507.153 1.19203 1.46411 0
M  V30 5391 O 506.51 0.220867 1.81159 0
M  V30 5392 C 506.561 3.53969 0.73404 0
M  V30 5393 O 506.282 4.36346 -0.391682 0
M  V30 5394 C 507.783 4.2045 1.40489 0
M  V30 5395 H 505.003 0.668195 0.0612947 0
M  V30 5396 H 507.547 1.99276 -0.45929 0
M  V30 5397 H 505.702 3.5984 1.43506 0
M  V30 5398 H 506.116 5.24481 -0.0447088 0
M  V30 5399 H 507.59 5.26278 1.66539 0
M  V30 5400 H 508.067 3.71067 2.3496 0
M  V30 5401 H 508.673 4.18694 0.746662 0
M  V30 5402 N 506.988 0.0434614 1.5754 0
M  V30 5403 C 508.237 -0.631454 1.91561 0
M  V30 5404 C 508.55 -1.72457 0.92292 0
M  V30 5405 O 509.756 -2.45712 1.15489 0
M  V30 5406 C 508.212 -1.17447 3.40197 0
M  V30 5407 C 507.82 -0.113867 4.47855 0
M  V30 5408 C 509.564 -1.82507 3.83264 0
M  V30 5409 C 507.471 -0.669326 5.876 0
M  V30 5410 H 506.401 -0.239629 0.714908 0
M  V30 5411 H 509.052 0.111097 1.83163 0
M  V30 5412 H 507.434 -1.96909 3.43574 0
M  V30 5413 H 508.608 0.659348 4.56058 0
M  V30 5414 H 506.923 0.438821 4.14081 0
M  V30 5415 H 509.52 -2.25047 4.85034 0
M  V30 5416 H 509.863 -2.67365 3.19095 0
M  V30 5417 H 510.396 -1.09712 3.82372 0
M  V30 5418 H 507.135 0.141449 6.55347 0
M  V30 5419 H 506.655 -1.4107 5.82974 0
M  V30 5420 H 508.334 -1.15463 6.36614 0
M  V30 5421 N 508.466 -1.55915 -0.229846 0
M  V30 5422 C 509.743 -1.6932 -0.979295 0
M  V30 5423 C 510.123 -0.588321 -2.02736 0
M  V30 5424 O 509.471 0.40586 -2.24867 0
M  V30 5425 C 509.681 -3.10305 -1.59724 0
M  V30 5426 C 511.029 -3.6945 -2.09264 0
M  V30 5427 O 512.053 -3.13214 -1.69633 0
M  V30 5428 O 510.912 -4.68072 -2.82082 0
M  V30 5429 H 508.006 -0.689314 -0.456919 0
M  V30 5430 H 510.552 -1.68238 -0.222283 0
M  V30 5431 H 509.324 -3.82177 -0.840039 0
M  V30 5432 H 508.947 -3.1547 -2.42001 0
M  V30 5433 N 509.944 0.496216 -1.49584 0
M  V30 5434 C 510.892 1.61805 -1.67098 0
M  V30 5435 C 511.886 1.60667 -0.536877 0
M  V30 5436 O 513.092 1.65118 -0.716654 0
M  V30 5437 H 509.467 0.53646 -0.526986 0
M  V30 5438 H 511.438 1.44187 -2.61252 0
M  V30 5439 C 510.187 2.99912 -1.75921 0
M  V30 5440 H 509.51 3.01496 -2.62565 0
M  V30 5441 H 510.95 3.77931 -1.92209 0
M  V30 5442 C 509.409 3.33092 -0.505088 0
M  V30 5443 O 509.939 4.00019 0.367085 0
M  V30 5444 N 508.145 2.88278 -0.366599 0
M  V30 5445 H 507.692 2.33989 -1.07735 0
M  V30 5446 H 507.65 3.10846 0.47142 0
M  V30 5447 N 511.423 1.38739 0.74761 0
M  V30 5448 C 512.353 1.39173 1.87492 0
M  V30 5449 C 513.334 0.256794 1.6815 0
M  V30 5450 O 514.519 0.460762 1.88655 0
M  V30 5451 C 511.649 1.22197 3.25093 0
M  V30 5452 C 510.603 2.32957 3.59047 0
M  V30 5453 C 509.929 2.01082 4.95449 0
M  V30 5454 C 511.229 3.75237 3.6331 0
M  V30 5455 H 512.923 2.3351 1.87386 0
M  V30 5456 H 510.469 1.12399 0.900134 0
M  V30 5457 H 512.422 1.21124 4.03617 0
M  V30 5458 H 511.146 0.243241 3.25693 0
M  V30 5459 H 509.805 2.33226 2.82845 0
M  V30 5460 H 509.453 1.01678 4.92616 0
M  V30 5461 H 509.153 2.75267 5.19136 0
M  V30 5462 H 510.677 2.01638 5.76346 0
M  V30 5463 H 512.091 3.76966 4.31937 0
M  V30 5464 H 510.488 4.48677 3.98509 0
M  V30 5465 H 511.558 4.07122 2.634 0
M  V30 5466 N 512.901 -0.976442 1.23707 0
M  V30 5467 C 513.849 -2.09078 1.01927 0
M  V30 5468 C 514.843 -1.69345 -0.0430193 0
M  V30 5469 O 516.049 -1.79659 0.110814 0
M  V30 5470 H 512.424 -0.68398 0.312531 0
M  V30 5471 H 514.395 -2.24614 1.96447 0
M  V30 5472 C 513.144 -3.41919 0.631385 0
M  V30 5473 H 512.467 -3.72946 1.44053 0
M  V30 5474 H 513.907 -4.20817 0.518532 0
M  V30 5475 C 512.366 -3.30357 -0.660723 0
M  V30 5476 O 512.896 -3.63542 -1.70881 0
M  V30 5477 N 511.102 -2.83507 -0.638139 0
M  V30 5478 H 510.649 -2.567 0.215108 0
M  V30 5479 H 510.607 -2.76153 -1.50289 0
M  V30 5480 N 514.379 -1.04941 -1.1758 0
M  V30 5481 C 515.326 -0.648155 -2.21512 0
M  V30 5482 C 516.296 0.348431 -1.62404 0
M  V30 5483 O 517.481 0.240419 -1.89279 0
M  V30 5484 C 514.621 -0.0264291 -3.4509 0
M  V30 5485 C 513.734 -1.07154 -4.185 0
M  V30 5486 C 512.869 -0.417403 -5.29558 0
M  V30 5487 C 511.908 -1.447 -5.94751 0
M  V30 5488 N 511.045 -0.817203 -6.97328 0
M  V30 5489 H 515.885 -1.53891 -2.55189 0
M  V30 5490 H 513.422 -0.769699 -1.25356 0
M  V30 5491 H 515.38 0.351456 -4.15717 0
M  V30 5492 H 514.01 0.827802 -3.12005 0
M  V30 5493 H 513.062 -1.56728 -3.46613 0
M  V30 5494 H 514.374 -1.8532 -4.63096 0
M  V30 5495 H 513.528 0.0142061 -6.06698 0
M  V30 5496 H 512.267 0.396265 -4.86087 0
M  V30 5497 H 511.272 -1.88865 -5.16343 0
M  V30 5498 H 512.497 -2.26252 -6.40302 0
M  V30 5499 H 510.443 -0.0239995 -6.55996 0
M  V30 5500 H 510.36 -1.53644 -7.40223 0
M  V30 5501 H 511.628 -0.410283 -7.7842 0
M  V30 5502 N 515.857 1.33968 -0.830081 0
M  V30 5503 C 517.106 1.97323 -0.417928 0
M  V30 5504 C 517.419 1.6652 1.02618 0
M  V30 5505 O 518.625 2.2342 1.54259 0
M  V30 5506 C 517.081 3.53099 -0.696359 0
M  V30 5507 C 516.689 3.92788 -2.15457 0
M  V30 5508 C 518.433 4.23049 -0.350724 0
M  V30 5509 C 516.34 5.41506 -2.37751 0
M  V30 5510 H 515.27 0.738409 -0.152541 0
M  V30 5511 H 517.921 1.52711 -1.01744 0
M  V30 5512 H 516.303 3.95991 -0.0265904 0
M  V30 5513 H 517.477 3.6098 -2.86408 0
M  V30 5514 H 515.792 3.35795 -2.46232 0
M  V30 5515 H 518.389 5.32403 -0.495036 0
M  V30 5516 H 518.732 4.10279 0.705476 0
M  V30 5517 H 519.265 3.85657 -0.975362 0
M  V30 5518 H 516.004 5.5927 -3.41903 0
M  V30 5519 H 515.524 5.74804 -1.7135 0
M  V30 5520 H 517.203 6.0828 -2.20465 0
M  V30 5521 N 517.335 0.585699 1.46312 0
M  V30 5522 C 518.265 -0.133556 2.33118 0
M  V30 5523 C 519.246 -0.880707 1.45525 0
M  V30 5524 O 520.431 -0.855579 1.74337 0
M  V30 5525 C 517.561 -1.14585 3.27853 0
M  V30 5526 C 516.515 -0.513341 4.2491 0
M  V30 5527 C 515.841 -1.63231 5.09175 0
M  V30 5528 C 517.141 0.551413 5.19381 0
M  V30 5529 H 518.835 0.59121 2.93505 0
M  V30 5530 H 516.381 0.285761 1.41136 0
M  V30 5531 H 518.334 -1.65741 3.87438 0
M  V30 5532 H 517.058 -1.90093 2.65579 0
M  V30 5533 H 515.717 -0.0228349 3.66593 0
M  V30 5534 H 515.365 -2.37713 4.43285 0
M  V30 5535 H 515.065 -1.21473 5.74907 0
M  V30 5536 H 516.589 -2.14658 5.71624 0
M  V30 5537 H 518.003 0.124804 5.73164 0
M  V30 5538 H 516.4 0.889486 5.93471 0
M  V30 5539 H 517.47 1.43655 4.63132 0
M  V30 5540 N 518.813 -1.54241 0.323641 0
M  V30 5541 C 519.745 -2.21836 -0.576311 0
M  V30 5542 C 520.758 -1.21837 -1.07979 0
M  V30 5543 O 521.947 -1.48306 -0.99336 0
M  V30 5544 C 519.047 -2.86923 -1.80356 0
M  V30 5545 C 518.22 -4.1306 -1.43875 0
M  V30 5546 C 517.279 -4.6174 -2.52353 0
M  V30 5547 O 516.305 -5.26421 -2.16494 0
M  V30 5548 N 517.507 -4.35974 -3.83284 0
M  V30 5549 H 520.272 -2.997 0.00247987 0
M  V30 5550 H 517.833 -1.61233 0.146848 0
M  V30 5551 H 519.825 -3.16414 -2.52318 0
M  V30 5552 H 518.395 -2.12765 -2.29019 0
M  V30 5553 H 517.615 -3.90334 -0.550752 0
M  V30 5554 H 518.903 -4.95148 -1.17071 0
M  V30 5555 H 518.301 -3.84203 -4.15216 0
M  V30 5556 H 516.858 -4.70119 -4.51477 0
M  V30 5557 N 520.291 -0.0518155 -1.57515 0
M  V30 5558 C 521.537 0.622745 -1.93002 0
M  V30 5559 C 521.87 1.70456 -0.930499 0
M  V30 5560 O 521.145 1.94452 0.0434086 0
M  V30 5561 C 521.428 1.21824 -3.38867 0
M  V30 5562 C 521.281 0.144434 -4.49568 0
M  V30 5563 C 522.6 2.12968 -3.8514 0
M  V30 5564 H 519.719 0.22491 -0.701844 0
M  V30 5565 H 522.361 -0.113711 -1.89659 0
M  V30 5566 H 520.511 1.8459 -3.41846 0
M  V30 5567 H 522.183 -0.48753 -4.58717 0
M  V30 5568 H 520.426 -0.527424 -4.30582 0
M  V30 5569 H 521.097 0.601127 -5.48717 0
M  V30 5570 H 523.573 1.60163 -3.8404 0
M  V30 5571 H 522.449 2.51578 -4.87852 0
M  V30 5572 H 522.71 3.03004 -3.21934 0
M  V30 5573 N 521.769 1.56035 0.221574 0
M  V30 5574 C 523.016 1.79047 0.94597 0
M  V30 5575 C 523.344 0.62057 1.84334 0
M  V30 5576 O 522.599 -0.395053 1.91671 0
M  V30 5577 C 522.898 3.07813 1.8162 0
M  V30 5578 C 522.564 4.3797 1.07206 0
M  V30 5579 C 521.226 4.73334 0.866508 0
M  V30 5580 C 523.578 5.18326 0.546565 0
M  V30 5581 C 520.906 5.8657 0.123549 0
M  V30 5582 C 523.258 6.32335 -0.18305 0
M  V30 5583 C 521.922 6.66301 -0.399861 0
M  V30 5584 H 521.192 0.655178 0.346155 0
M  V30 5585 H 523.839 1.90299 0.214146 0
M  V30 5586 H 522.144 2.91682 2.61589 0
M  V30 5587 H 523.841 3.2282 2.37884 0
M  V30 5588 H 520.431 4.10202 1.24226 0
M  V30 5589 H 524.615 4.9144 0.692847 0
M  V30 5590 H 519.871 6.11376 -0.0546591 0
M  V30 5591 H 524.045 6.9383 -0.59775 0
M  V30 5592 H 521.672 7.53889 -0.977489 0
M  V30 5593 N 523.247 -0.488276 1.49845 0
M  V30 5594 C 524.493 -1.24341 1.6021 0
M  V30 5595 C 524.826 -1.91967 0.293651 0
M  V30 5596 O 524.101 -1.81323 -0.703718 0
M  V30 5597 C 524.384 -2.3005 2.77036 0
M  V30 5598 C 524.237 -1.66842 4.17713 0
M  V30 5599 C 525.556 -3.31509 2.89464 0
M  V30 5600 H 522.675 -0.450704 0.583125 0
M  V30 5601 H 525.317 -0.539673 1.82174 0
M  V30 5602 H 523.467 -2.90071 2.58439 0
M  V30 5603 H 525.139 -1.1055 4.47858 0
M  V30 5604 H 523.382 -0.972079 4.22768 0
M  V30 5605 H 524.053 -2.43576 4.95353 0
M  V30 5606 H 526.529 -2.81493 3.06433 0
M  V30 5607 H 525.405 -4.02822 3.72861 0
M  V30 5608 H 525.666 -3.94603 1.99351 0
M  V30 5609 N 524.725 -1.39134 -0.740242 0
M  V30 5610 C 525.655 -1.40165 -1.86751 0
M  V30 5611 C 526.636 -0.265708 -1.68012 0
M  V30 5612 O 527.821 -0.47076 -1.88408 0
M  V30 5613 C 524.951 -1.2392 -3.2444 0
M  V30 5614 C 523.905 -2.34858 -3.57807 0
M  V30 5615 C 523.231 -2.03707 -4.94376 0
M  V30 5616 C 524.531 -3.77159 -3.61315 0
M  V30 5617 H 526.225 -2.345 -1.86145 0
M  V30 5618 H 523.771 -1.12875 -0.89416 0
M  V30 5619 H 525.724 -1.23263 -4.02969 0
M  V30 5620 H 524.448 -0.26051 -3.25559 0
M  V30 5621 H 523.107 -2.34723 -2.81604 0
M  V30 5622 H 522.755 -1.04289 -4.9207 0
M  V30 5623 H 522.455 -2.78016 -5.17669 0
M  V30 5624 H 523.979 -2.04691 -5.75268 0
M  V30 5625 H 525.393 -3.79252 -4.29931 0
M  V30 5626 H 523.79 -4.50784 -3.96124 0
M  V30 5627 H 524.86 -4.08513 -2.61238 0
M  V30 5628 N 526.204 0.969867 -1.24223 0
M  V30 5629 C 527.114 2.09806 -1.0497 0
M  V30 5630 C 528.13 1.73998 0.00886455 0
M  V30 5631 O 529.306 2.00513 -0.188848 0
M  V30 5632 C 526.371 3.40467 -0.654452 0
M  V30 5633 C 525.432 3.90236 -1.78926 0
M  V30 5634 C 524.665 5.14662 -1.41277 0
M  V30 5635 O 524.888 5.69602 -0.301632 0
M  V30 5636 O 523.822 5.58761 -2.23763 0
M  V30 5637 H 527.648 2.28942 -1.99548 0
M  V30 5638 H 525.233 1.08197 -1.03023 0
M  V30 5639 H 527.115 4.19039 -0.445452 0
M  V30 5640 H 525.79 3.22636 0.262216 0
M  V30 5641 H 524.697 3.12735 -2.05299 0
M  V30 5642 H 526.03 4.1254 -2.68462 0
M  V30 5643 N 527.682 1.05563 1.17022 0
M  V30 5644 C 528.912 0.787307 1.91011 0
M  V30 5645 C 529.32 -0.661256 1.77268 0
M  V30 5646 O 528.663 -1.46379 1.10991 0
M  V30 5647 C 528.725 1.09313 3.42478 0
M  V30 5648 C 528.389 2.53863 3.80004 0
M  V30 5649 C 529.386 3.52081 3.82538 0
M  V30 5650 C 527.071 2.88969 4.10855 0
M  V30 5651 C 529.065 4.83449 4.15399 0
M  V30 5652 C 526.752 4.2054 4.43384 0
M  V30 5653 C 527.75 5.17589 4.45635 0
M  V30 5654 O 527.438 6.46799 4.77395 0
M  V30 5655 H 527.17 0.285463 0.61277 0
M  V30 5656 H 529.724 1.41051 1.49311 0
M  V30 5657 H 527.954 0.412833 3.8449 0
M  V30 5658 H 529.643 0.810224 3.97731 0
M  V30 5659 H 530.409 3.26299 3.58823 0
M  V30 5660 H 526.288 2.1409 4.08272 0
M  V30 5661 H 529.832 5.59194 4.1707 0
M  V30 5662 H 525.729 4.46083 4.66563 0
M  V30 5663 H 526.497 6.51677 4.95237 0
M  V30 5664 N 529.16 -1.33526 0.837174 0
M  V30 5665 C 530.09 -2.31764 0.284206 0
M  V30 5666 C 531.071 -1.58896 -0.607142 0
M  V30 5667 O 532.256 -1.86798 -0.531047 0
M  V30 5668 C 529.386 -3.43029 -0.542962 0
M  V30 5669 C 528.34 -4.27255 0.252451 0
M  V30 5670 C 527.666 -5.3012 -0.69836 0
M  V30 5671 C 528.966 -5.01229 1.46858 0
M  V30 5672 H 530.66 -2.78262 1.10502 0
M  V30 5673 H 528.206 -1.3378 0.532812 0
M  V30 5674 H 530.159 -4.1078 -0.940096 0
M  V30 5675 H 528.883 -2.95216 -1.39697 0
M  V30 5676 H 527.542 -3.61127 0.631124 0
M  V30 5677 H 527.19 -4.78564 -1.54872 0
M  V30 5678 H 526.89 -5.87353 -0.170274 0
M  V30 5679 H 528.414 -6.00737 -1.09305 0
M  V30 5680 H 529.828 -5.61756 1.14469 0
M  V30 5681 H 528.225 -5.68104 1.93333 0
M  V30 5682 H 529.295 -4.301 2.23924 0
M  V30 5683 N 530.638 -0.59345 -1.46 0
M  V30 5684 C 531.588 0.154751 -2.27474 0
M  V30 5685 C 532.572 0.851849 -1.365 0
M  V30 5686 O 533.764 0.744171 -1.60596 0
M  V30 5687 C 530.893 1.16079 -3.2308 0
M  V30 5688 C 529.979 0.465256 -4.2154 0
M  V30 5689 N 530.37 -0.485197 -5.03467 0
M  V30 5690 C 528.668 0.714634 -4.40237 0
M  V30 5691 C 529.369 -0.892709 -5.74809 0
M  V30 5692 N 528.345 -0.239511 -5.43072 0
M  V30 5693 H 532.147 -0.57546 -2.88211 0
M  V30 5694 H 529.661 -0.416046 -1.5698 0
M  V30 5695 H 531.658 1.71108 -3.80168 0
M  V30 5696 H 530.318 1.89171 -2.63903 0
M  V30 5697 H 531.329 -0.861258 -5.10689 0
M  V30 5698 H 528.006 1.43131 -3.92199 0
M  V30 5699 H 529.396 -1.67581 -6.50666 0
M  V30 5700 N 532.116 1.54067 -0.331816 0
M  V30 5701 C 533.046 2.27569 0.522932 0
M  V30 5702 C 534.027 1.28679 1.11247 0
M  V30 5703 O 535.212 1.57504 1.13605 0
M  V30 5704 C 532.342 3.0397 1.67987 0
M  V30 5705 C 531.296 4.10267 1.21924 0
M  V30 5706 C 530.622 4.74555 2.46377 0
M  V30 5707 C 531.922 5.21268 0.32815 0
M  V30 5708 H 533.616 2.99264 -0.0901977 0
M  V30 5709 H 531.162 1.4393 -0.044821 0
M  V30 5710 H 533.115 3.54123 2.28418 0
M  V30 5711 H 531.839 2.29906 2.31971 0
M  V30 5712 H 530.498 3.61009 0.637809 0
M  V30 5713 H 530.146 3.97098 3.08743 0
M  V30 5714 H 529.846 5.46363 2.16243 0
M  V30 5715 H 531.37 5.27487 3.07555 0
M  V30 5716 H 532.784 5.67128 0.838978 0
M  V30 5717 H 531.181 5.99982 0.119228 0
M  V30 5718 H 532.251 4.80673 -0.638839 0
M  V30 5719 O 533.633 0.19963 1.60261 0
M  V30 5720 H 534.324 -0.384961 1.89836 0
M  V30 END ATOM
M  V30 BEGIN BOND
M  V30 END BOND
M  V30 END CTAB
M  END
$$$$
