drugbank_target|Q16774 Guanylate kinase (DB01972)
 OpenBabel12092120093D

  0  0  0     0  0            999 V3000
M  V30 BEGIN CTAB
M  V30 COUNTS 3060 3083 0 0 0
M  V30 BEGIN ATOM
M  V30 1 H -0.908 1.98254 -0.117106 0
M  V30 2 N 0 1.576 0 0
M  V30 3 C 0.933 2.03868 1.02534 0
M  V30 4 C 1.911 0.928543 1.3348 0
M  V30 5 O 3.095 1.19667 1.45644 0
M  V30 6 C 0.222 2.43627 2.35294 0
M  V30 7 C -0.732 3.65373 2.2001 0
M  V30 8 S 0.101 5.13292 1.52614 0
M  V30 9 C 1.257 5.56322 2.86805 0
M  V30 10 H 1.49 2.90518 0.631377 0
M  V30 11 H -0.977 1.52953 0.210867 0
M  V30 12 H 0.981 2.67203 3.11629 0
M  V30 13 H -0.358 1.57376 2.7183 0
M  V30 14 H -1.165 3.90944 3.18086 0
M  V30 15 H -1.563 3.418 1.51819 0
M  V30 16 H 0.729 5.58782 3.83104 0
M  V30 17 H 1.672 6.56266 2.65933 0
M  V30 18 H 2.08 4.83886 2.90714 0
M  V30 19 N 1.4781 -0.272755 1.55222 0
M  V30 20 C 2.7031 -1.02683 1.80197 0
M  V30 21 C 3.1281 -1.79142 0.573551 0
M  V30 22 O 2.4861 -1.74917 -0.476849 0
M  V30 23 C 2.5341 -1.9609 3.02624 0
M  V30 24 O 1.6381 -3.04863 2.77727 0
M  V30 25 H 0.9791 -0.293557 0.595584 0
M  V30 26 H 3.5091 -0.30159 2.02365 0
M  V30 27 H 3.5191 -2.38039 3.31363 0
M  V30 28 H 2.1941 -1.39851 3.91682 0
M  V30 29 H 0.7711 -2.67228 2.60084 0
M  V30 30 N 2.9562 -1.48159 -0.537278 0
M  V30 31 C 4.2042 -1.55497 -1.29094 0
M  V30 32 C 4.5252 -0.227454 -1.93669 0
M  V30 33 O 3.7952 0.750386 -1.80959 0
M  V30 34 H 2.3752 -0.572832 -0.47945 0
M  V30 35 H 5.0372 -1.84579 -0.625818 0
M  V30 36 H 4.1332 -2.33216 -2.07405 0
M  V30 37 N 4.4343 0.785586 -1.36625 0
M  V30 38 C 5.8453 1.36101 -1.27803 0
M  V30 39 C 6.1963 1.96035 0.0804875 0
M  V30 40 O 5.3213 1.92834 0.982042 0
M  V30 41 C 5.9163 2.47442 -2.31426 0
M  V30 42 C 4.4753 3.00789 -2.26281 0
M  V30 43 C 3.6223 1.73896 -2.15999 0
M  V30 44 H 6.5733 0.586928 -1.47448 0
M  V30 45 H 6.5943 3.2656 -1.95291 0
M  V30 46 H 6.1063 2.03791 -3.30289 0
M  V30 47 H 4.2073 3.48851 -1.30896 0
M  V30 48 H 4.3203 3.57343 -3.19128 0
M  V30 49 H 2.6843 1.9628 -1.62316 0
M  V30 50 H 3.4673 1.32368 -3.16755 0
M  V30 51 N 5.9124 1.20967 1.01018 0
M  V30 52 C 7.3284 0.965905 1.27053 0
M  V30 53 C 7.5284 -0.350785 1.98423 0
M  V30 54 O 6.5844 -1.07773 2.28344 0
M  V30 55 C 7.8974 2.15294 2.09926 0
M  V30 56 C 9.4454 2.19463 2.23171 0
M  V30 57 C 9.9204 3.3767 3.09424 0
M  V30 58 N 11.4114 3.37724 3.17012 0
M  V30 59 C 12.1464 4.25837 3.83993 0
M  V30 60 N 11.6424 5.24138 4.53047 0
M  V30 61 N 13.4354 4.1366 3.80581 0
M  V30 62 H 5.5864 2.0565 0.531194 0
M  V30 63 H 7.8494 0.90024 0.297106 0
M  V30 64 H 7.5554 3.10684 1.64828 0
M  V30 65 H 7.4294 2.13923 3.10672 0
M  V30 66 H 9.8164 1.24632 2.6749 0
M  V30 67 H 9.8974 2.2488 1.21912 0
M  V30 68 H 9.5414 4.32791 2.65808 0
M  V30 69 H 9.4714 3.29491 4.10784 0
M  V30 70 H 11.9624 2.6658 2.6785 0
M  V30 71 H 12.2754 5.87684 5.01844 0
M  V30 72 H 10.6204 5.28068 4.5185 0
M  V30 73 H 13.8114 3.36127 3.25785 0
M  V30 74 H 13.9844 4.82538 4.32505 0
M  V30 75 N 7.3905 -1.2043 1.01659 0
M  V30 76 C 8.8015 -1.71517 0.737482 0
M  V30 77 C 9.1525 -1.81547 -0.743973 0
M  V30 78 O 8.2775 -1.47803 -1.58061 0
M  V30 79 C 8.8725 -3.11515 1.33206 0
M  V30 80 C 7.4315 -3.59912 1.10183 0
M  V30 81 C 6.5785 -2.37116 1.43776 0
M  V30 82 H 9.5295 -1.05444 1.18606 0
M  V30 83 H 9.5505 -3.73575 0.722636 0
M  V30 84 H 9.0625 -3.04182 2.41028 0
M  V30 85 H 7.1635 -3.72577 0.0412756 0
M  V30 86 H 7.2765 -4.44731 1.78188 0
M  V30 87 H 5.6405 -2.39857 0.856778 0
M  V30 88 H 6.4235 -2.32424 2.52654 0
M  V30 89 N 8.8686 -0.792821 -1.36206 0
M  V30 90 C 10.1146 -0.36733 -1.99446 0
M  V30 91 C 10.4476 1.05917 -1.62774 0
M  V30 92 O 9.7226 1.7324 -0.88421 0
M  V30 93 C 10.0056 -0.535044 -3.56103 0
M  V30 94 C 9.8586 -2.00548 -4.02617 0
M  V30 95 C 11.1776 0.0478191 -4.40074 0
M  V30 96 H 8.2966 -0.134941 -0.724541 0
M  V30 97 H 10.9386 -0.999794 -1.61568 0
M  V30 98 H 9.0886 0.00336329 -3.885 0
M  V30 99 H 10.7606 -2.60521 -3.80692 0
M  V30 100 H 9.0036 -2.50686 -3.54032 0
M  V30 101 H 9.6746 -2.07377 -5.11565 0
M  V30 102 H 12.1506 -0.411822 -4.14057 0
M  V30 103 H 11.0266 -0.0995336 -5.4881 0
M  V30 104 H 11.2876 1.14025 -4.27142 0
M  V30 105 N 10.3467 1.47872 -0.545128 0
M  V30 106 C 11.5927 2.02793 -0.0166104 0
M  V30 107 C 11.9257 1.41987 1.32489 0
M  V30 108 O 11.2007 0.571045 1.85928 0
M  V30 109 C 11.4837 3.59989 0.0893294 0
M  V30 110 C 11.3367 4.3125 -1.27841 0
M  V30 111 C 12.6557 4.32606 0.808724 0
M  V30 112 H 9.7747 0.736962 -0.00751035 0
M  V30 113 H 12.4167 1.76433 -0.705085 0
M  V30 114 H 10.5667 3.82579 0.675681 0
M  V30 115 H 12.2387 4.20035 -1.90704 0
M  V30 116 H 10.4817 3.92076 -1.85632 0
M  V30 117 H 11.1527 5.39736 -1.15713 0
M  V30 118 H 13.6287 4.14936 0.310992 0
M  V30 119 H 12.5047 5.42251 0.851782 0
M  V30 120 H 12.7657 4.00963 1.86229 0
M  V30 121 N 11.8248 0.280983 1.55075 0
M  V30 122 C 12.7548 -0.597469 2.25727 0
M  V30 123 C 13.7358 -1.15417 1.24952 0
M  V30 124 O 14.9208 -1.18722 1.53684 0
M  V30 125 C 12.0508 -1.7789 2.98283 0
M  V30 126 C 11.0048 -1.35347 4.06036 0
M  V30 127 C 10.3308 -2.61846 4.66198 0
M  V30 128 C 11.6308 -0.499354 5.19907 0
M  V30 129 H 13.3248 -0.00824265 2.99399 0
M  V30 130 H 10.8708 -0.0025244 1.44 0
M  V30 131 H 12.8238 -2.39937 3.46422 0
M  V30 132 H 11.5478 -2.39405 2.22155 0
M  V30 133 H 10.2068 -0.756156 3.58717 0
M  V30 134 H 9.8548 -3.21632 3.86732 0
M  V30 135 H 9.5548 -2.3409 5.38958 0
M  V30 136 H 11.0788 -3.24732 5.1709 0
M  V30 137 H 12.4928 -1.02498 5.64063 0
M  V30 138 H 10.8898 -0.316424 5.99265 0
M  V30 139 H 11.9598 0.480459 4.82514 0
M  V30 140 N 13.3029 -1.57598 0.00835791 0
M  V30 141 C 14.5279 -1.95617 -0.689103 0
M  V30 142 C 14.9529 -0.883753 -1.66046 0
M  V30 143 O 14.3109 0.157352 -1.80616 0
M  V30 144 C 14.3589 -3.32736 -1.38994 0
M  V30 145 O 13.4629 -3.27631 -2.50463 0
M  V30 146 H 12.8039 -0.638379 -0.182668 0
M  V30 147 H 15.3339 -2.045 0.064036 0
M  V30 148 H 15.3439 -3.68494 -1.75147 0
M  V30 149 H 14.0189 -4.1034 -0.677778 0
M  V30 150 H 12.5959 -3.03561 -2.16576 0
M  V30 151 N 14.781 0.264519 -1.55364 0
M  V30 152 C 16.029 0.993021 -1.76021 0
M  V30 153 C 16.35 1.86511 -0.569099 0
M  V30 154 O 15.62 1.91438 0.415735 0
M  V30 155 H 14.2 0.369639 -0.649135 0
M  V30 156 H 16.862 0.286707 -1.9278 0
M  V30 157 H 15.958 1.62502 -2.66457 0
M  V30 158 N 16.2591 1.48442 0.529413 0
M  V30 159 C 17.6701 1.5002 1.11134 0
M  V30 160 C 18.0211 0.27031 1.94329 0
M  V30 161 O 17.1461 -0.622507 2.07253 0
M  V30 162 C 17.7411 2.71834 2.02217 0
M  V30 163 C 16.3001 2.76283 2.55627 0
M  V30 164 C 15.4471 2.43542 1.326 0
M  V30 165 H 18.3981 1.5555 0.314641 0
M  V30 166 H 18.4191 2.50384 2.8651 0
M  V30 167 H 17.9311 3.61331 1.41639 0
M  V30 168 H 16.0321 1.90995 3.19924 0
M  V30 169 H 16.1451 3.77725 2.94721 0
M  V30 170 H 14.5091 1.94709 1.64196 0
M  V30 171 H 15.2921 3.3528 0.737734 0
M  V30 172 N 17.7372 -0.778329 1.37039 0
M  V30 173 C 18.9622 -1.57248 1.35233 0
M  V30 174 C 19.3872 -1.87999 -0.0615568 0
M  V30 175 O 18.7452 -1.48734 -1.03672 0
M  V30 176 C 18.7932 -2.86353 2.19167 0
M  V30 177 O 17.8972 -3.80442 1.59178 0
M  V30 178 H 17.2382 -0.476569 0.462362 0
M  V30 179 H 19.7682 -0.963853 1.80474 0
M  V30 180 H 19.7782 -3.35519 2.32145 0
M  V30 181 H 18.4532 -2.63299 3.21942 0
M  V30 182 H 17.0302 -3.39067 1.55203 0
M  V30 183 N 19.2153 -1.21501 -1.00376 0
M  V30 184 C 20.4633 -1.03095 -1.73827 0
M  V30 185 C 20.7843 0.436341 -1.90055 0
M  V30 186 O 20.0543 1.31466 -1.45236 0
M  V30 187 H 18.6343 -0.378487 -0.644016 0
M  V30 188 H 21.2963 -1.52831 -1.20949 0
M  V30 189 H 20.3923 -1.49991 -2.73695 0
M  V30 190 N 20.6934 1.19889 -1.02296 0
M  V30 191 C 21.6564 2.21116 -0.603351 0
M  V30 192 C 22.6564 1.5738 0.329884 0
M  V30 193 O 23.8464 1.73802 0.117702 0
M  V30 194 C 20.9784 3.40696 0.117992 0
M  V30 195 H 22.1714 2.59754 -1.49893 0
M  V30 196 H 19.7244 1.33463 -0.813468 0
M  V30 197 H 20.4594 3.07569 1.0282 0
M  V30 198 H 20.2444 3.88188 -0.552511 0
M  V30 199 H 21.7344 4.15692 0.398696 0
M  V30 200 N 22.1715 0.800033 1.35784 0
M  V30 201 C 23.4195 0.376597 1.9856 0
M  V30 202 C 23.7405 -1.05812 1.63795 0
M  V30 203 O 23.0105 -1.73103 0.917171 0
M  V30 204 H 21.5905 0.136261 0.734467 0
M  V30 205 H 24.2525 1.02442 1.65806 0
M  V30 206 H 23.3485 0.477002 3.08433 0
M  V30 207 N 23.6496 -1.47581 0.552962 0
M  V30 208 C 24.5966 -2.29957 -0.197108 0
M  V30 209 C 25.5666 -1.38799 -0.912359 0
M  V30 210 O 26.7516 -1.67761 -0.908888 0
M  V30 211 C 23.8916 -3.22672 -1.22379 0
M  V30 212 C 23.0046 -4.28919 -0.515038 0
M  V30 213 C 22.1396 -5.0879 -1.52664 0
M  V30 214 C 21.1786 -6.06815 -0.802631 0
M  V30 215 N 20.3156 -6.7966 -1.76086 0
M  V30 216 H 25.1556 -2.93578 0.511486 0
M  V30 217 H 22.6926 -1.4471 0.264067 0
M  V30 218 H 24.6506 -3.74845 -1.83159 0
M  V30 219 H 23.2806 -2.60925 -1.90047 0
M  V30 220 H 22.3326 -3.79835 0.207192 0
M  V30 221 H 23.6446 -4.98773 0.0523425 0
M  V30 222 H 22.7986 -5.65091 -2.20809 0
M  V30 223 H 21.5376 -4.38828 -2.12794 0
M  V30 224 H 20.5426 -5.49695 -0.107238 0
M  V30 225 H 21.7676 -6.78784 -0.207135 0
M  V30 226 H 19.7136 -6.12432 -2.35081 0
M  V30 227 H 19.6306 -7.45669 -1.24552 0
M  V30 228 H 20.8986 -7.40538 -2.43359 0
M  V30 229 N 25.1277 -0.289203 -1.54924 0
M  V30 230 C 26.3527 0.329299 -2.04769 0
M  V30 231 C 26.7777 1.4763 -1.16564 0
M  V30 232 O 26.1357 1.80527 -0.167186 0
M  V30 233 C 26.1837 0.774438 -3.52186 0
M  V30 234 O 25.2877 1.88038 -3.67036 0
M  V30 235 H 24.6287 0.0659259 -0.660719 0
M  V30 236 H 27.1587 -0.42761 -2.00082 0
M  V30 237 H 27.1687 1.06642 -3.93816 0
M  V30 238 H 25.8437 -0.0646707 -4.1585 0
M  V30 239 H 24.4207 1.58985 -3.3731 0
M  V30 240 N 26.6058 1.57591 -0.0167156 0
M  V30 241 C 27.8338 1.95575 0.675128 0
M  V30 242 C 28.2488 0.892542 1.6637 0
M  V30 243 O 27.6058 -0.126912 1.82058 0
M  V30 244 C 27.6568 3.33608 1.39239 0
M  V30 245 O 27.3778 4.3585 0.443444 0
M  V30 246 C 28.8788 3.86151 2.17721 0
M  V30 247 H 26.0988 0.644423 0.186978 0
M  V30 248 H 28.6428 2.0437 -0.0728 0
M  V30 249 H 26.7978 3.2607 2.09182 0
M  V30 250 H 27.2118 5.158 0.951358 0
M  V30 251 H 28.6858 4.85114 2.63379 0
M  V30 252 H 29.1628 3.19738 3.01105 0
M  V30 253 H 29.7688 3.96918 1.52761 0
M  V30 254 N 28.0839 -0.256276 1.55502 0
M  V30 255 C 29.0139 -1.32102 1.92539 0
M  V30 256 C 29.9949 -1.50684 0.789194 0
M  V30 257 O 31.1799 -1.63449 1.04872 0
M  V30 258 C 28.3099 -2.67752 2.21192 0
M  V30 259 C 27.2639 -2.63878 3.36975 0
M  V30 260 C 26.5899 -4.03236 3.51147 0
M  V30 261 C 27.8899 -2.21682 4.72921 0
M  V30 262 H 29.5839 -1.01351 2.81724 0
M  V30 263 H 27.1299 -0.486105 1.35547 0
M  V30 264 H 29.0829 -3.42365 2.45691 0
M  V30 265 H 27.8069 -3.0012 1.28824 0
M  V30 266 H 26.4659 -1.91722 3.12471 0
M  V30 267 H 26.1139 -4.32854 2.56216 0
M  V30 268 H 25.8139 -4.01535 4.29003 0
M  V30 269 H 27.3379 -4.79563 3.77957 0
M  V30 270 H 28.7519 -2.86023 4.96854 0
M  V30 271 H 27.1489 -2.3111 5.53812 0
M  V30 272 H 28.2189 -1.16833 4.70615 0
M  V30 273 N 29.562 -1.4872 -0.521534 0
M  V30 274 C 30.492 -1.66771 -1.63431 0
M  V30 275 C 31.473 -0.516499 -1.62069 0
M  V30 276 O 32.658 -0.750013 -1.79132 0
M  V30 277 C 29.788 -1.71515 -3.01993 0
M  V30 278 C 28.742 -2.86222 -3.18216 0
M  V30 279 C 28.068 -2.76061 -4.57924 0
M  V30 280 C 29.368 -4.27419 -3.00184 0
M  V30 281 H 31.062 -2.59932 -1.48579 0
M  V30 282 H 28.608 -1.25089 -0.713358 0
M  V30 283 H 30.561 -1.82731 -3.7972 0
M  V30 284 H 29.285 -0.749393 -3.17886 0
M  V30 285 H 27.944 -2.74575 -2.42908 0
M  V30 286 H 27.592 -1.77437 -4.70665 0
M  V30 287 H 27.292 -3.53037 -4.69722 0
M  V30 288 H 28.816 -2.89256 -5.37739 0
M  V30 289 H 30.23 -4.39855 -3.67697 0
M  V30 290 H 28.627 -5.05458 -3.2347 0
M  V30 291 H 29.697 -4.43293 -1.96518 0
M  V30 292 N 31.0401 0.771051 -1.3745 0
M  V30 293 C 31.9871 1.88435 -1.3327 0
M  V30 294 C 32.9571 1.64914 -0.198136 0
M  V30 295 O 34.1421 1.86821 -0.387606 0
M  V30 296 C 31.2821 3.25509 -1.14622 0
M  V30 297 C 30.3951 3.60979 -2.37314 0
M  V30 298 C 29.5301 4.87265 -2.11533 0
M  V30 299 C 28.5691 5.15469 -3.30088 0
M  V30 300 N 27.7061 6.32944 -3.03853 0
M  V30 301 H 32.5461 1.91344 -2.28455 0
M  V30 302 H 30.0831 0.935466 -1.13523 0
M  V30 303 H 32.0411 4.04582 -1.01831 0
M  V30 304 H 30.6711 3.21974 -0.230837 0
M  V30 305 H 29.7231 2.76885 -2.60842 0
M  V30 306 H 31.0351 3.77759 -3.25729 0
M  V30 307 H 30.1891 5.74244 -1.95777 0
M  V30 308 H 28.9281 4.7259 -1.20457 0
M  V30 309 H 27.9331 4.26966 -3.46382 0
M  V30 310 H 29.1581 5.32052 -4.22016 0
M  V30 311 H 27.1041 6.19625 -2.15407 0
M  V30 312 H 27.0211 6.50143 -3.85812 0
M  V30 313 H 28.2891 7.22857 -2.91716 0
M  V30 314 N 32.5182 1.22032 0.997298 0
M  V30 315 C 33.9342 0.979326 1.26021 0
M  V30 316 C 34.1342 -0.32972 1.98784 0
M  V30 317 O 33.1902 -1.05345 2.29475 0
M  V30 318 C 34.5032 2.17509 2.07631 0
M  V30 319 C 36.0512 2.21817 2.2083 0
M  V30 320 C 36.5262 3.40933 3.05825 0
M  V30 321 N 38.0172 3.41067 3.13412 0
M  V30 322 C 38.7522 4.29885 3.79455 0
M  V30 323 N 38.2482 5.28914 4.47462 0
M  V30 324 N 40.0412 4.17673 3.76173 0
M  V30 325 H 32.1922 2.06202 0.509352 0
M  V30 326 H 34.4552 0.90334 0.287541 0
M  V30 327 H 34.1612 3.12415 1.61524 0
M  V30 328 H 34.0352 2.17206 3.08385 0
M  V30 329 H 36.4222 1.27462 2.66153 0
M  V30 330 H 36.5032 2.2616 1.1952 0
M  V30 331 H 36.1472 4.35586 2.61203 0
M  V30 332 H 36.0772 3.33829 4.07266 0
M  V30 333 H 38.5682 2.69406 2.65007 0
M  V30 334 H 38.8812 5.92973 4.95583 0
M  V30 335 H 37.2262 5.32831 4.46224 0
M  V30 336 H 40.4172 3.39564 3.22202 0
M  V30 337 H 40.5902 4.87098 4.27363 0
M  V30 338 N 33.9963 -1.19345 1.0293 0
M  V30 339 C 34.9263 -2.2481 0.631105 0
M  V30 340 C 35.9073 -1.66245 -0.360104 0
M  V30 341 O 37.0923 -1.92677 -0.242726 0
M  V30 342 C 34.2223 -3.47295 -0.0184607 0
M  V30 343 C 33.1763 -4.18536 0.895073 0
M  V30 344 C 32.5023 -5.34586 0.110592 0
M  V30 345 C 33.8023 -4.73287 2.209 0
M  V30 346 H 35.4963 -2.58372 1.51275 0
M  V30 347 H 33.0423 -1.24194 0.728818 0
M  V30 348 H 34.9953 -4.20268 -0.308675 0
M  V30 349 H 33.7193 -3.12933 -0.934907 0
M  V30 350 H 32.3783 -3.47446 1.16949 0
M  V30 351 H 32.0263 -4.96469 -0.807902 0
M  V30 352 H 31.7263 -5.83183 0.719087 0
M  V30 353 H 33.2503 -6.10355 -0.172871 0
M  V30 354 H 34.6643 -5.38013 1.98028 0
M  V30 355 H 33.0613 -5.32373 2.76946 0
M  V30 356 H 34.1313 -3.91331 2.86336 0
M  V30 357 N 35.4744 -0.807222 -1.35358 0
M  V30 358 C 36.4044 -0.232509 -2.3234 0
M  V30 359 C 37.3854 0.642386 -1.57504 0
M  V30 360 O 38.5704 0.572526 -1.85569 0
M  V30 361 C 35.7004 0.619238 -3.41735 0
M  V30 362 C 34.6544 -0.157215 -4.27711 0
M  V30 363 C 33.9804 0.816273 -5.28433 0
M  V30 364 C 35.2804 -1.35656 -5.04376 0
M  V30 365 H 36.9744 -1.04276 -2.80654 0
M  V30 366 H 34.5204 -0.50288 -1.34934 0
M  V30 367 H 36.4734 1.03137 -4.08584 0
M  V30 368 H 35.1974 1.46239 -2.92031 0
M  V30 369 H 33.8564 -0.550525 -3.62443 0
M  V30 370 H 33.5044 1.65494 -4.74996 0
M  V30 371 H 33.2044 0.301067 -5.86828 0
M  V30 372 H 34.7284 1.22659 -5.98153 0
M  V30 373 H 36.1424 -1.01927 -5.64166 0
M  V30 374 H 34.5394 -1.8063 -5.7227 0
M  V30 375 H 35.6094 -2.14288 -4.34981 0
M  V30 376 N 36.9525 1.47285 -0.560781 0
M  V30 377 C 37.8845 2.28118 0.222438 0
M  V30 378 C 38.8975 1.37219 0.876056 0
M  V30 379 O 40.0865 1.62011 0.749307 0
M  V30 380 C 37.1865 3.1159 1.33285 0
M  V30 381 C 36.3595 4.30473 0.77534 0
M  V30 382 C 35.4185 4.95513 1.77069 0
M  V30 383 O 34.4445 5.53792 1.31539 0
M  V30 384 N 35.6465 4.90531 3.10418 0
M  V30 385 H 38.4115 2.95976 -0.470958 0
M  V30 386 H 35.9725 1.56955 -0.39709 0
M  V30 387 H 37.9645 3.51967 1.99752 0
M  V30 388 H 36.5345 2.45951 1.92943 0
M  V30 389 H 35.7545 3.94144 -0.0662113 0
M  V30 390 H 37.0425 5.07362 0.382272 0
M  V30 391 H 36.4405 4.44389 3.5005 0
M  V30 392 H 34.9975 5.34917 3.72434 0
M  V30 393 N 38.4306 0.297415 1.54768 0
M  V30 394 C 39.3406 -0.58983 2.27064 0
M  V30 395 C 40.3566 -1.15144 1.30453 0
M  V30 396 O 41.5326 -1.17699 1.63428 0
M  V30 397 C 38.5976 -1.74714 2.9946 0
M  V30 398 C 37.6586 -1.21997 4.11601 0
M  V30 399 C 36.8916 -2.32212 4.80535 0
M  V30 400 O 37.1146 -3.52036 4.48806 0
M  V30 401 O 36.0486 -1.99106 5.68014 0
M  V30 402 H 39.8746 -0.00348199 3.037 0
M  V30 403 H 37.4596 0.0640035 1.49263 0
M  V30 404 H 39.3416 -2.42147 3.44881 0
M  V30 405 H 38.0166 -2.32016 2.25722 0
M  V30 406 H 36.9236 -0.511458 3.70587 0
M  V30 407 H 38.2566 -0.692419 4.87305 0
M  V30 408 N 39.9087 -1.5758 0.0250728 0
M  V30 409 C 40.8587 -2.06468 -0.967201 0
M  V30 410 C 41.8427 -0.964376 -1.28797 0
M  V30 411 O 43.0347 -1.22797 -1.27475 0
M  V30 412 C 40.1637 -2.59203 -2.25097 0
M  V30 413 C 39.2497 -3.76157 -1.95874 0
M  V30 414 N 39.6407 -4.86919 -1.36905 0
M  V30 415 C 37.9387 -3.84566 -2.25887 0
M  V30 416 C 38.6397 -5.68172 -1.24724 0
M  V30 417 N 37.6157 -5.14953 -1.74138 0
M  V30 418 H 41.4177 -2.89508 -0.506176 0
M  V30 419 H 38.9317 -1.61399 -0.18004 0
M  V30 420 H 40.9287 -2.92517 -2.97052 0
M  V30 421 H 39.5887 -1.77592 -2.71829 0
M  V30 422 H 40.5997 -5.07256 -1.04459 0
M  V30 423 H 37.2767 -3.13854 -2.75321 0
M  V30 424 H 38.6667 -6.67221 -0.791605 0
M  V30 425 N 41.3868 0.248026 -1.55636 0
M  V30 426 C 42.6118 0.998028 -1.81808 0
M  V30 427 C 43.0368 1.78207 -0.601979 0
M  V30 428 O 42.3948 1.75653 0.448961 0
M  V30 429 C 42.4428 1.9125 -3.05705 0
M  V30 430 O 41.5468 3.00406 -2.82542 0
M  V30 431 H 40.8878 0.284045 -0.600179 0
M  V30 432 H 43.4178 0.269357 -2.02819 0
M  V30 433 H 43.4278 2.32737 -3.35108 0
M  V30 434 H 42.1028 1.33602 -3.93857 0
M  V30 435 H 40.6798 2.63056 -2.64303 0
M  V30 436 N 42.8649 1.48995 0.513639 0
M  V30 437 C 44.1129 1.57531 1.26604 0
M  V30 438 C 44.4339 0.258236 1.93283 0
M  V30 439 O 43.7039 -0.721502 1.8213 0
M  V30 440 H 42.2839 0.580387 0.470276 0
M  V30 441 H 44.9459 1.85552 0.596373 0
M  V30 442 H 44.0419 2.36486 2.03669 0
M  V30 443 N 44.343 -0.763751 1.37857 0
M  V30 444 C 45.592 -1.51789 1.32827 0
M  V30 445 C 45.905 -1.95426 -0.0823719 0
M  V30 446 O 47.111 -2.70298 -0.255172 0
M  V30 447 C 45.567 -2.74133 2.33193 0
M  V30 448 C 45.175 -2.37562 3.79827 0
M  V30 449 C 46.919 -3.52054 2.37188 0
M  V30 450 C 44.826 -3.56456 4.71904 0
M  V30 451 H 43.756 -0.569896 0.493695 0
M  V30 452 H 46.407 -0.835822 1.63359 0
M  V30 453 H 44.789 -3.4427 1.9569 0
M  V30 454 H 45.963 -1.75157 4.26212 0
M  V30 455 H 44.278 -1.72798 3.78853 0
M  V30 456 H 46.875 -4.40437 3.03182 0
M  V30 457 H 47.218 -3.92486 1.38782 0
M  V30 458 H 47.751 -2.88921 2.7344 0
M  V30 459 H 44.49 -3.21099 5.71468 0
M  V30 460 H 44.01 -4.17938 4.30218 0
M  V30 461 H 45.689 -4.23168 4.89426 0
M  V30 462 N 45.8211 -1.22559 -0.990812 0
M  V30 463 C 47.0681 -1.05141 -1.73065 0
M  V30 464 C 47.3961 0.413191 -1.9006 0
M  V30 465 O 46.6511 1.32257 -1.44245 0
M  V30 466 C 46.9501 -1.71011 -3.13831 0
M  V30 467 C 46.6161 -3.20911 -3.16745 0
M  V30 468 C 45.2781 -3.61812 -3.17247 0
M  V30 469 C 47.6301 -4.16846 -3.12872 0
M  V30 470 C 44.9581 -4.97127 -3.1158 0
M  V30 471 C 47.3101 -5.5214 -3.08746 0
M  V30 472 C 45.9741 -5.92419 -3.07565 0
M  V30 473 H 45.2441 -0.384738 -0.633291 0
M  V30 474 H 47.8911 -1.5235 -1.16025 0
M  V30 475 H 46.1961 -1.16133 -3.74193 0
M  V30 476 H 47.8931 -1.55023 -3.69823 0
M  V30 477 H 44.4831 -2.88344 -3.17105 0
M  V30 478 H 48.6671 -3.86263 -3.11632 0
M  V30 479 H 43.9231 -5.27562 -3.09012 0
M  V30 480 H 48.0971 -6.26201 -3.04705 0
M  V30 481 H 45.7241 -6.97236 -3.02929 0
M  V30 482 N 47.2992 1.18797 -1.03562 0
M  V30 483 C 48.5472 1.88278 -0.734569 0
M  V30 484 C 48.8682 1.8043 0.739586 0
M  V30 485 O 48.1382 1.21925 1.53333 0
M  V30 486 H 46.7182 0.696991 -0.268725 0
M  V30 487 H 49.3802 1.44192 -1.31129 0
M  V30 488 H 48.4762 2.94443 -1.03489 0
M  V30 489 N 48.7773 0.814389 1.34928 0
M  V30 490 C 50.0243 0.398423 1.98542 0
M  V30 491 C 50.3523 -1.03638 1.64589 0
M  V30 492 O 49.6073 -1.73509 0.90516 0
M  V30 493 C 49.9063 0.537781 3.53331 0
M  V30 494 C 49.5723 1.93704 4.07172 0
M  V30 495 C 48.2343 2.31984 4.21589 0
M  V30 496 C 50.5863 2.85213 4.36237 0
M  V30 497 C 47.9143 3.61125 4.62391 0
M  V30 498 C 50.2663 4.13809 4.78482 0
M  V30 499 C 48.9303 4.52077 4.91104 0
M  V30 500 H 48.2003 0.145793 0.726516 0
M  V30 501 H 50.8473 1.03669 1.61012 0
M  V30 502 H 49.1523 -0.183906 3.91368 0
M  V30 503 H 50.8493 0.196588 4.00518 0
M  V30 504 H 47.4393 1.62966 3.96409 0
M  V30 505 H 51.6233 2.56885 4.24645 0
M  V30 506 H 46.8793 3.90612 4.70353 0
M  V30 507 H 51.0533 4.84811 4.99932 0
M  V30 508 H 48.6803 5.52196 5.22478 0
M  V30 509 N 50.2554 -1.46986 0.568584 0
M  V30 510 C 51.4804 -2.07335 0.0520528 0
M  V30 511 C 51.9054 -1.41675 -1.23733 0
M  V30 512 O 51.2634 -0.495623 -1.74394 0
M  V30 513 C 51.3114 -3.60417 -0.11501 0
M  V30 514 O 50.4154 -3.95309 -1.17492 0
M  V30 515 H 49.7564 -0.661597 0.0564385 0
M  V30 516 H 52.2864 -1.88837 0.787507 0
M  V30 517 H 52.2964 -4.06698 -0.325644 0
M  V30 518 H 50.9714 -4.07601 0.826675 0
M  V30 519 H 49.5484 -3.60757 -0.943869 0
M  V30 520 N 51.7335 -0.305618 -1.54608 0
M  V30 521 C 52.9795 0.302746 -2.00528 0
M  V30 522 C 53.3125 1.53184 -1.19367 0
M  V30 523 O 52.5875 1.92598 -0.271321 0
M  V30 524 C 52.8705 0.654756 -3.54097 0
M  V30 525 C 52.7235 -0.583793 -4.45995 0
M  V30 526 C 54.0425 1.47947 -4.14487 0
M  V30 527 H 51.1615 0.108564 -0.72896 0
M  V30 528 H 53.8035 -0.418634 -1.85331 0
M  V30 529 H 51.9535 1.26935 -3.67178 0
M  V30 530 H 53.6255 -1.22224 -4.44814 0
M  V30 531 H 51.8685 -1.21615 -4.16404 0
M  V30 532 H 52.5395 -0.293287 -5.5122 0
M  V30 533 H 55.0155 0.96013 -4.04871 0
M  V30 534 H 53.8915 1.69454 -5.22088 0
M  V30 535 H 54.1525 2.47011 -3.66658 0
M  V30 536 N 53.2116 1.57565 -0.0334293 0
M  V30 537 C 54.4366 1.96689 0.657895 0
M  V30 538 C 54.8616 0.910057 1.64619 0
M  V30 539 O 54.2196 -0.128598 1.80843 0
M  V30 540 C 54.2676 3.34905 1.33683 0
M  V30 541 O 53.3716 3.31574 2.45219 0
M  V30 542 H 52.7126 0.641205 0.172489 0
M  V30 543 H 55.2426 2.04372 -0.0965621 0
M  V30 544 H 55.2526 3.71234 1.69262 0
M  V30 545 H 53.9276 4.11366 0.612411 0
M  V30 546 H 52.5046 3.06968 2.11719 0
M  V30 547 N 54.6897 -0.239769 1.55765 0
M  V30 548 C 55.6397 -1.30002 1.87306 0
M  V30 549 C 56.6237 -1.43156 0.73452 0
M  V30 550 O 57.8157 -1.46277 0.99659 0
M  V30 551 C 54.9447 -2.65409 2.17745 0
M  V30 552 C 54.0307 -2.56231 3.37945 0
M  V30 553 N 54.4217 -2.16689 4.57033 0
M  V30 554 C 52.7197 -2.87229 3.41197 0
M  V30 555 C 53.4207 -2.18318 5.39177 0
M  V30 556 N 52.3967 -2.58098 4.78421 0
M  V30 557 H 56.1987 -0.984912 2.76906 0
M  V30 558 H 53.7127 -0.448381 1.56087 0
M  V30 559 H 55.7097 -3.41934 2.38509 0
M  V30 560 H 54.3697 -2.97781 1.29448 0
M  V30 561 H 55.3807 -1.88116 4.82528 0
M  V30 562 H 52.0577 -3.24094 2.63191 0
M  V30 563 H 53.4477 -1.90025 6.44469 0
M  V30 564 N 56.1678 -1.49265 -0.50573 0
M  V30 565 C 57.3958 -1.62215 -1.28429 0
M  V30 566 C 57.8108 -0.291697 -1.86533 0
M  V30 567 O 57.1678 0.722233 -1.67601 0
M  V30 568 C 57.2188 -2.68735 -2.41793 0
M  V30 569 O 56.9398 -3.96619 -1.86078 0
M  V30 570 C 58.4408 -2.92346 -3.3324 0
M  V30 571 H 55.6608 -0.546239 -0.389697 0
M  V30 572 H 58.2048 -1.95265 -0.607609 0
M  V30 573 H 56.3598 -2.38476 -3.053 0
M  V30 574 H 56.7738 -4.55256 -2.60465 0
M  V30 575 H 58.2478 -3.70623 -4.09075 0
M  V30 576 H 58.7248 -2.02081 -3.89948 0
M  V30 577 H 59.3308 -3.24003 -2.75503 0
M  V30 578 N 57.6459 0.756429 -1.3826 0
M  V30 579 C 58.8739 1.54565 -1.3754 0
M  V30 580 C 59.2889 1.88767 0.0355331 0
M  V30 581 O 58.6459 1.52572 1.0014 0
M  V30 582 C 58.6969 2.84654 -2.22833 0
M  V30 583 O 58.4179 2.51912 -3.5843 0
M  V30 584 C 59.9189 3.78807 -2.30261 0
M  V30 585 H 57.1389 0.478353 -0.470553 0
M  V30 586 H 59.6829 0.936381 -1.81803 0
M  V30 587 H 57.8379 3.41965 -1.8204 0
M  V30 588 H 58.2519 3.35325 -4.03308 0
M  V30 589 H 59.7259 4.67045 -2.94233 0
M  V30 590 H 60.2029 4.19038 -1.31545 0
M  V30 591 H 60.8089 3.2742 -2.71433 0
M  V30 592 N 59.124 1.23083 0.984299 0
M  V30 593 C 60.54 0.992637 1.24975 0
M  V30 594 C 60.74 -0.308618 1.99123 0
M  V30 595 O 59.796 -1.02905 2.30579 0
M  V30 596 C 61.109 2.19698 2.05312 0
M  V30 597 C 62.657 2.24147 2.18465 0
M  V30 598 C 63.132 3.44157 3.02192 0
M  V30 599 N 64.623 3.44372 3.09777 0
M  V30 600 C 65.358 4.33886 3.74874 0
M  V30 601 N 64.854 5.3363 4.41827 0
M  V30 602 N 66.647 4.21639 3.71721 0
M  V30 603 H 58.798 2.06731 0.487453 0
M  V30 604 H 61.061 0.906339 0.277944 0
M  V30 605 H 60.767 3.1411 1.58201 0
M  V30 606 H 60.641 2.20465 3.06064 0
M  V30 607 H 63.028 1.30277 2.64786 0
M  V30 608 H 63.109 2.27415 1.17115 0
M  V30 609 H 62.753 4.38332 2.56568 0
M  V30 610 H 62.683 3.3813 4.03702 0
M  V30 611 H 65.174 2.72201 2.62135 0
M  V30 612 H 65.487 5.98196 4.89266 0
M  V30 613 H 63.832 5.37534 4.40548 0
M  V30 614 H 67.023 3.42962 3.18582 0
M  V30 615 H 67.196 4.91604 4.22173 0
M  V30 616 N 60.6021 -1.18246 1.0419 0
M  V30 617 C 61.5501 -2.23968 0.627792 0
M  V30 618 C 62.5441 -1.65828 -0.346019 0
M  V30 619 O 63.7501 -1.78733 -0.213175 0
M  V30 620 H 60.1251 -0.728939 0.184802 0
M  V30 621 H 62.0961 -2.56202 1.52981 0
M  V30 622 C 60.8451 -3.47699 0.00796591 0
M  V30 623 H 60.1681 -3.92734 0.748347 0
M  V30 624 H 61.6081 -4.23294 -0.24455 0
M  V30 625 C 60.0671 -3.13153 -1.24246 0
M  V30 626 O 60.5971 -3.27003 -2.33307 0
M  V30 627 N 58.8031 -2.67467 -1.13622 0
M  V30 628 H 58.3501 -2.56396 -0.248734 0
M  V30 629 H 58.3081 -2.44724 -1.97377 0
M  V30 630 N 62.0802 -0.821533 -1.34494 0
M  V30 631 C 63.4912 -0.467956 -1.8074 0
M  V30 632 C 63.8422 1.01151 -1.68116 0
M  V30 633 O 62.9672 1.78707 -1.22036 0
M  V30 634 C 63.5622 -0.842627 -3.28154 0
M  V30 635 C 62.1212 -0.541439 -3.72485 0
M  V30 636 C 61.2682 -1.06028 -2.56229 0
M  V30 637 H 64.2192 -1.01183 -1.22261 0
M  V30 638 H 64.2402 -0.145876 -3.8022 0
M  V30 639 H 63.7522 -1.91945 -3.37311 0
M  V30 640 H 61.8532 0.526034 -3.68868 0
M  V30 641 H 61.9662 -1.08453 -4.66663 0
M  V30 642 H 60.3302 -0.481892 -2.501 0
M  V30 643 H 61.1132 -2.14352 -2.68157 0
M  V30 644 N 63.5583 1.46682 -0.576371 0
M  V30 645 C 64.9743 1.57822 -0.237562 0
M  V30 646 C 65.1743 1.57237 1.26011 0
M  V30 647 O 64.2303 1.48596 2.04146 0
M  V30 648 C 65.5433 2.87499 -0.881168 0
M  V30 649 C 67.0913 3.01119 -0.85417 0
M  V30 650 C 67.5663 4.33524 -1.4772 0
M  V30 651 N 69.0573 4.40207 -1.44125 0
M  V30 652 C 69.7923 5.4126 -1.89276 0
M  V30 653 N 69.2883 6.49021 -2.42371 0
M  V30 654 N 71.0813 5.32422 -1.80231 0
M  V30 655 H 63.2323 1.45306 -1.54919 0
M  V30 656 H 65.4953 0.692733 -0.647167 0
M  V30 657 H 65.2013 2.9372 -1.93447 0
M  V30 658 H 65.0753 3.75224 -0.385592 0
M  V30 659 H 67.4623 2.94485 0.190491 0
M  V30 660 H 67.5433 2.14887 -1.3877 0
M  V30 661 H 67.1873 4.40916 -2.52103 0
M  V30 662 H 67.1173 5.1852 -0.918947 0
M  V30 663 H 69.6083 3.62931 -1.05307 0
M  V30 664 H 69.9213 7.2233 -2.74698 0
M  V30 665 H 68.2663 6.49858 -2.46393 0
M  V30 666 H 71.4573 4.47137 -1.38514 0
M  V30 667 H 71.6303 6.11034 -2.15735 0
M  V30 668 N 65.0364 0.313813 1.54444 0
M  V30 669 C 66.4474 -0.176243 1.85866 0
M  V30 670 C 66.7984 -1.52405 1.23561 0
M  V30 671 O 65.9234 -2.09605 0.538016 0
M  V30 672 C 66.5184 -0.32657 3.37222 0
M  V30 673 C 65.0774 -0.760846 3.6863 0
M  V30 674 C 64.2244 0.123247 2.77026 0
M  V30 675 H 67.1754 0.534418 1.49431 0
M  V30 676 H 67.1964 -1.15908 3.62416 0
M  V30 677 H 66.7084 0.654531 3.82541 0
M  V30 678 H 64.8094 -1.75204 3.28838 0
M  V30 679 H 64.9224 -0.571353 4.75681 0
M  V30 680 H 63.2864 -0.399597 2.51546 0
M  V30 681 H 64.0694 1.10094 3.25168 0
M  V30 682 N 66.5145 -1.57545 0.0417849 0
M  V30 683 C 67.7625 -1.91937 -0.632829 0
M  V30 684 C 68.0835 -0.919978 -1.71934 0
M  V30 685 O 67.3535 0.0366064 -1.95866 0
M  V30 686 H 65.9335 -0.708493 -0.236742 0
M  V30 687 H 68.5955 -1.9468 0.0925745 0
M  V30 688 H 67.6915 -2.92912 -1.07746 0
M  V30 689 N 67.9926 0.231505 -1.5589 0
M  V30 690 C 68.9026 1.308 -1.94752 0
M  V30 691 C 69.9186 1.51826 -0.849989 0
M  V30 692 O 71.0946 1.6515 -1.15271 0
M  V30 693 C 68.1596 2.63968 -2.24771 0
M  V30 694 C 67.2206 2.51331 -3.48039 0
M  V30 695 C 66.4536 3.78148 -3.76616 0
M  V30 696 O 66.6766 4.80722 -3.07022 0
M  V30 697 O 65.6106 3.75857 -4.70123 0
M  V30 698 H 69.4366 1.0083 -2.86474 0
M  V30 699 H 67.0216 0.433547 -1.42971 0
M  V30 700 H 68.9036 3.42633 -2.45318 0
M  V30 701 H 67.5786 2.9364 -1.36225 0
M  V30 702 H 66.4856 1.709 -3.32782 0
M  V30 703 H 67.8186 2.26601 -4.36936 0
M  V30 704 N 69.4707 1.49531 0.497807 0
M  V30 705 C 70.3807 1.69176 1.62532 0
M  V30 706 C 71.3967 0.5744 1.64246 0
M  V30 707 O 72.5727 0.849497 1.82608 0
M  V30 708 C 69.6377 1.75695 2.98885 0
M  V30 709 C 68.6987 2.9929 3.07773 0
M  V30 710 C 67.9317 3.05488 4.37622 0
M  V30 711 O 68.1547 2.19192 5.26603 0
M  V30 712 O 67.0887 3.9798 4.51548 0
M  V30 713 H 70.9147 2.647 1.48887 0
M  V30 714 H 68.4997 1.3331 0.674441 0
M  V30 715 H 70.3817 1.82317 3.79919 0
M  V30 716 H 69.0567 0.8335 3.12785 0
M  V30 717 H 67.9637 2.98183 2.25915 0
M  V30 718 H 69.2967 3.91125 2.98801 0
M  V30 719 N 70.9488 -0.749086 1.3866 0
M  V30 720 C 71.8968 -1.88428 1.36373 0
M  V30 721 C 72.8908 -1.67561 0.248929 0
M  V30 722 O 74.0968 -1.75074 0.41821 0
M  V30 723 H 70.4718 -0.620023 0.42553 0
M  V30 724 H 72.4428 -1.87473 2.32156 0
M  V30 725 C 71.1918 -3.25961 1.21014 0
M  V30 726 H 70.5148 -3.42607 2.06059 0
M  V30 727 H 71.9548 -4.05625 1.23469 0
M  V30 728 C 70.4138 -3.36799 -0.0825941 0
M  V30 729 O 70.9438 -3.87517 -1.05797 0
M  V30 730 N 69.1498 -2.90258 -0.140939 0
M  V30 731 H 68.6968 -2.49174 0.653477 0
M  V30 732 H 68.6548 -2.97889 -1.00545 0
M  V30 733 N 72.4269 -1.23603 -0.977757 0
M  V30 734 C 73.6749 -1.06759 -1.71601 0
M  V30 735 C 73.9959 0.395929 -1.90938 0
M  V30 736 O 73.2659 1.28356 -1.47992 0
M  V30 737 H 71.8459 -0.392062 -0.635843 0
M  V30 738 H 74.5079 -1.55362 -1.1768 0
M  V30 739 H 73.6039 -1.55763 -2.70452 0
M  V30 740 N 73.905 1.17692 -1.04816 0
M  V30 741 C 74.852 2.21581 -0.645797 0
M  V30 742 C 75.822 1.62367 0.350159 0
M  V30 743 O 77.007 1.89254 0.242433 0
M  V30 744 C 74.147 3.45092 -0.0227568 0
M  V30 745 C 73.26 4.18613 -1.06709 0
M  V30 746 C 72.395 5.29602 -0.411767 0
M  V30 747 C 71.434 5.94904 -1.44067 0
M  V30 748 N 70.571 6.97414 -0.809781 0
M  V30 749 H 75.411 2.55353 -1.5362 0
M  V30 750 H 72.948 1.25438 -0.768364 0
M  V30 751 H 74.906 4.15679 0.35588 0
M  V30 752 H 73.536 3.11917 0.831122 0
M  V30 753 H 72.588 3.46779 -1.5636 0
M  V30 754 H 73.9 4.63293 -1.84827 0
M  V30 755 H 73.054 6.06696 0.0206623 0
M  V30 756 H 71.793 4.86045 0.401438 0
M  V30 757 H 70.798 5.16544 -1.88316 0
M  V30 758 H 72.023 6.40542 -2.25571 0
M  V30 759 H 69.969 6.55998 -0.0170186 0
M  V30 760 H 69.886 7.40386 -1.52856 0
M  V30 761 H 71.154 7.78463 -0.401999 0
M  V30 762 N 75.3831 0.828654 1.34056 0
M  V30 763 C 76.6601 0.341809 1.9259 0
M  V30 764 C 77.0401 -1.17158 1.75605 0
M  V30 765 O 76.3881 -1.98132 1.13824 0
M  V30 766 C 76.5981 0.777453 3.4023 0
M  V30 767 C 77.9461 0.779579 4.17382 0
M  V30 768 O 78.9701 0.7204 3.48839 0
M  V30 769 O 77.8291 0.857996 5.39723 0
M  V30 770 H 74.9231 0.0946085 0.821571 0
M  V30 771 H 77.4691 0.913827 1.42994 0
M  V30 772 H 76.2411 1.8196 3.46419 0
M  V30 773 H 75.8641 0.181444 3.97186 0
M  V30 774 N 76.8612 -1.46375 0.584142 0
M  V30 775 C 78.0912 -2.06461 0.0758195 0
M  V30 776 C 78.4992 -1.43322 -1.23512 0
M  V30 777 O 77.8422 -0.533216 -1.75791 0
M  V30 778 C 77.9042 -3.59131 -0.162773 0
M  V30 779 C 77.5682 -4.4447 1.06279 0
M  V30 780 C 78.5652 -4.80918 1.97519 0
M  V30 781 C 76.2502 -4.85584 1.28504 0
M  V30 782 C 78.2442 -5.57309 3.09331 0
M  V30 783 C 75.9312 -5.61734 2.4062 0
M  V30 784 C 76.9292 -5.9751 3.30863 0
M  V30 785 O 76.6172 -6.72121 4.41032 0
M  V30 786 H 76.3492 -0.673745 0.0551725 0
M  V30 787 H 78.9032 -1.88969 0.804984 0
M  V30 788 H 77.1332 -3.74936 -0.946565 0
M  V30 789 H 78.8222 -4.0114 -0.619782 0
M  V30 790 H 79.5882 -4.49732 1.81565 0
M  V30 791 H 75.4672 -4.57187 0.591702 0
M  V30 792 H 79.0112 -5.85152 3.79793 0
M  V30 793 H 74.9082 -5.92334 2.56537 0
M  V30 794 H 75.6762 -6.90547 4.39417 0
M  V30 795 N 78.3393 -0.321999 -1.54275 0
M  V30 796 C 79.5693 0.282642 -2.04658 0
M  V30 797 C 79.9773 1.46453 -1.19784 0
M  V30 798 O 79.3203 1.82367 -0.220932 0
M  V30 799 C 79.3823 0.781857 -3.50895 0
M  V30 800 C 79.0463 -0.277517 -4.56157 0
M  V30 801 C 80.0433 -1.11307 -5.07845 0
M  V30 802 C 77.7283 -0.425256 -5.00497 0
M  V30 803 C 79.7223 -2.08211 -6.02434 0
M  V30 804 C 77.4093 -1.39771 -5.94901 0
M  V30 805 C 78.4073 -2.2246 -6.45756 0
M  V30 806 O 78.0953 -3.18054 -7.38307 0
M  V30 807 H 77.8273 0.0622636 -0.673126 0
M  V30 808 H 80.3813 -0.465792 -2.00049 0
M  V30 809 H 78.6113 1.58118 -3.52896 0
M  V30 810 H 80.3003 1.30467 -3.84361 0
M  V30 811 H 81.0663 -1.00991 -4.74369 0
M  V30 812 H 76.9453 0.20847 -4.60528 0
M  V30 813 H 80.4893 -2.72791 -6.42052 0
M  V30 814 H 76.3863 -1.50152 -6.27794 0
M  V30 815 H 77.1543 -3.13275 -7.56175 0
M  V30 816 N 79.8174 1.5752 -0.0501392 0
M  V30 817 C 81.0644 1.9265 0.623874 0
M  V30 818 C 81.3924 0.928411 1.70912 0
M  V30 819 O 80.6474 -0.0594525 1.9561 0
M  V30 820 C 80.9464 3.34467 1.25963 0
M  V30 821 C 80.6124 4.49883 0.302689 0
M  V30 822 C 79.2744 4.81184 0.0393636 0
M  V30 823 C 81.6264 5.20002 -0.353205 0
M  V30 824 C 78.9544 5.79951 -0.887308 0
M  V30 825 C 81.3064 6.1976 -1.26806 0
M  V30 826 C 79.9704 6.49491 -1.54007 0
M  V30 827 H 79.2404 0.704957 0.228292 0
M  V30 828 H 81.8874 1.91146 -0.116398 0
M  V30 829 H 80.1924 3.32333 2.07514 0
M  V30 830 H 81.8894 3.58928 1.78806 0
M  V30 831 H 78.4794 4.25457 0.518109 0
M  V30 832 H 82.6634 4.96033 -0.162854 0
M  V30 833 H 77.9194 6.01322 -1.10553 0
M  V30 834 H 82.0934 6.73205 -1.78236 0
M  V30 835 H 79.7204 7.25837 -2.25976 0
M  V30 836 N 81.2955 -0.223234 1.56011 0
M  V30 837 C 82.5415 -0.949279 1.79211 0
M  V30 838 C 82.8745 -1.84054 0.619494 0
M  V30 839 O 82.1495 -1.90726 -0.381317 0
M  V30 840 C 82.4325 -1.78965 3.12479 0
M  V30 841 C 82.2855 -0.924997 4.40186 0
M  V30 842 C 83.6045 -2.76774 3.42175 0
M  V30 843 H 80.7235 -0.343676 0.651963 0
M  V30 844 H 83.3655 -0.218253 1.88742 0
M  V30 845 H 81.5155 -2.41291 3.04485 0
M  V30 846 H 83.1875 -0.318615 4.60198 0
M  V30 847 H 81.4305 -0.230344 4.33188 0
M  V30 848 H 82.1015 -1.54735 5.29869 0
M  V30 849 H 84.5775 -2.24584 3.50287 0
M  V30 850 H 83.4535 -3.32678 4.36597 0
M  V30 851 H 83.7145 -3.54429 2.64258 0
M  V30 852 N 82.7736 -1.49793 -0.48987 0
M  V30 853 C 84.0016 -1.63568 -1.26701 0
M  V30 854 C 84.4166 -0.311465 -1.86213 0
M  V30 855 O 83.7736 0.704416 -1.68357 0
M  V30 856 C 83.8246 -2.71284 -2.38929 0
M  V30 857 O 83.5456 -3.9857 -1.81861 0
M  V30 858 C 85.0466 -2.95864 -3.3012 0
M  V30 859 H 82.2666 -0.550342 -0.383881 0
M  V30 860 H 84.8106 -1.95898 -0.586864 0
M  V30 861 H 82.9656 -2.417 -3.02753 0
M  V30 862 H 83.3796 -4.57993 -2.55622 0
M  V30 863 H 84.8536 -3.74941 -4.05121 0
M  V30 864 H 85.3306 -2.06206 -3.87783 0
M  V30 865 H 85.9366 -3.26907 -2.72051 0
M  V30 866 N 84.2517 0.741722 -1.39055 0
M  V30 867 C 85.6677 1.04638 -1.20512 0
M  V30 868 C 85.8677 2.01405 -0.0620218 0
M  V30 869 O 84.9237 2.45547 0.588457 0
M  V30 870 C 86.2367 1.6151 -2.53643 0
M  V30 871 C 87.7847 1.73623 -2.6043 0
M  V30 872 C 88.2597 2.33906 -3.93767 0
M  V30 873 N 89.7507 2.41323 -3.9537 0
M  V30 874 C 90.4857 2.88888 -4.95309 0
M  V30 875 N 89.9817 3.36401 -6.05645 0
M  V30 876 N 91.7747 2.88037 -4.82692 0
M  V30 877 H 83.9257 0.0998155 -2.12165 0
M  V30 878 H 86.1887 0.106907 -0.941953 0
M  V30 879 H 85.8947 0.978739 -3.37807 0
M  V30 880 H 85.7687 2.60411 -2.72885 0
M  V30 881 H 88.1557 2.36384 -1.76655 0
M  V30 882 H 88.2367 0.733945 -2.45045 0
M  V30 883 H 87.8807 1.71776 -4.7797 0
M  V30 884 H 87.8107 3.34799 -4.06469 0
M  V30 885 H 90.3017 2.07734 -3.15682 0
M  V30 886 H 90.6147 3.71186 -6.77821 0
M  V30 887 H 88.9597 3.34427 -6.09248 0
M  V30 888 H 92.1507 2.50237 -3.95599 0
M  V30 889 H 92.3237 3.24792 -5.60726 0
M  V30 890 N 85.7298 1.2412 0.971189 0
M  V30 891 C 86.6398 1.04747 2.09917 0
M  V30 892 C 87.6558 -0.0107162 1.73997 0
M  V30 893 O 88.8318 0.186714 2.00533 0
M  V30 894 C 85.8968 0.650828 3.40537 0
M  V30 895 C 84.9578 1.7851 3.90426 0
M  V30 896 C 84.1908 1.40729 5.14812 0
M  V30 897 O 84.4138 0.29557 5.69634 0
M  V30 898 O 83.3478 2.23168 5.58999 0
M  V30 899 H 87.1738 1.99304 2.29154 0
M  V30 900 H 84.7588 1.02908 1.08307 0
M  V30 901 H 86.6408 0.440992 4.19086 0
M  V30 902 H 85.3158 -0.265649 3.22608 0
M  V30 903 H 84.2228 2.04966 3.12953 0
M  V30 904 H 85.5558 2.68023 4.12825 0
M  V30 905 N 87.2079 -1.17134 1.05439 0
M  V30 906 C 88.4539 -1.87733 0.767077 0
M  V30 907 C 88.7869 -1.8098 -0.704253 0
M  V30 908 O 88.0619 -1.21951 -1.5152 0
M  V30 909 C 88.3449 -3.37659 1.25133 0
M  V30 910 C 88.1979 -3.53149 2.78578 0
M  V30 911 C 89.5169 -4.31768 0.852324 0
M  V30 912 H 86.6359 -0.681687 0.280129 0
M  V30 913 H 89.2779 -1.37732 1.30881 0
M  V30 914 H 87.4279 -3.80373 0.790469 0
M  V30 915 H 89.0999 -3.19434 3.32806 0
M  V30 916 H 87.3429 -2.95345 3.17732 0
M  V30 917 H 88.0139 -4.58403 3.07523 0
M  V30 918 H 90.4899 -3.96909 1.24911 0
M  V30 919 H 89.3659 -5.35199 1.21873 0
M  V30 920 H 89.6269 -4.41429 -0.243485 0
M  V30 921 N 88.686 -0.835752 -1.33615 0
M  V30 922 C 89.619 -0.211815 -2.27215 0
M  V30 923 C 90.597 0.639249 -1.49507 0
M  V30 924 O 91.781 0.600193 -1.78689 0
M  V30 925 C 88.908 0.702893 -3.31326 0
M  V30 926 C 87.954 -0.0723049 -4.26439 0
M  V30 927 S 88.787 -1.42811 -5.16106 0
M  V30 928 C 89.943 -0.518613 -6.23748 0
M  V30 929 H 90.176 -1.00533 -2.79786 0
M  V30 930 H 87.709 -0.632336 -1.40858 0
M  V30 931 H 89.667 1.22505 -3.91794 0
M  V30 932 H 88.328 1.47004 -2.77576 0
M  V30 933 H 87.521 0.62359 -5.00127 0
M  V30 934 H 87.123 -0.525424 -3.70291 0
M  V30 935 H 89.415 0.284778 -6.76901 0
M  V30 936 H 90.358 -1.22556 -6.97413 0
M  V30 937 H 90.766 -0.101344 -5.64409 0
M  V30 938 N 90.1641 1.46063 -0.591896 0
M  V30 939 C 91.0961 2.28539 0.174001 0
M  V30 940 C 92.1091 1.39047 0.846753 0
M  V30 941 O 93.2981 1.63564 0.714774 0
M  V30 942 C 90.3981 3.14347 1.26645 0
M  V30 943 C 89.5711 4.32021 0.683856 0
M  V30 944 C 88.6301 4.99157 1.66518 0
M  V30 945 O 87.6561 5.56458 1.19763 0
M  V30 946 N 88.8581 4.97005 2.99943 0
M  V30 947 H 91.6231 2.94911 -0.533633 0
M  V30 948 H 89.1841 1.56077 -0.430294 0
M  V30 949 H 91.1761 3.56125 1.92242 0
M  V30 950 H 89.7461 2.49988 1.87682 0
M  V30 951 H 88.9661 3.93915 -0.1498 0
M  V30 952 H 90.2541 5.08059 0.274567 0
M  V30 953 H 89.6521 4.51714 3.40545 0
M  V30 954 H 88.2091 5.42696 3.61004 0
M  V30 955 N 91.6422 0.330177 1.54103 0
M  V30 956 C 93.0582 -0.0222371 1.59585 0
M  V30 957 C 93.2582 -1.49902 1.34654 0
M  V30 958 O 92.3142 -2.25592 1.13421 0
M  V30 959 C 93.6272 0.401932 2.98002 0
M  V30 960 C 95.1752 0.353145 3.11001 0
M  V30 961 C 95.6502 0.752576 4.51775 0
M  V30 962 N 97.1412 0.706239 4.57784 0
M  V30 963 C 97.8762 0.987417 5.64834 0
M  V30 964 N 97.3722 1.33607 6.79795 0
M  V30 965 N 99.1652 0.91254 5.54643 0
M  V30 966 H 91.3162 1.29228 1.68564 0
M  V30 967 H 93.5792 0.525906 0.78875 0
M  V30 968 H 93.2852 1.4311 3.21267 0
M  V30 969 H 93.1592 -0.229699 3.765 0
M  V30 970 H 95.5462 -0.666822 2.87467 0
M  V30 971 H 95.6272 1.0198 2.34593 0
M  V30 972 H 95.2712 1.77049 4.76042 0
M  V30 973 H 95.2012 0.0635409 5.26562 0
M  V30 974 H 97.6922 0.44889 3.75224 0
M  V30 975 H 98.0052 1.53582 7.57385 0
M  V30 976 H 96.3502 1.37439 6.81275 0
M  V30 977 H 99.5412 0.639601 4.6371 0
M  V30 978 H 99.7142 1.13503 6.37982 0
M  V30 979 N 93.1203 -1.57491 0.0584922 0
M  V30 980 C 94.3973 -1.84346 -0.653918 0
M  V30 981 C 94.7773 -0.948355 -1.88599 0
M  V30 982 O 94.1253 -0.0112403 -2.28497 0
M  V30 983 C 94.3353 -3.34239 -1.00425 0
M  V30 984 C 95.6833 -4.01431 -1.38342 0
M  V30 985 O 96.7073 -3.38907 -1.09637 0
M  V30 986 O 95.5663 -5.11683 -1.91943 0
M  V30 987 H 92.6603 -0.761112 -0.323478 0
M  V30 988 H 95.2063 -1.6947 0.0884125 0
M  V30 989 H 93.9783 -3.91089 -0.128625 0
M  V30 990 H 93.6013 -3.54329 -1.80378 0
M  V30 991 N 94.5984 0.214957 -1.56127 0
M  V30 992 C 95.8474 0.936451 -1.78643 0
M  V30 993 C 96.1604 1.85237 -0.628229 0
M  V30 994 O 97.3664 2.613 -0.737186 0
M  V30 995 C 95.8224 1.7154 -3.16389 0
M  V30 996 C 95.4304 0.845299 -4.39953 0
M  V30 997 C 97.1744 2.42772 -3.48227 0
M  V30 998 C 95.0814 1.62198 -5.68723 0
M  V30 999 H 94.0114 0.353401 -0.666051 0
M  V30 1000 H 96.6624 0.190169 -1.82512 0
M  V30 1001 H 95.0444 2.50484 -3.06715 0
M  V30 1002 H 96.2184 0.0959353 -4.607 0
M  V30 1003 H 94.5334 0.244789 -4.1568 0
M  V30 1004 H 97.1304 3.01394 -4.41663 0
M  V30 1005 H 97.4734 3.15984 -2.71035 0
M  V30 1006 H 98.0064 1.70813 -3.5926 0
M  V30 1007 H 94.7454 0.933011 -6.48826 0
M  V30 1008 H 94.2654 2.34579 -5.52026 0
M  V30 1009 H 95.9444 2.18095 -6.09133 0
M  V30 1010 N 96.0765 1.50051 0.48192 0
M  V30 1011 C 97.0395 1.67584 1.5636 0
M  V30 1012 C 98.0395 0.546894 1.51214 0
M  V30 1013 O 99.2295 0.813725 1.54026 0
M  V30 1014 C 96.3615 1.691 2.96003 0
M  V30 1015 H 97.5545 2.64078 1.42136 0
M  V30 1016 H 95.1075 1.39369 0.707533 0
M  V30 1017 H 95.8425 0.742589 3.15684 0
M  V30 1018 H 95.6275 2.51105 3.01146 0
M  V30 1019 H 97.1175 1.84656 3.74556 0
M  V30 1020 N 97.5546 -0.734337 1.39446 0
M  V30 1021 C 98.5176 -1.83004 1.37994 0
M  V30 1022 C 99.5176 -1.58397 0.276938 0
M  V30 1023 O 100.708 -1.65785 0.534875 0
M  V30 1024 C 97.8396 -3.20802 1.1532 0
M  V30 1025 H 99.0326 -1.85694 2.35494 0
M  V30 1026 H 96.5856 -0.938059 1.25021 0
M  V30 1027 H 97.3206 -3.23772 0.185036 0
M  V30 1028 H 97.1056 -3.4006 1.95197 0
M  V30 1029 H 98.5956 -4.00862 1.17046 0
M  V30 1030 N 99.0327 -1.24633 -0.964593 0
M  V30 1031 C 100.281 -1.08573 -1.70459 0
M  V30 1032 C 100.602 0.375655 -1.91347 0
M  V30 1033 O 99.8717 1.26779 -1.49345 0
M  V30 1034 H 98.4517 -0.398784 -0.631649 0
M  V30 1035 H 101.114 -1.56601 -1.16026 0
M  V30 1036 H 100.21 -1.58623 -2.68785 0
M  V30 1037 N 100.511 1.16574 -1.06058 0
M  V30 1038 C 101.788 1.83048 -0.689416 0
M  V30 1039 C 102.168 1.94122 0.829443 0
M  V30 1040 O 101.516 1.48249 1.7388 0
M  V30 1041 C 101.726 3.20186 -1.38859 0
M  V30 1042 C 103.074 3.95989 -1.53226 0
M  V30 1043 O 104.098 3.29696 -1.3483 0
M  V30 1044 O 102.957 5.14813 -1.83384 0
M  V30 1045 H 100.051 0.790258 -0.243764 0
M  V30 1046 H 102.597 1.23797 -1.16071 0
M  V30 1047 H 101.369 3.07146 -2.4244 0
M  V30 1048 H 100.992 3.87112 -0.907216 0
M  V30 1049 N 101.989 0.842826 1.3317 0
M  V30 1050 C 103.236 0.440447 1.97652 0
M  V30 1051 C 103.564 -1.00123 1.6675 0
M  V30 1052 O 102.819 -1.7155 0.941761 0
M  V30 1053 C 103.118 0.612607 3.52111 0
M  V30 1054 C 102.784 2.02297 4.02972 0
M  V30 1055 C 101.446 2.40874 4.16573 0
M  V30 1056 C 103.798 2.94402 4.30089 0
M  V30 1057 C 101.126 3.70852 4.54627 0
M  V30 1058 C 103.478 4.23865 4.69597 0
M  V30 1059 C 102.142 4.62392 4.81404 0
M  V30 1060 H 101.412 0.161171 0.72326 0
M  V30 1061 H 104.059 1.07061 1.58777 0
M  V30 1062 H 102.364 -0.100849 3.9167 0
M  V30 1063 H 104.061 0.2815 4.00011 0
M  V30 1064 H 100.651 1.71338 3.92863 0
M  V30 1065 H 104.835 2.65835 4.19101 0
M  V30 1066 H 100.091 4.00501 4.61962 0
M  V30 1067 H 104.265 4.95306 4.89536 0
M  V30 1068 H 101.892 5.63154 5.10648 0
M  V30 1069 N 103.467 -1.45747 0.599634 0
M  V30 1070 C 104.716 -2.01502 0.0893511 0
M  V30 1071 C 105.029 -1.4748 -1.28488 0
M  V30 1072 O 106.235 -1.95161 -1.88745 0
M  V30 1073 C 104.691 -3.59735 0.109082 0
M  V30 1074 C 104.299 -4.22754 1.48267 0
M  V30 1075 C 106.043 -4.23085 -0.346374 0
M  V30 1076 C 103.95 -5.73115 1.45921 0
M  V30 1077 H 102.88 -0.753417 0.0296347 0
M  V30 1078 H 105.531 -1.67303 0.753788 0
M  V30 1079 H 103.913 -3.91087 -0.621854 0
M  V30 1080 H 105.087 -4.02987 2.23468 0
M  V30 1081 H 103.402 -3.71567 1.87955 0
M  V30 1082 H 105.999 -5.33327 -0.38298 0
M  V30 1083 H 106.342 -3.93201 -1.36743 0
M  V30 1084 H 106.875 -3.9642 0.331038 0
M  V30 1085 H 103.614 -6.07685 2.45762 0
M  V30 1086 H 103.134 -5.95097 0.749665 0
M  V30 1087 H 104.813 -6.3616 1.17941 0
M  V30 1088 N 104.945 -0.338344 -1.53925 0
M  V30 1089 C 105.855 0.529421 -2.28548 0
M  V30 1090 C 106.871 1.11645 -1.3346 0
M  V30 1091 O 108.047 1.13325 -1.66492 0
M  V30 1092 C 105.112 1.66713 -3.03987 0
M  V30 1093 C 104.173 1.11041 -4.14691 0
M  V30 1094 C 103.406 2.19389 -4.86522 0
M  V30 1095 O 103.629 3.40013 -4.57982 0
M  V30 1096 O 102.563 1.83976 -5.73094 0
M  V30 1097 H 106.389 -0.0770399 -3.03602 0
M  V30 1098 H 103.974 -0.103555 -1.49041 0
M  V30 1099 H 105.856 2.32918 -3.5118 0
M  V30 1100 H 104.531 2.25949 -2.31794 0
M  V30 1101 H 103.438 0.413024 -3.71813 0
M  V30 1102 H 104.771 0.562975 -4.8897 0
M  V30 1103 N 106.423 1.57458 -0.0668435 0
M  V30 1104 C 107.373 2.0896 0.912119 0
M  V30 1105 C 108.357 0.998186 1.26195 0
M  V30 1106 O 109.549 1.26133 1.24175 0
M  V30 1107 C 106.678 2.6508 2.18145 0
M  V30 1108 C 105.764 3.81218 1.85832 0
M  V30 1109 N 106.155 4.90378 1.23948 0
M  V30 1110 C 104.453 3.9042 2.15612 0
M  V30 1111 C 105.154 5.71279 1.09616 0
M  V30 1112 N 104.13 5.19389 1.60423 0
M  V30 1113 H 107.932 2.90749 0.42924 0
M  V30 1114 H 105.446 1.6182 0.137184 0
M  V30 1115 H 107.443 3.0029 2.89192 0
M  V30 1116 H 106.103 1.84736 2.67025 0
M  V30 1117 H 107.114 5.09847 0.909731 0
M  V30 1118 H 103.791 3.21043 2.66903 0
M  V30 1119 H 105.181 6.69085 0.614425 0
M  V30 1120 N 107.901 -0.206675 1.56239 0
M  V30 1121 C 108.864 -1.23976 1.92776 0
M  V30 1122 C 109.864 -1.39041 0.807729 0
M  V30 1123 O 111.054 -1.37051 1.0753 0
M  V30 1124 C 108.186 -2.61112 2.19165 0
M  V30 1125 H 109.379 -0.927764 2.85189 0
M  V30 1126 H 106.932 -0.447718 1.4975 0
M  V30 1127 H 107.667 -2.97386 1.29352 0
M  V30 1128 H 107.452 -2.51552 3.00772 0
M  V30 1129 H 108.942 -3.35633 2.48476 0
M  V30 1130 N 109.379 -1.50304 -0.473955 0
M  V30 1131 C 110.289 -1.7174 -1.5982 0
M  V30 1132 C 111.305 -0.600457 -1.63311 0
M  V30 1133 O 112.481 -0.878441 -1.81233 0
M  V30 1134 C 109.546 -1.80427 -2.96052 0
M  V30 1135 C 108.607 -3.04148 -3.02972 0
M  V30 1136 C 107.84 -3.12411 -4.32706 0
M  V30 1137 O 108.063 -2.27542 -5.23049 0
M  V30 1138 O 106.997 -4.05113 -4.45159 0
M  V30 1139 H 110.823 -2.67035 -1.44657 0
M  V30 1140 H 108.408 -1.34366 -0.653148 0
M  V30 1141 H 110.29 -1.88338 -3.7697 0
M  V30 1142 H 108.965 -0.883156 -3.11419 0
M  V30 1143 H 107.872 -3.0174 -2.21142 0
M  V30 1144 H 109.205 -3.95829 -2.92541 0
M  V30 1145 N 110.857 0.726932 -1.39834 0
M  V30 1146 C 112.104 1.48664 -1.37496 0
M  V30 1147 C 112.432 1.94482 0.0264678 0
M  V30 1148 O 111.687 1.67692 1.00886 0
M  V30 1149 C 111.986 2.73495 -2.30077 0
M  V30 1150 C 111.652 2.46502 -3.77555 0
M  V30 1151 C 110.314 2.3885 -4.17737 0
M  V30 1152 C 112.666 2.23604 -4.70798 0
M  V30 1153 C 109.994 2.06352 -5.49214 0
M  V30 1154 C 112.346 1.92622 -6.02561 0
M  V30 1155 C 111.01 1.83444 -6.41798 0
M  V30 1156 H 110.28 0.544001 -0.503135 0
M  V30 1157 H 112.927 0.833657 -1.72402 0
M  V30 1158 H 111.232 3.43575 -1.88317 0
M  V30 1159 H 112.929 3.31549 -2.25558 0
M  V30 1160 H 109.519 2.5334 -3.45712 0
M  V30 1161 H 113.703 2.28479 -4.40581 0
M  V30 1162 H 108.959 1.97776 -5.78528 0
M  V30 1163 H 113.133 1.73914 -6.74334 0
M  V30 1164 H 110.76 1.58029 -7.43593 0
M  V30 1165 N 112.336 1.25143 0.95797 0
M  V30 1166 C 113.561 1.12521 1.74223 0
M  V30 1167 C 113.986 -0.317402 1.85403 0
M  V30 1168 O 113.344 -1.2299 1.33204 0
M  V30 1169 C 113.392 1.78062 3.1357 0
M  V30 1170 O 112.496 1.058 3.98598 0
M  V30 1171 H 111.837 0.39304 0.535178 0
M  V30 1172 H 114.367 1.65641 1.201 0
M  V30 1173 H 114.377 1.84213 3.64046 0
M  V30 1174 H 113.052 2.83021 3.04749 0
M  V30 1175 H 111.629 1.07506 3.57067 0
M  V30 1176 N 113.814 -1.1601 1.06675 0
M  V30 1177 C 115.062 -1.86264 0.784229 0
M  V30 1178 C 115.383 -1.82328 -0.691488 0
M  V30 1179 O 114.653 -1.25947 -1.50047 0
M  V30 1180 H 113.233 -0.689621 0.28711 0
M  V30 1181 H 115.895 -1.40664 1.34906 0
M  V30 1182 H 114.991 -2.91595 1.11259 0
M  V30 1183 N 115.292 -0.849877 -1.32721 0
M  V30 1184 C 116.24 -0.279745 -2.30912 0
M  V30 1185 C 117.234 0.594278 -1.58634 0
M  V30 1186 O 118.44 0.482613 -1.73409 0
M  V30 1187 H 114.815 -0.0717521 -0.748569 0
M  V30 1188 H 116.786 -1.12222 -2.76494 0
M  V30 1189 C 115.535 0.521108 -3.43773 0
M  V30 1190 H 114.858 -0.142141 -3.99547 0
M  V30 1191 H 116.298 0.885693 -4.14646 0
M  V30 1192 C 114.757 1.70442 -2.90605 0
M  V30 1193 O 115.287 2.8034 -2.87702 0
M  V30 1194 N 113.493 1.52991 -2.47067 0
M  V30 1195 H 113.04 0.635914 -2.49628 0
M  V30 1196 H 112.998 2.32311 -2.11847 0
M  V30 1197 N 116.77 1.45427 -0.607355 0
M  V30 1198 C 117.7 2.3329 0.0989352 0
M  V30 1199 C 118.681 1.46816 0.859007 0
M  V30 1200 O 119.866 1.75588 0.829604 0
M  V30 1201 C 116.996 3.29518 1.09705 0
M  V30 1202 C 115.95 4.25626 0.450206 0
M  V30 1203 C 115.276 5.11542 1.55655 0
M  V30 1204 C 116.576 5.18505 -0.628455 0
M  V30 1205 H 118.27 2.92595 -0.634716 0
M  V30 1206 H 115.816 1.40696 -0.306681 0
M  V30 1207 H 117.769 3.89855 1.59971 0
M  V30 1208 H 116.493 2.68372 1.86129 0
M  V30 1209 H 115.152 3.66586 -0.0315886 0
M  V30 1210 H 114.8 4.46765 2.31107 0
M  V30 1211 H 114.5 5.76647 1.12925 0
M  V30 1212 H 116.024 5.74748 2.06148 0
M  V30 1213 H 117.438 5.72916 -0.209877 0
M  V30 1214 H 115.835 5.92085 -0.977489 0
M  V30 1215 H 116.905 4.60948 -1.50514 0
M  V30 1216 N 118.248 0.346503 1.53744 0
M  V30 1217 C 119.478 -0.250047 2.05081 0
M  V30 1218 C 119.886 -1.44529 1.22098 0
M  V30 1219 O 119.229 -1.81992 0.249917 0
M  V30 1220 C 119.291 -0.725934 3.52094 0
M  V30 1221 C 118.955 0.350053 4.55657 0
M  V30 1222 C 119.952 1.19372 5.0601 0
M  V30 1223 C 117.637 0.504827 4.99757 0
M  V30 1224 C 119.631 2.17768 5.99046 0
M  V30 1225 C 117.318 1.49218 5.92602 0
M  V30 1226 C 118.316 2.32706 6.42135 0
M  V30 1227 O 118.004 3.2976 7.33153 0
M  V30 1228 H 117.736 -0.0515469 0.674032 0
M  V30 1229 H 120.29 0.497559 1.99282 0
M  V30 1230 H 118.52 -1.52483 3.55367 0
M  V30 1231 H 120.209 -1.24336 3.86388 0
M  V30 1232 H 120.975 1.08525 4.72702 0
M  V30 1233 H 116.854 -0.135178 4.60802 0
M  V30 1234 H 120.398 2.82971 6.37631 0
M  V30 1235 H 116.295 1.6012 6.25325 0
M  V30 1236 H 117.063 3.25265 7.51096 0
M  V30 1237 N 119.726 -1.57421 0.075193 0
M  V30 1238 C 120.974 -1.93236 -0.591974 0
M  V30 1239 C 121.295 -0.956241 -1.69944 0
M  V30 1240 O 120.565 -0.00494792 -1.95899 0
M  V30 1241 H 119.145 -0.713355 -0.22166 0
M  V30 1242 H 121.807 -1.9444 0.133848 0
M  V30 1243 H 120.903 -2.95131 -1.01509 0
M  V30 1244 N 121.204 0.198386 -1.56346 0
M  V30 1245 C 122.432 0.935572 -1.84539 0
M  V30 1246 C 122.847 1.76989 -0.657281 0
M  V30 1247 O 122.204 1.78626 0.374043 0
M  V30 1248 C 122.255 1.8344 -3.11499 0
M  V30 1249 O 121.976 1.03377 -4.25728 0
M  V30 1250 C 123.477 2.68355 -3.52846 0
M  V30 1251 H 120.697 0.273126 -0.612897 0
M  V30 1252 H 123.241 0.20663 -2.03453 0
M  V30 1253 H 121.396 2.51701 -2.94492 0
M  V30 1254 H 121.81 1.64599 -4.98003 0
M  V30 1255 H 123.284 3.27085 -4.44657 0
M  V30 1256 H 123.761 3.41901 -2.75681 0
M  V30 1257 H 124.367 2.05471 -3.72373 0
M  V30 1258 N 122.682 1.50554 0.465978 0
M  V30 1259 C 123.907 1.65838 1.24549 0
M  V30 1260 C 124.332 0.343486 1.84937 0
M  V30 1261 O 123.69 -0.69324 1.67523 0
M  V30 1262 C 123.738 2.75533 2.32624 0
M  V30 1263 O 122.842 2.37142 3.37398 0
M  V30 1264 H 122.183 0.553893 0.366194 0
M  V30 1265 H 124.713 1.96959 0.553927 0
M  V30 1266 H 124.723 2.98763 2.77857 0
M  V30 1267 H 123.398 3.70962 1.88043 0
M  V30 1268 H 121.975 2.24377 2.97841 0
M  V30 1269 N 124.16 -0.719506 1.40217 0
M  V30 1270 C 125.107 -1.83359 1.40172 0
M  V30 1271 C 126.077 -1.64065 0.259206 0
M  V30 1272 O 127.262 -1.85254 0.456677 0
M  V30 1273 C 124.402 -3.2103 1.26624 0
M  V30 1274 C 123.515 -3.51923 2.50548 0
M  V30 1275 C 122.65 -4.79079 2.29471 0
M  V30 1276 C 121.689 -5.02863 3.48992 0
M  V30 1277 N 120.826 -6.2123 3.27135 0
M  V30 1278 H 125.666 -1.82733 2.35399 0
M  V30 1279 H 123.203 -0.892688 1.16917 0
M  V30 1280 H 125.161 -4.00524 1.16776 0
M  V30 1281 H 123.791 -3.20895 0.350176 0
M  V30 1282 H 122.843 -2.67014 2.70939 0
M  V30 1283 H 124.155 -3.6541 3.39525 0
M  V30 1284 H 123.309 -5.66582 2.16955 0
M  V30 1285 H 122.048 -4.67794 1.37913 0
M  V30 1286 H 121.053 -4.13816 3.6199 0
M  V30 1287 H 122.278 -5.16023 4.41472 0
M  V30 1288 H 120.224 -6.11204 2.38256 0
M  V30 1289 H 120.141 -6.35375 4.09675 0
M  V30 1290 H 121.409 -7.11532 3.18344 0
M  V30 1291 N 125.638 -1.25649 -0.95132 0
M  V30 1292 C 126.884 -1.10757 -1.69884 0
M  V30 1293 C 127.217 0.350061 -1.91019 0
M  V30 1294 O 126.492 1.25783 -1.48354 0
M  V30 1295 C 126.775 -1.86606 -3.07978 0
M  V30 1296 C 126.628 -3.40217 -2.94232 0
M  V30 1297 C 127.947 -1.65182 -4.07925 0
M  V30 1298 H 125.066 -0.40374 -0.616574 0
M  V30 1299 H 127.708 -1.54521 -1.10558 0
M  V30 1300 H 125.858 -1.49409 -3.58621 0
M  V30 1301 H 127.53 -3.87108 -2.50889 0
M  V30 1302 H 125.773 -3.67759 -2.30078 0
M  V30 1303 H 126.444 -3.88505 -3.92133 0
M  V30 1304 H 128.92 -1.9757 -3.66204 0
M  V30 1305 H 127.796 -2.20683 -5.02583 0
M  V30 1306 H 128.057 -0.593933 -4.38092 0
M  V30 1307 N 127.117 1.15442 -1.07289 0
M  V30 1308 C 128.08 2.18358 -0.696591 0
M  V30 1309 C 129.08 1.58637 0.262837 0
M  V30 1310 O 130.27 1.74145 0.0438809 0
M  V30 1311 C 127.402 3.4089 -0.0266151 0
M  V30 1312 H 128.595 2.53162 -1.60776 0
M  V30 1313 H 126.148 1.29893 -0.869342 0
M  V30 1314 H 126.883 3.11653 0.896822 0
M  V30 1315 H 126.668 3.85495 -0.716657 0
M  V30 1316 H 128.158 4.17009 0.222028 0
M  V30 1317 N 128.595 0.856903 1.32268 0
M  V30 1318 C 129.841 0.462069 1.97466 0
M  V30 1319 C 130.174 -0.980298 1.67642 0
M  V30 1320 O 129.449 -1.68824 0.965858 0
M  V30 1321 C 129.732 0.704336 3.53145 0
M  V30 1322 C 129.585 2.19529 3.9259 0
M  V30 1323 C 130.904 0.1622 4.39801 0
M  V30 1324 H 128.023 0.169357 0.717278 0
M  V30 1325 H 130.665 1.07574 1.56614 0
M  V30 1326 H 128.815 0.181999 3.88073 0
M  V30 1327 H 130.487 2.78387 3.67829 0
M  V30 1328 H 128.73 2.67292 3.41668 0
M  V30 1329 H 129.401 2.31549 5.01088 0
M  V30 1330 H 131.877 0.608905 4.11621 0
M  V30 1331 H 130.753 0.361265 5.4771 0
M  V30 1332 H 131.014 -0.935158 4.32096 0
M  V30 1333 N 130.073 -1.45103 0.615059 0
M  V30 1334 C 131.005 -2.28786 -0.13762 0
M  V30 1335 C 132.018 -1.40376 -0.824525 0
M  V30 1336 O 133.207 -1.64681 -0.688662 0
M  V30 1337 C 130.307 -3.16322 -1.21628 0
M  V30 1338 C 129.48 -4.33054 -0.615039 0
M  V30 1339 C 128.539 -5.01743 -1.58556 0
M  V30 1340 O 127.565 -5.58293 -1.10895 0
M  V30 1341 N 128.767 -5.01714 -2.91998 0
M  V30 1342 H 131.532 -2.94025 0.580483 0
M  V30 1343 H 129.093 -1.55373 0.45507 0
M  V30 1344 H 131.085 -3.59139 -1.86552 0
M  V30 1345 H 129.655 -2.52943 -1.83681 0
M  V30 1346 H 128.875 -3.93627 0.21245 0
M  V30 1347 H 130.163 -5.08431 -0.193704 0
M  V30 1348 H 129.561 -4.57075 -3.33316 0
M  V30 1349 H 128.118 -5.48371 -3.52325 0
M  V30 1350 N 131.551 -0.354651 -1.53558 0
M  V30 1351 C 132.514 0.484566 -2.24019 0
M  V30 1352 C 133.514 1.01861 -1.24422 0
M  V30 1353 O 134.704 0.906097 -1.4878 0
M  V30 1354 C 131.836 1.67615 -2.96847 0
M  V30 1355 H 133.029 -0.131843 -2.9961 0
M  V30 1356 H 130.582 -0.106165 -1.55939 0
M  V30 1357 H 131.317 2.33095 -2.25471 0
M  V30 1358 H 131.102 1.30029 -3.69912 0
M  V30 1359 H 132.592 2.27114 -3.50441 0
M  V30 1360 N 133.029 1.57378 -0.0835403 0
M  V30 1361 C 134.275 1.94217 0.583733 0
M  V30 1362 C 134.608 0.964653 1.68547 0
M  V30 1363 O 133.883 -0.00422258 1.945 0
M  V30 1364 C 134.166 3.41253 1.14972 0
M  V30 1365 C 134.019 4.49768 0.0538277 0
M  V30 1366 C 135.338 3.89352 2.05166 0
M  V30 1367 H 132.457 0.706233 0.210724 0
M  V30 1368 H 135.099 1.89392 -0.1519 0
M  V30 1369 H 133.249 3.45496 1.77665 0
M  V30 1370 H 134.921 4.57641 -0.579851 0
M  V30 1371 H 133.164 4.29432 -0.614068 0
M  V30 1372 H 133.835 5.49817 0.490452 0
M  V30 1373 H 136.311 3.87189 1.52393 0
M  V30 1374 H 135.187 4.92822 2.41698 0
M  V30 1375 H 135.448 3.27973 2.96456 0
M  V30 1376 N 134.507 -0.190092 1.56449 0
M  V30 1377 C 135.439 -1.25973 1.91477 0
M  V30 1378 C 136.452 -1.41452 0.805931 0
M  V30 1379 O 137.641 -1.41789 1.08435 0
M  V30 1380 C 134.741 -2.63117 2.13594 0
M  V30 1381 C 133.914 -2.69182 3.4476 0
M  V30 1382 C 132.973 -3.87557 3.5593 0
M  V30 1383 O 131.999 -3.74427 4.28711 0
M  V30 1384 N 133.201 -5.03224 2.89388 0
M  V30 1385 H 135.966 -0.962394 2.83828 0
M  V30 1386 H 133.527 -0.379981 1.57378 0
M  V30 1387 H 135.519 -3.40742 2.1835 0
M  V30 1388 H 134.089 -2.85319 1.27719 0
M  V30 1389 H 133.309 -1.77793 3.51828 0
M  V30 1390 H 134.597 -2.70229 4.31107 0
M  V30 1391 H 133.995 -5.16791 2.30094 0
M  V30 1392 H 132.552 -5.78778 2.99764 0
M  V30 1393 N 135.985 -1.50799 -0.457987 0
M  V30 1394 C 136.948 -1.7005 -1.53674 0
M  V30 1395 C 137.948 -0.570881 -1.50325 0
M  V30 1396 O 139.138 -0.838126 -1.52712 0
M  V30 1397 C 136.27 -1.73788 -2.93276 0
M  V30 1398 H 137.463 -2.66306 -1.37917 0
M  V30 1399 H 135.016 -1.40477 -0.685271 0
M  V30 1400 H 135.751 -0.792717 -3.14462 0
M  V30 1401 H 135.536 -2.55864 -2.97113 0
M  V30 1402 H 137.026 -1.90591 -3.71571 0
M  V30 1403 N 137.463 0.71206 -1.40597 0
M  V30 1404 C 138.396 1.83582 -1.35546 0
M  V30 1405 C 139.374 1.61032 -0.225284 0
M  V30 1406 O 140.558 1.83998 -0.409519 0
M  V30 1407 C 137.685 3.19983 -1.11034 0
M  V30 1408 C 136.731 3.61355 -2.2655 0
M  V30 1409 S 137.564 3.68062 -3.88961 0
M  V30 1410 C 138.72 5.07216 -3.66719 0
M  V30 1411 H 138.953 1.87586 -2.30648 0
M  V30 1412 H 136.486 0.879182 -1.26924 0
M  V30 1413 H 138.444 3.98734 -0.975761 0
M  V30 1414 H 137.105 3.13608 -0.175798 0
M  V30 1415 H 136.298 4.60403 -2.0505 0
M  V30 1416 H 135.9 2.8987 -2.36329 0
M  V30 1417 H 138.192 5.94238 -3.25404 0
M  V30 1418 H 139.135 5.33753 -4.6531 0
M  V30 1419 H 139.543 4.77976 -3.00332 0
M  V30 1420 N 138.941 1.26152 0.944643 0
M  V30 1421 C 139.889 1.07215 2.06417 0
M  V30 1422 C 140.883 9.2007e-05 1.694 0
M  V30 1423 O 142.089 0.1565 1.79318 0
M  V30 1424 H 138.464 0.329837 0.675805 0
M  V30 1425 H 140.435 2.02099 2.19541 0
M  V30 1426 C 139.184 0.718197 3.40202 0
M  V30 1427 H 138.507 1.53497 3.69159 0
M  V30 1428 H 139.947 0.625459 4.19361 0
M  V30 1429 C 138.406 -0.576435 3.31932 0
M  V30 1430 O 138.936 -1.61574 3.67773 0
M  V30 1431 N 137.142 -0.565781 2.85039 0
M  V30 1432 H 136.689 0.280367 2.5607 0
M  V30 1433 H 136.647 -1.43213 2.79888 0
M  V30 1434 N 140.419 -1.14872 1.07899 0
M  V30 1435 C 141.835 -1.37776 0.805606 0
M  V30 1436 C 142.035 -1.92743 -0.587555 0
M  V30 1437 O 141.091 -2.13678 -1.34528 0
M  V30 1438 C 142.404 -2.34361 1.88402 0
M  V30 1439 C 143.952 -2.48012 1.90942 0
M  V30 1440 C 144.427 -3.47893 2.97883 0
M  V30 1441 N 145.918 -3.55433 2.97021 0
M  V30 1442 C 146.653 -4.32553 3.76412 0
M  V30 1443 N 146.149 -5.12959 4.65666 0
M  V30 1444 N 147.942 -4.27697 3.64735 0
M  V30 1445 H 140.093 -0.775365 1.97742 0
M  V30 1446 H 142.356 -0.403521 0.857831 0
M  V30 1447 H 142.062 -2.01098 2.88535 0
M  V30 1448 H 141.936 -3.34206 1.74889 0
M  V30 1449 H 144.323 -2.8057 0.914579 0
M  V30 1450 H 144.404 -1.48147 2.08534 0
M  V30 1451 H 144.048 -3.16069 3.97571 0
M  V30 1452 H 143.978 -4.47527 2.77538 0
M  V30 1453 H 146.469 -2.98048 2.32326 0
M  V30 1454 H 146.782 -5.69065 5.22862 0
M  V30 1455 H 145.127 -5.12245 4.69712 0
M  V30 1456 H 148.318 -3.63949 2.94378 0
M  V30 1457 H 148.491 -4.8755 4.26848 0
M  V30 1458 N 141.898 -0.863906 -1.31812 0
M  V30 1459 C 143.147 -0.46801 -1.96195 0
M  V30 1460 C 143.46 0.983474 -1.69077 0
M  V30 1461 O 144.666 1.48523 -2.27273 0
M  V30 1462 C 143.122 -0.785995 -3.51212 0
M  V30 1463 C 142.73 -2.25383 -3.87178 0
M  V30 1464 C 144.474 -0.458274 -4.22019 0
M  V30 1465 C 142.381 -2.51455 -5.3528 0
M  V30 1466 H 141.311 -0.171283 -0.734287 0
M  V30 1467 H 143.962 -1.05597 -1.50072 0
M  V30 1468 H 142.344 -0.127359 -3.95795 0
M  V30 1469 H 143.518 -2.95502 -3.53575 0
M  V30 1470 H 141.833 -2.54698 -3.2942 0
M  V30 1471 H 144.43 -0.630369 -5.30971 0
M  V30 1472 H 144.773 0.600834 -4.11941 0
M  V30 1473 H 145.306 -1.07319 -3.8305 0
M  V30 1474 H 142.045 -3.56025 -5.50387 0
M  V30 1475 H 141.565 -1.85923 -5.70257 0
M  V30 1476 H 143.244 -2.35874 -6.02472 0
M  V30 1477 N 143.376 1.44774 -0.622745 0
M  V30 1478 C 144.616 2.04004 -0.127102 0
M  V30 1479 C 144.98 1.47862 1.22478 0
M  V30 1480 O 146.181 1.98541 1.81204 0
M  V30 1481 C 144.452 3.57247 -0.104429 0
M  V30 1482 S 146.011 4.37574 0.327814 0
M  V30 1483 H 142.829 0.708713 -0.0569776 0
M  V30 1484 H 145.431 1.77275 -0.824253 0
M  V30 1485 H 144.135 3.95616 -1.09159 0
M  V30 1486 H 143.666 3.88575 0.614236 0
M  V30 1487 H 145.681 4.70575 1.57395 0
M  V30 1488 N 144.854 0.36279 1.53368 0
M  V30 1489 C 146.1 -0.228113 2.01513 0
M  V30 1490 C 146.433 -1.48648 1.2497 0
M  V30 1491 O 145.708 -1.91459 0.342616 0
M  V30 1492 C 145.991 -0.522884 3.56284 0
M  V30 1493 C 145.844 0.74892 4.43521 0
M  V30 1494 C 147.163 -1.32461 4.19693 0
M  V30 1495 H 144.282 -0.0814343 0.732487 0
M  V30 1496 H 146.924 0.48713 1.83649 0
M  V30 1497 H 145.074 -1.1322 3.71636 0
M  V30 1498 H 146.746 1.38648 4.39971 0
M  V30 1499 H 144.989 1.36986 4.11603 0
M  V30 1500 H 145.66 0.497667 5.49752 0
M  V30 1501 H 148.136 -0.809203 4.08156 0
M  V30 1502 H 147.012 -1.49961 5.28018 0
M  V30 1503 H 147.273 -2.33232 3.75573 0
M  V30 1504 N 146.332 -1.57332 0.0918853 0
M  V30 1505 C 147.262 -2.16872 -0.865371 0
M  V30 1506 C 148.243 -1.10118 -1.29646 0
M  V30 1507 O 149.428 -1.38242 -1.36392 0
M  V30 1508 C 146.558 -2.74649 -2.12569 0
M  V30 1509 C 145.512 -3.86747 -1.83333 0
M  V30 1510 C 144.838 -4.31212 -3.16166 0
M  V30 1511 C 146.138 -5.10089 -1.1228 0
M  V30 1512 H 147.832 -2.97114 -0.369307 0
M  V30 1513 H 145.378 -1.42918 -0.176194 0
M  V30 1514 H 147.331 -3.14952 -2.7997 0
M  V30 1515 H 146.055 -1.91657 -2.64452 0
M  V30 1516 H 144.714 -3.46978 -1.18331 0
M  V30 1517 H 144.362 -3.45115 -3.6593 0
M  V30 1518 H 144.062 -5.06788 -2.97388 0
M  V30 1519 H 145.586 -4.74146 -3.84731 0
M  V30 1520 H 147 -5.47582 -1.69785 0
M  V30 1521 H 145.397 -5.91073 -1.03693 0
M  V30 1522 H 146.467 -4.84786 -0.105041 0
M  V30 1523 N 147.81 0.181792 -1.56548 0
M  V30 1524 C 149.087 0.926765 -1.72251 0
M  V30 1525 C 149.467 2.00831 -0.650386 0
M  V30 1526 O 148.815 2.26008 0.336521 0
M  V30 1527 C 149.025 1.50106 -3.1507 0
M  V30 1528 C 150.373 1.97805 -3.75711 0
M  V30 1529 O 151.397 1.59922 -3.18282 0
M  V30 1530 O 150.256 2.67555 -4.76525 0
M  V30 1531 H 147.35 0.435506 -0.703039 0
M  V30 1532 H 149.896 0.170443 -1.68842 0
M  V30 1533 H 148.668 0.72212 -3.84579 0
M  V30 1534 H 148.291 2.32186 -3.22763 0
M  V30 1535 N 149.288 1.51039 0.449983 0
M  V30 1536 C 150.534 1.63322 1.20223 0
M  V30 1537 C 150.867 0.34241 1.91158 0
M  V30 1538 O 150.142 -0.657344 1.83055 0
M  V30 1539 C 150.425 2.82801 2.22925 0
M  V30 1540 C 150.278 4.21823 1.56157 0
M  V30 1541 C 151.597 2.97807 3.24035 0
M  V30 1542 H 148.716 0.594407 0.435718 0
M  V30 1543 H 151.358 1.83489 0.493136 0
M  V30 1544 H 149.508 2.65738 2.834 0
M  V30 1545 H 151.18 4.50526 0.991162 0
M  V30 1546 H 149.423 4.25105 0.864172 0
M  V30 1547 H 150.094 5.01391 2.30891 0
M  V30 1548 H 152.57 3.13497 2.73603 0
M  V30 1549 H 151.446 3.82992 3.93202 0
M  V30 1550 H 151.707 2.09328 3.89402 0
M  V30 1551 N 150.766 -0.704594 1.40972 0
M  V30 1552 C 152.043 -1.45847 1.30338 0
M  V30 1553 C 152.423 -2.10973 -0.0732344 0
M  V30 1554 O 151.771 -2.00997 -1.08685 0
M  V30 1555 C 151.981 -2.48525 2.45023 0
M  V30 1556 C 153.329 -3.1404 2.8577 0
M  V30 1557 O 154.353 -2.58848 2.44696 0
M  V30 1558 O 153.212 -4.13981 3.56766 0
M  V30 1559 H 150.306 -0.649092 0.512454 0
M  V30 1560 H 152.852 -0.735836 1.52917 0
M  V30 1561 H 151.624 -1.98994 3.36923 0
M  V30 1562 H 151.247 -3.2831 2.24272 0
M  V30 1563 N 152.244 -1.26651 -0.937939 0
M  V30 1564 C 153.174 -1.10993 -2.05433 0
M  V30 1565 C 154.155 -0.0142161 -1.70094 0
M  V30 1566 O 155.34 -0.186837 -1.93299 0
M  V30 1567 C 152.47 -0.745561 -3.39203 0
M  V30 1568 C 151.424 -1.79337 -3.88616 0
M  V30 1569 C 150.75 -1.28324 -5.19073 0
M  V30 1570 C 152.05 -3.19553 -4.13138 0
M  V30 1571 H 153.744 -2.0438 -2.1879 0
M  V30 1572 H 151.29 -0.984041 -1.05131 0
M  V30 1573 H 153.243 -0.622888 -4.16771 0
M  V30 1574 H 151.967 0.22401 -3.25831 0
M  V30 1575 H 150.626 -1.90477 -3.13231 0
M  V30 1576 H 150.274 -0.303414 -5.02084 0
M  V30 1577 H 149.974 -1.98369 -5.53103 0
M  V30 1578 H 151.498 -1.1733 -5.99221 0
M  V30 1579 H 152.912 -3.11471 -4.81309 0
M  V30 1580 H 151.309 -3.87218 -4.58457 0
M  V30 1581 H 152.379 -3.65368 -3.18801 0
M  V30 1582 N 153.722 1.14298 -1.08507 0
M  V30 1583 C 154.654 2.1907 -0.673859 0
M  V30 1584 C 155.667 1.60381 0.279577 0
M  V30 1585 O 156.856 1.78374 0.0670754 0
M  V30 1586 C 153.956 3.38888 0.0290979 0
M  V30 1587 C 153.129 4.27103 -0.943494 0
M  V30 1588 C 152.188 5.25477 -0.275676 0
M  V30 1589 O 151.214 5.61709 -0.920401 0
M  V30 1590 N 152.416 5.7227 0.974013 0
M  V30 1591 H 155.181 2.54965 -1.57521 0
M  V30 1592 H 152.742 1.29528 -0.971287 0
M  V30 1593 H 154.734 4.01761 0.48683 0
M  V30 1594 H 153.304 3.01309 0.832555 0
M  V30 1595 H 152.524 3.61149 -1.58004 0
M  V30 1596 H 153.812 4.82905 -1.60251 0
M  V30 1597 H 153.21 5.44965 1.51755 0
M  V30 1598 H 151.767 6.37127 1.37522 0
M  V30 1599 N 155.201 0.870884 1.31352 0
M  V30 1600 C 156.449 0.48132 1.96285 0
M  V30 1601 C 156.77 -0.969813 1.69173 0
M  V30 1602 O 156.04 -1.67998 1.00764 0
M  V30 1603 H 154.62 0.175002 0.726212 0
M  V30 1604 H 157.282 1.11087 1.60143 0
M  V30 1605 H 156.378 0.639825 3.05471 0
M  V30 1606 N 156.679 -1.44442 0.630414 0
M  V30 1607 C 157.925 -2.02351 0.134816 0
M  V30 1608 C 158.258 -1.4947 -1.23986 0
M  V30 1609 O 157.533 -0.678475 -1.82283 0
M  V30 1610 C 157.816 -3.59898 0.120707 0
M  V30 1611 C 157.669 -4.23063 1.52767 0
M  V30 1612 C 158.988 -4.36585 -0.555127 0
M  V30 1613 H 156.107 -0.73527 0.0504646 0
M  V30 1614 H 158.749 -1.72022 0.806751 0
M  V30 1615 H 156.899 -3.85868 -0.451477 0
M  V30 1616 H 158.571 -4.08202 2.14869 0
M  V30 1617 H 156.814 -3.80586 2.08175 0
M  V30 1618 H 157.485 -5.32071 1.46984 0
M  V30 1619 H 159.961 -4.16044 -0.0685429 0
M  V30 1620 H 158.837 -5.46294 -0.534185 0
M  V30 1621 H 159.098 -4.11138 -1.62535 0
M  V30 1622 N 158.157 -0.370918 -1.53173 0
M  V30 1623 C 159.573 -0.0200818 -1.59587 0
M  V30 1624 C 159.773 1.46279 -1.38581 0
M  V30 1625 O 158.829 2.22506 -1.19363 0
M  V30 1626 C 160.142 -0.4808 -2.96831 0
M  V30 1627 C 161.69 -0.435477 -3.09956 0
M  V30 1628 C 162.165 -0.872092 -4.4962 0
M  V30 1629 N 163.656 -0.827364 -4.55751 0
M  V30 1630 C 164.391 -1.13683 -5.62018 0
M  V30 1631 N 163.887 -1.51584 -6.76014 0
M  V30 1632 N 165.68 -1.05927 -5.52029 0
M  V30 1633 H 157.831 -1.33652 -1.65079 0
M  V30 1634 H 160.094 -0.546634 -0.774529 0
M  V30 1635 H 159.8 -1.51577 -3.1736 0
M  V30 1636 H 159.674 0.129796 -3.76977 0
M  V30 1637 H 162.061 0.590371 -2.89134 0
M  V30 1638 H 162.142 -1.08164 -2.31806 0
M  V30 1639 H 161.786 -1.89608 -4.71181 0
M  V30 1640 H 161.716 -0.203127 -5.26208 0
M  V30 1641 H 164.207 -0.548216 -3.73902 0
M  V30 1642 H 164.52 -1.73609 -7.53047 0
M  V30 1643 H 162.865 -1.55454 -6.77391 0
M  V30 1644 H 166.056 -0.762321 -4.61851 0
M  V30 1645 H 166.229 -1.30378 -6.34749 0
M  V30 1646 N 159.635 1.57281 -0.100228 0
M  V30 1647 C 160.583 2.15542 0.874328 0
M  V30 1648 C 161.577 1.09962 1.28859 0
M  V30 1649 O 162.783 1.28298 1.26252 0
M  V30 1650 H 159.158 0.689567 0.300003 0
M  V30 1651 H 161.129 2.96241 0.35829 0
M  V30 1652 C 159.878 2.75454 2.1218 0
M  V30 1653 H 159.201 3.56384 1.81193 0
M  V30 1654 H 160.641 3.19781 2.78417 0
M  V30 1655 C 159.1 1.71602 2.89921 0
M  V30 1656 O 159.63 1.15804 3.84646 0
M  V30 1657 N 157.836 1.41975 2.53558 0
M  V30 1658 H 157.383 1.87539 1.76598 0
M  V30 1659 H 157.341 0.727274 3.05873 0
M  V30 1660 N 161.113 -0.173488 1.56642 0
M  V30 1661 C 162.362 -0.888758 1.81063 0
M  V30 1662 C 162.675 -1.83506 0.67712 0
M  V30 1663 O 163.881 -2.59254 0.806206 0
M  V30 1664 C 162.337 -1.63091 3.20826 0
M  V30 1665 C 161.945 -0.728357 4.4204 0
M  V30 1666 C 163.689 -2.33454 3.54541 0
M  V30 1667 C 161.596 -1.47062 5.72823 0
M  V30 1668 H 160.526 -0.335618 0.675186 0
M  V30 1669 H 163.177 -0.141712 1.82952 0
M  V30 1670 H 161.559 -2.42263 3.13248 0
M  V30 1671 H 162.733 0.0262449 4.60793 0
M  V30 1672 H 161.048 -0.134492 4.16183 0
M  V30 1673 H 163.645 -2.89578 4.49498 0
M  V30 1674 H 163.988 -3.08687 2.79317 0
M  V30 1675 H 164.521 -1.61227 3.63663 0
M  V30 1676 H 161.26 -0.760658 6.51072 0
M  V30 1677 H 160.78 -2.1986 5.58052 0
M  V30 1678 H 162.459 -2.01868 6.14702 0
M  V30 1679 N 162.591 -1.51276 -0.441967 0
M  V30 1680 C 163.538 -1.72256 -1.53612 0
M  V30 1681 C 164.508 -0.564164 -1.56225 0
M  V30 1682 O 165.693 -0.798074 -1.73307 0
M  V30 1683 C 162.833 -1.84932 -2.91366 0
M  V30 1684 C 161.946 -3.12459 -2.98317 0
M  V30 1685 C 161.081 -3.15758 -4.27166 0
M  V30 1686 C 160.12 -4.37619 -4.27967 0
M  V30 1687 N 159.257 -4.38493 -5.48333 0
M  V30 1688 H 164.097 -2.65654 -1.35026 0
M  V30 1689 H 161.634 -1.31662 -0.656009 0
M  V30 1690 H 163.592 -1.90263 -3.7129 0
M  V30 1691 H 162.222 -0.949461 -3.08521 0
M  V30 1692 H 161.274 -3.1646 -2.11086 0
M  V30 1693 H 162.586 -4.02382 -2.94771 0
M  V30 1694 H 161.74 -3.19979 -5.15459 0
M  V30 1695 H 160.479 -2.23715 -4.33362 0
M  V30 1696 H 159.484 -4.33579 -3.38067 0
M  V30 1697 H 160.709 -5.30921 -4.23438 0
M  V30 1698 H 158.655 -3.49318 -5.55259 0
M  V30 1699 H 158.572 -5.22219 -5.46647 0
M  V30 1700 H 159.84 -4.469 -6.38671 0
M  V30 1701 N 164.069 0.697108 -1.41344 0
M  V30 1702 C 165.032 1.79281 -1.42797 0
M  V30 1703 C 166.032 1.57607 -0.318837 0
M  V30 1704 O 167.222 1.64309 -0.578642 0
M  V30 1705 C 164.354 3.17632 -1.23785 0
M  V30 1706 H 165.547 1.79385 -2.40335 0
M  V30 1707 H 163.1 0.904582 -1.27464 0
M  V30 1708 H 163.835 3.23167 -0.270814 0
M  V30 1709 H 163.62 3.34765 -2.04144 0
M  V30 1710 H 165.11 3.97617 -1.27633 0
M  V30 1711 N 165.547 1.27147 0.931209 0
M  V30 1712 C 166.775 1.16082 1.71267 0
M  V30 1713 C 167.19 -0.282772 1.8667 0
M  V30 1714 O 166.547 -1.19283 1.38122 0
M  V30 1715 C 166.598 1.8358 3.11417 0
M  V30 1716 O 166.319 3.22299 2.96741 0
M  V30 1717 C 167.82 1.78597 4.05732 0
M  V30 1718 H 165.04 0.403758 0.535929 0
M  V30 1719 H 167.584 1.67953 1.16671 0
M  V30 1720 H 165.739 1.35623 3.62885 0
M  V30 1721 H 166.153 3.55851 3.85319 0
M  V30 1722 H 167.627 2.30444 5.01597 0
M  V30 1723 H 168.104 0.754564 4.3267 0
M  V30 1724 H 168.71 2.26152 3.60188 0
M  V30 1725 N 167.025 -1.13721 1.09112 0
M  V30 1726 C 168.302 -1.81155 0.737706 0
M  V30 1727 C 168.682 -1.96253 -0.777683 0
M  V30 1728 O 168.03 -1.52807 -1.69889 0
M  V30 1729 C 168.24 -3.16392 1.47299 0
M  V30 1730 C 169.588 -3.91787 1.63671 0
M  V30 1731 O 170.612 -3.26005 1.43524 0
M  V30 1732 O 169.471 -5.0977 1.96969 0
M  V30 1733 H 166.565 -0.783518 0.26463 0
M  V30 1734 H 169.111 -1.20676 1.19312 0
M  V30 1735 H 167.883 -3.0061 2.50498 0
M  V30 1736 H 167.506 -3.8457 1.00953 0
M  V30 1737 N 168.503 -0.877838 -1.30888 0
M  V30 1738 C 169.433 -0.35534 -2.3078 0
M  V30 1739 C 170.414 0.557994 -1.60687 0
M  V30 1740 O 171.599 0.473355 -1.88343 0
M  V30 1741 C 168.729 0.437221 -3.44537 0
M  V30 1742 C 167.683 -0.383715 -4.26276 0
M  V30 1743 C 167.009 0.535014 -5.32017 0
M  V30 1744 C 168.309 -1.62201 -4.96476 0
M  V30 1745 H 170.003 -1.19007 -2.74732 0
M  V30 1746 H 167.549 -0.573698 -1.32078 0
M  V30 1747 H 169.502 0.813334 -4.13477 0
M  V30 1748 H 168.226 1.30553 -2.99372 0
M  V30 1749 H 166.885 -0.741874 -3.59015 0
M  V30 1750 H 166.533 1.40083 -4.831 0
M  V30 1751 H 166.233 -0.0104211 -5.87599 0
M  V30 1752 H 167.757 0.907799 -6.03814 0
M  V30 1753 H 169.171 -1.31689 -5.5797 0
M  V30 1754 H 167.568 -2.10711 -5.61891 0
M  V30 1755 H 168.638 -2.37044 -4.23011 0
M  V30 1756 N 169.982 1.44106 -0.638065 0
M  V30 1757 C 171.398 1.56672 -0.304286 0
M  V30 1758 C 171.598 1.6244 1.19228 0
M  V30 1759 O 170.654 1.57121 1.9766 0
M  V30 1760 C 171.967 2.83503 -1.00231 0
M  V30 1761 C 173.515 2.97226 -0.981116 0
M  V30 1762 C 173.99 4.26868 -1.65974 0
M  V30 1763 N 175.481 4.33698 -1.62666 0
M  V30 1764 C 176.216 5.32745 -2.12063 0
M  V30 1765 N 175.712 6.38157 -2.6968 0
M  V30 1766 N 177.505 5.24299 -2.02651 0
M  V30 1767 H 169.656 1.38605 -1.60942 0
M  V30 1768 H 171.919 0.664661 -0.675965 0
M  V30 1769 H 171.625 2.85251 -2.0573 0
M  V30 1770 H 171.499 3.73251 -0.54439 0
M  V30 1771 H 173.886 2.95027 0.0654188 0
M  V30 1772 H 173.967 2.08808 -1.47759 0
M  V30 1773 H 173.611 4.29826 -2.70576 0
M  V30 1774 H 173.541 5.14156 -1.13804 0
M  V30 1775 H 176.032 3.58138 -1.20606 0
M  V30 1776 H 176.345 7.10029 -3.05087 0
M  V30 1777 H 174.69 6.38823 -2.73734 0
M  V30 1778 H 177.881 4.4086 -1.57353 0
M  V30 1779 H 178.054 6.01334 -2.41457 0
M  V30 1780 N 171.46 0.379036 1.52974 0
M  V30 1781 C 172.871 -0.0972525 1.86447 0
M  V30 1782 C 173.222 -1.47027 1.29914 0
M  V30 1783 O 172.347 -2.07135 0.626433 0
M  V30 1784 C 172.942 -0.183248 3.38304 0
M  V30 1785 C 171.501 -0.603812 3.71525 0
M  V30 1786 C 170.648 0.240632 2.76254 0
M  V30 1787 H 173.599 0.597316 1.4703 0
M  V30 1788 H 173.62 -1.00432 3.67006 0
M  V30 1789 H 173.132 0.816191 3.79421 0
M  V30 1790 H 171.233 -1.61099 3.35973 0
M  V30 1791 H 171.346 -0.369086 4.77676 0
M  V30 1792 H 169.71 -0.292548 2.53014 0
M  V30 1793 H 170.493 1.23786 3.20206 0
M  V30 1794 N 172.938 -1.57226 0.108567 0
M  V30 1795 C 174.187 -1.94008 -0.551703 0
M  V30 1796 C 174.5 -0.993442 -1.68494 0
M  V30 1797 O 175.706 -1.25551 -2.40726 0
M  V30 1798 C 174.162 -3.44763 -1.03279 0
M  V30 1799 C 173.77 -4.47943 0.0714193 0
M  V30 1800 C 175.514 -3.90483 -1.66503 0
M  V30 1801 C 173.421 -5.89865 -0.425779 0
M  V30 1802 H 172.351 -0.724206 -0.209863 0
M  V30 1803 H 175.002 -1.82547 0.186741 0
M  V30 1804 H 173.384 -3.51422 -1.82533 0
M  V30 1805 H 174.558 -4.52942 0.847365 0
M  V30 1806 H 172.873 -4.11913 0.609669 0
M  V30 1807 H 175.47 -4.93925 -2.04798 0
M  V30 1808 H 175.813 -3.29877 -2.53942 0
M  V30 1809 H 176.346 -3.86581 -0.938074 0
M  V30 1810 H 173.085 -6.54202 0.412316 0
M  V30 1811 H 172.605 -5.88309 -1.16843 0
M  V30 1812 H 174.284 -6.40844 -0.890397 0
M  V30 1813 N 174.416 0.165178 -1.56732 0
M  V30 1814 C 175.646 0.894919 -1.86212 0
M  V30 1815 C 176.054 1.76066 -0.692627 0
M  V30 1816 O 175.397 1.80387 0.347303 0
M  V30 1817 C 175.459 1.8174 -3.10179 0
M  V30 1818 C 175.123 1.13064 -4.42793 0
M  V30 1819 C 176.12 0.493169 -5.17556 0
M  V30 1820 C 173.805 1.12556 -4.89527 0
M  V30 1821 C 175.799 -0.140209 -6.37246 0
M  V30 1822 C 173.486 0.488366 -6.09145 0
M  V30 1823 C 174.484 -0.143411 -6.82849 0
M  V30 1824 O 174.172 -0.77055 -8.00199 0
M  V30 1825 H 173.904 0.265114 -0.621844 0
M  V30 1826 H 176.458 0.168242 -2.0471 0
M  V30 1827 H 174.688 2.58455 -2.87642 0
M  V30 1828 H 176.377 2.4175 -3.26055 0
M  V30 1829 H 177.143 0.489023 -4.82528 0
M  V30 1830 H 173.022 1.60672 -4.32094 0
M  V30 1831 H 176.566 -0.633932 -6.94714 0
M  V30 1832 H 172.463 0.490116 -6.43637 0
M  V30 1833 H 173.231 -0.670408 -8.1575 0
M  V30 1834 N 175.894 1.51508 0.433938 0
M  V30 1835 C 177.143 1.63578 1.18005 0
M  V30 1836 C 177.456 0.359514 1.92268 0
M  V30 1837 O 178.662 0.359632 2.69108 0
M  V30 1838 C 177.118 2.88901 2.14626 0
M  V30 1839 C 176.726 4.23544 1.45995 0
M  V30 1840 C 178.47 3.10328 2.89649 0
M  V30 1841 C 176.377 5.40014 2.4112 0
M  V30 1842 H 175.307 0.609277 0.444182 0
M  V30 1843 H 177.958 1.77978 0.446773 0
M  V30 1844 H 176.34 2.68142 2.91403 0
M  V30 1845 H 177.514 4.54696 0.747532 0
M  V30 1846 H 175.829 4.08021 0.831115 0
M  V30 1847 H 178.426 3.94518 3.60915 0
M  V30 1848 H 178.769 2.23544 3.51189 0
M  V30 1849 H 179.302 3.31443 2.19978 0
M  V30 1850 H 176.041 6.29068 1.84264 0
M  V30 1851 H 175.561 5.13233 3.10406 0
M  V30 1852 H 177.24 5.72099 3.02177 0
M  V30 1853 N 177.372 -0.689602 1.41712 0
M  V30 1854 C 178.597 -1.48329 1.44959 0
M  V30 1855 C 179.022 -1.8801 0.0581283 0
M  V30 1856 O 178.38 -1.55026 -0.940035 0
M  V30 1857 C 178.428 -2.71835 2.36935 0
M  V30 1858 O 177.532 -3.69549 1.8305 0
M  V30 1859 H 176.873 -0.446199 0.491734 0
M  V30 1860 H 179.403 -0.847127 1.86239 0
M  V30 1861 H 179.413 -3.20076 2.53013 0
M  V30 1862 H 178.088 -2.42291 3.38035 0
M  V30 1863 H 176.665 -3.2851 1.76452 0
M  V30 1864 N 178.85 -1.27639 -0.924453 0
M  V30 1865 C 180.096 -1.14336 -1.67497 0
M  V30 1866 C 180.429 0.309465 -1.91718 0
M  V30 1867 O 179.704 1.22608 -1.50989 0
M  V30 1868 C 179.987 -1.93096 -3.0395 0
M  V30 1869 C 179.84 -3.46381 -2.8695 0
M  V30 1870 C 181.159 -1.73798 -4.0433 0
M  V30 1871 H 178.278 -0.416728 -0.607871 0
M  V30 1872 H 180.92 -1.56832 -1.07256 0
M  V30 1873 H 179.07 -1.56982 -3.55372 0
M  V30 1874 H 180.742 -3.92343 -2.42621 0
M  V30 1875 H 178.985 -3.72557 -2.22225 0
M  V30 1876 H 179.656 -3.96735 -3.83804 0
M  V30 1877 H 182.132 -2.05293 -3.61931 0
M  V30 1878 H 181.008 -2.31294 -4.97789 0
M  V30 1879 H 181.269 -0.686725 -4.36734 0
M  V30 1880 N 180.328 1.1314 -1.09713 0
M  V30 1881 C 181.26 2.18343 -0.697056 0
M  V30 1882 C 182.273 1.60669 0.262551 0
M  V30 1883 O 183.462 1.78435 0.0481527 0
M  V30 1884 C 180.562 3.38899 -0.00684728 0
M  V30 1885 C 179.735 4.26078 -0.988741 0
M  V30 1886 C 178.794 5.25155 -0.331394 0
M  V30 1887 O 177.82 5.60701 -0.979926 0
M  V30 1888 N 179.022 5.73271 0.913261 0
M  V30 1889 H 181.787 2.5328 -1.60216 0
M  V30 1890 H 179.348 1.28491 -0.984971 0
M  V30 1891 H 181.34 4.02255 0.444191 0
M  V30 1892 H 179.91 3.02175 0.800551 0
M  V30 1893 H 179.13 3.59453 -1.61826 0
M  V30 1894 H 180.418 4.81178 -1.65364 0
M  V30 1895 H 179.816 5.46544 1.45966 0
M  V30 1896 H 178.373 6.3855 1.30757 0
M  V30 1897 N 181.806 0.884767 1.30421 0
M  V30 1898 C 183.217 0.553656 1.78302 0
M  V30 1899 C 183.568 -0.930153 1.7275 0
M  V30 1900 O 182.693 -1.72681 1.30423 0
M  V30 1901 C 183.288 0.998234 3.2376 0
M  V30 1902 C 181.847 0.71854 3.69478 0
M  V30 1903 C 180.994 1.18132 2.50879 0
M  V30 1904 H 183.945 1.06901 1.17294 0
M  V30 1905 H 183.966 0.327118 3.79091 0
M  V30 1906 H 183.478 2.0782 3.27769 0
M  V30 1907 H 181.579 -0.349444 3.70958 0
M  V30 1908 H 181.692 1.30595 4.60958 0
M  V30 1909 H 180.056 0.600669 2.47516 0
M  V30 1910 H 180.839 2.26902 2.57624 0
M  V30 1911 N 183.284 -1.43765 0.645699 0
M  V30 1912 C 184.695 -1.85193 0.236719 0
M  V30 1913 C 185.046 -1.54045 -1.21509 0
M  V30 1914 O 184.171 -0.985694 -1.92647 0
M  V30 1915 C 184.766 -3.36151 0.422845 0
M  V30 1916 C 183.325 -3.76338 0.0682492 0
M  V30 1917 C 182.472 -2.67538 0.729306 0
M  V30 1918 H 185.423 -1.34025 0.849883 0
M  V30 1919 H 185.444 -3.79032 -0.333904 0
M  V30 1920 H 184.956 -3.5879 1.47958 0
M  V30 1921 H 183.057 -3.59312 -0.986179 0
M  V30 1922 H 183.17 -4.76603 0.488469 0
M  V30 1923 H 181.534 -2.54176 0.163235 0
M  V30 1924 H 182.317 -2.93006 1.78892 0
M  V30 1925 N 184.763 -0.387143 -1.52771 0
M  V30 1926 C 185.988 0.198407 -2.06449 0
M  V30 1927 C 186.413 1.39918 -1.25716 0
M  V30 1928 O 185.771 1.79099 -0.281657 0
M  V30 1929 C 185.819 0.548893 -3.56398 0
M  V30 1930 O 184.923 1.64315 -3.78252 0
M  V30 1931 H 184.264 0.0237731 -0.663574 0
M  V30 1932 H 186.794 -0.553989 -1.96957 0
M  V30 1933 H 186.804 0.813812 -3.99801 0
M  V30 1934 H 185.479 -0.329005 -4.14597 0
M  V30 1935 H 184.056 1.37211 -3.46738 0
M  V30 1936 N 186.241 1.57166 -0.116904 0
M  V30 1937 C 187.171 2.18222 0.830759 0
M  V30 1938 C 188.152 1.12167 1.27877 0
M  V30 1939 O 189.337 1.40394 1.34176 0
M  V30 1940 C 186.467 2.77996 2.08172 0
M  V30 1941 C 185.421 3.89614 1.77157 0
M  V30 1942 C 184.747 4.36187 3.09265 0
M  V30 1943 C 186.047 5.1181 1.04151 0
M  V30 1944 H 187.741 2.97664 0.321992 0
M  V30 1945 H 185.287 1.4318 0.153434 0
M  V30 1946 H 187.24 3.19366 2.74924 0
M  V30 1947 H 185.964 1.9584 2.6137 0
M  V30 1948 H 184.623 3.48816 1.12796 0
M  V30 1949 H 184.271 3.50893 3.60393 0
M  V30 1950 H 183.971 5.11455 2.89288 0
M  V30 1951 H 185.495 4.80207 3.77139 0
M  V30 1952 H 186.909 5.50214 1.61052 0
M  V30 1953 H 185.306 5.92648 0.942762 0
M  V30 1954 H 186.376 4.84892 0.0279022 0
M  V30 1955 N 187.719 -0.156864 1.56817 0
M  V30 1956 C 188.669 -1.19891 1.93934 0
M  V30 1957 C 189.653 -1.39061 0.809372 0
M  V30 1958 O 190.845 -1.40789 1.07273 0
M  V30 1959 C 187.974 -2.53493 2.31508 0
M  V30 1960 C 187.06 -2.37957 3.51052 0
M  V30 1961 N 187.451 -1.92158 4.67877 0
M  V30 1962 C 185.749 -2.68739 3.55943 0
M  V30 1963 C 186.45 -1.8943 5.49992 0
M  V30 1964 N 185.426 -2.32375 4.91429 0
M  V30 1965 H 189.228 -0.836746 2.81737 0
M  V30 1966 H 186.742 -0.365012 1.58245 0
M  V30 1967 H 188.739 -3.28811 2.56299 0
M  V30 1968 H 187.399 -2.905 1.45051 0
M  V30 1969 H 188.41 -1.62274 4.91821 0
M  V30 1970 H 185.087 -3.09687 2.80001 0
M  V30 1971 H 186.477 -1.55596 6.53636 0
M  V30 1972 N 189.197 -1.51736 -0.425897 0
M  V30 1973 C 190.443 -1.65214 -1.1761 0
M  V30 1974 C 190.776 -0.372778 -1.90589 0
M  V30 1975 O 190.051 0.628139 -1.84078 0
M  V30 1976 C 190.334 -2.86312 -2.18398 0
M  V30 1977 C 190.187 -4.24254 -1.49426 0
M  V30 1978 C 191.506 -3.02925 -3.19256 0
M  V30 1979 H 188.625 -0.601263 -0.426206 0
M  V30 1980 H 191.267 -1.8425 -0.463882 0
M  V30 1981 H 189.417 -2.70213 -2.79137 0
M  V30 1982 H 191.089 -4.52046 -0.919362 0
M  V30 1983 H 189.332 -4.26426 -0.796432 0
M  V30 1984 H 190.003 -5.05001 -2.22885 0
M  V30 1985 H 192.479 -3.1781 -2.68581 0
M  V30 1986 H 191.355 -3.89199 -3.8706 0
M  V30 1987 H 191.616 -2.15497 -3.86023 0
M  V30 1988 N 190.675 0.682077 -1.42076 0
M  V30 1989 C 191.605 1.80796 -1.47767 0
M  V30 1990 C 192.586 1.6677 -0.334954 0
M  V30 1991 O 193.771 1.863 -0.548264 0
M  V30 1992 C 190.901 3.19038 -1.37229 0
M  V30 1993 C 189.855 3.47789 -2.49453 0
M  V30 1994 C 189.181 4.8553 -2.23975 0
M  V30 1995 C 190.481 3.45411 -3.91776 0
M  V30 1996 H 192.175 1.7629 -2.41997 0
M  V30 1997 H 189.721 0.846721 -1.16476 0
M  V30 1998 H 191.674 3.97528 -1.39821 0
M  V30 1999 H 190.398 3.24204 -0.394907 0
M  V30 2000 H 189.057 2.71657 -2.46166 0
M  V30 2001 H 188.705 4.87337 -1.24547 0
M  V30 2002 H 188.405 5.0573 -2.99184 0
M  V30 2003 H 189.929 5.66312 -2.28304 0
M  V30 2004 H 191.343 4.13882 -3.96705 0
M  V30 2005 H 189.74 3.77145 -4.66778 0
M  V30 2006 H 190.81 2.44122 -4.18966 0
M  V30 2007 N 192.153 1.28127 0.917671 0
M  V30 2008 C 193.063 1.13556 2.05286 0
M  V30 2009 C 194.079 0.0630914 1.73886 0
M  V30 2010 O 195.255 0.271598 1.9956 0
M  V30 2011 C 192.32 0.794676 3.3747 0
M  V30 2012 C 191.381 1.94909 3.82504 0
M  V30 2013 C 190.614 1.62437 5.0838 0
M  V30 2014 O 190.837 0.536905 5.67867 0
M  V30 2015 O 189.771 2.46677 5.4903 0
M  V30 2016 H 193.597 2.08844 2.20495 0
M  V30 2017 H 191.182 1.07409 1.03845 0
M  V30 2018 H 193.064 0.618344 4.16839 0
M  V30 2019 H 191.739 -0.128581 3.23445 0
M  V30 2020 H 190.646 2.18055 3.03978 0
M  V30 2021 H 191.979 2.85291 4.01086 0
M  V30 2022 N 193.631 -1.12557 1.10312 0
M  V30 2023 C 194.563 -2.17971 0.708625 0
M  V30 2024 C 195.576 -1.60806 -0.254027 0
M  V30 2025 O 196.765 -1.78458 -0.0386891 0
M  V30 2026 C 193.865 -3.38891 0.0248198 0
M  V30 2027 C 193.038 -4.25548 1.01132 0
M  V30 2028 C 192.097 -5.24972 0.35924 0
M  V30 2029 O 191.123 -5.60174 1.00965 0
M  V30 2030 N 192.325 -5.73747 -0.882847 0
M  V30 2031 H 195.09 -2.52427 1.61557 0
M  V30 2032 H 192.651 -1.27967 0.991771 0
M  V30 2033 H 194.643 -4.02485 -0.422852 0
M  V30 2034 H 193.213 -3.02596 -0.784514 0
M  V30 2035 H 192.433 -3.58589 1.6373 0
M  V30 2036 H 193.721 -4.80294 1.67914 0
M  V30 2037 H 193.119 -5.4731 -1.43065 0
M  V30 2038 H 191.676 -6.39234 -1.27369 0
M  V30 2039 N 195.109 -0.891671 -1.2995 0
M  V30 2040 C 196.525 -0.58662 -1.48428 0
M  V30 2041 C 196.725 0.873951 -1.81561 0
M  V30 2042 O 195.781 1.65471 -1.90724 0
M  V30 2043 C 197.094 -1.50553 -2.60296 0
M  V30 2044 C 198.642 -1.50988 -2.74175 0
M  V30 2045 C 199.117 -2.41488 -3.89163 0
M  V30 2046 N 200.608 -2.39489 -3.96483 0
M  V30 2047 C 201.343 -3.06223 -4.84784 0
M  V30 2048 N 200.839 -3.82206 -5.77833 0
M  V30 2049 N 202.632 -2.95421 -4.78208 0
M  V30 2050 H 194.783 -1.83644 -1.06718 0
M  V30 2051 H 197.046 -0.786455 -0.529332 0
M  V30 2052 H 196.752 -2.54581 -2.42654 0
M  V30 2053 H 196.626 -1.22008 -3.56923 0
M  V30 2054 H 199.013 -0.47708 -2.91218 0
M  V30 2055 H 199.094 -1.83567 -1.78148 0
M  V30 2056 H 198.738 -3.44857 -3.72876 0
M  V30 2057 H 198.668 -2.06222 -4.84541 0
M  V30 2058 H 201.159 -1.84278 -3.29924 0
M  V30 2059 H 201.472 -4.302 -6.41988 0
M  V30 2060 H 199.817 -3.86313 -5.77743 0
M  V30 2061 H 203.008 -2.35581 -4.04499 0
M  V30 2062 H 203.181 -3.47704 -5.46814 0
M  V30 2063 N 196.587 1.43421 -0.653314 0
M  V30 2064 C 197.517 2.33487 0.0246656 0
M  V30 2065 C 198.498 1.49475 0.811863 0
M  V30 2066 O 199.683 1.78139 0.773322 0
M  V30 2067 C 196.813 3.32841 0.99166 0
M  V30 2068 C 195.767 4.26842 0.314568 0
M  V30 2069 C 195.093 5.16236 1.39302 0
M  V30 2070 C 196.393 5.16243 -0.793095 0
M  V30 2071 H 198.087 2.90427 -0.727481 0
M  V30 2072 H 195.633 1.39649 -0.351287 0
M  V30 2073 H 197.586 3.94747 1.47487 0
M  V30 2074 H 196.31 2.74158 1.77497 0
M  V30 2075 H 194.969 3.663 -0.148199 0
M  V30 2076 H 194.617 4.53891 2.16776 0
M  V30 2077 H 194.317 5.79948 0.945223 0
M  V30 2078 H 195.841 5.81015 1.87759 0
M  V30 2079 H 197.255 5.71958 -0.392039 0
M  V30 2080 H 195.652 5.88676 -1.16536 0
M  V30 2081 H 196.722 4.55927 -1.65103 0
M  V30 2082 N 198.065 0.39524 1.52563 0
M  V30 2083 C 199.481 0.0454682 1.59535 0
M  V30 2084 C 199.681 -1.44056 1.4089 0
M  V30 2085 O 198.737 -2.20579 1.22888 0
M  V30 2086 C 200.05 0.527963 2.96029 0
M  V30 2087 C 201.598 0.484733 3.09224 0
M  V30 2088 C 202.073 0.943512 4.48176 0
M  V30 2089 N 203.564 0.899765 4.54377 0
M  V30 2090 C 204.299 1.22609 5.60138 0
M  V30 2091 N 203.795 1.62319 6.73516 0
M  V30 2092 N 205.588 1.14696 5.50274 0
M  V30 2093 H 197.739 1.36261 1.62931 0
M  V30 2094 H 200.002 0.558887 0.765735 0
M  V30 2095 H 199.708 1.56607 3.14908 0
M  V30 2096 H 199.582 -0.0698056 3.77135 0
M  V30 2097 H 201.969 -0.544298 2.90037 0
M  V30 2098 H 202.05 1.11838 2.30056 0
M  V30 2099 H 201.694 1.9708 4.68104 0
M  V30 2100 H 201.624 0.286817 5.25818 0
M  V30 2101 H 204.115 0.607632 3.72983 0
M  V30 2102 H 204.428 1.85567 7.5019 0
M  V30 2103 H 202.773 1.66211 6.74833 0
M  V30 2104 H 205.964 0.835701 4.6058 0
M  V30 2105 H 206.137 1.40459 6.32594 0
M  V30 2106 N 199.544 -1.57102 0.125237 0
M  V30 2107 C 200.476 -2.12726 -0.853237 0
M  V30 2108 C 201.489 -1.07145 -1.22571 0
M  V30 2109 O 202.678 -1.34497 -1.17358 0
M  V30 2110 C 199.778 -2.61709 -2.15317 0
M  V30 2111 C 198.951 -3.91456 -1.95143 0
M  V30 2112 C 198.01 -4.25973 -3.08923 0
M  V30 2113 O 197.036 -4.94682 -2.81564 0
M  V30 2114 N 198.238 -3.83795 -4.35524 0
M  V30 2115 H 201.003 -2.97307 -0.377964 0
M  V30 2116 H 198.564 -1.61792 -0.0590011 0
M  V30 2117 H 200.556 -2.81826 -2.90441 0
M  V30 2118 H 199.126 -1.81974 -2.54174 0
M  V30 2119 H 198.346 -3.80185 -1.04177 0
M  V30 2120 H 199.634 -4.76283 -1.78976 0
M  V30 2121 H 199.032 -3.2839 -4.60626 0
M  V30 2122 H 197.589 -4.09008 -5.07499 0
M  V30 2123 N 201.022 0.148545 -1.56898 0
M  V30 2124 C 202.438 0.501131 -1.51528 0
M  V30 2125 C 202.638 1.83458 -0.833399 0
M  V30 2126 O 201.694 2.49259 -0.40328 0
M  V30 2127 C 203.007 0.512864 -2.96294 0
M  V30 2128 C 204.555 0.598487 -3.07225 0
M  V30 2129 C 205.03 0.640897 -4.53494 0
M  V30 2130 N 206.521 0.703163 -4.57832 0
M  V30 2131 C 207.256 0.756935 -5.68382 0
M  V30 2132 N 206.752 0.770147 -6.88506 0
M  V30 2133 N 208.545 0.797698 -5.56411 0
M  V30 2134 H 200.696 -0.725532 -1.99624 0
M  V30 2135 H 202.959 -0.264358 -0.910395 0
M  V30 2136 H 202.665 -0.398691 -3.49433 0
M  V30 2137 H 202.539 1.35133 -3.52163 0
M  V30 2138 H 204.926 1.50046 -2.54106 0
M  V30 2139 H 205.007 -0.267093 -2.54402 0
M  V30 2140 H 204.651 -0.256915 -5.0725 0
M  V30 2141 H 204.581 1.52295 -5.04097 0
M  V30 2142 H 207.072 0.700314 -3.71354 0
M  V30 2143 H 207.385 0.812983 -7.68512 0
M  V30 2144 H 205.73 0.738049 -6.9107 0
M  V30 2145 H 208.921 0.784535 -4.61479 0
M  V30 2146 H 209.094 0.83614 -6.42583 0
M  V30 2147 N 202.5 1.5196 0.417844 0
M  V30 2148 C 203.448 1.75278 1.52907 0
M  V30 2149 C 204.442 0.619611 1.57662 0
M  V30 2150 O 205.648 0.801457 1.61173 0
M  V30 2151 H 202.023 0.554141 0.508362 0
M  V30 2152 H 203.994 2.68389 1.30422 0
M  V30 2153 C 202.743 1.91262 2.90369 0
M  V30 2154 H 202.066 2.77872 2.8745 0
M  V30 2155 H 203.506 2.11581 3.67436 0
M  V30 2156 C 201.965 0.677431 3.30019 0
M  V30 2157 O 202.495 -0.158799 4.01386 0
M  V30 2158 N 200.701 0.515851 2.85985 0
M  V30 2159 H 200.248 1.19744 2.28077 0
M  V30 2160 H 200.206 -0.309315 3.12875 0
M  V30 2161 N 203.978 -0.674533 1.42435 0
M  V30 2162 C 205.206 -1.46283 1.46317 0
M  V30 2163 C 205.621 -1.88653 0.0745836 0
M  V30 2164 O 204.978 -1.58151 -0.91074 0
M  V30 2165 C 205.029 -2.71178 2.3905 0
M  V30 2166 O 204.75 -2.30586 3.72507 0
M  V30 2167 C 206.251 -3.64738 2.51955 0
M  V30 2168 H 203.471 -0.450104 0.497642 0
M  V30 2169 H 206.015 -0.828792 1.86953 0
M  V30 2170 H 204.17 -3.3077 2.01667 0
M  V30 2171 H 204.584 -3.11241 4.22172 0
M  V30 2172 H 206.058 -4.49096 3.20962 0
M  V30 2173 H 206.535 -4.10656 1.55752 0
M  V30 2174 H 207.141 -3.11038 2.90061 0
M  V30 2175 N 205.456 -1.28612 -0.910864 0
M  V30 2176 C 206.366 -1.14643 -2.0468 0
M  V30 2177 C 207.382 -0.0723121 -1.7385 0
M  V30 2178 O 208.558 -0.282178 -1.99413 0
M  V30 2179 C 205.623 -0.812561 -3.37044 0
M  V30 2180 C 204.684 -1.96935 -3.81465 0
M  V30 2181 C 203.917 -1.65131 -5.07511 0
M  V30 2182 O 204.14 -0.567013 -5.67575 0
M  V30 2183 O 203.074 -2.49585 -5.47714 0
M  V30 2184 H 206.9 -2.1001 -2.19384 0
M  V30 2185 H 204.485 -1.07958 -1.03274 0
M  V30 2186 H 206.367 -0.640441 -4.16505 0
M  V30 2187 H 205.042 0.111426 -3.23508 0
M  V30 2188 H 203.949 -2.19664 -3.02818 0
M  V30 2189 H 205.282 -2.87414 -3.99567 0
M  V30 2190 N 206.934 1.1197 -1.10907 0
M  V30 2191 C 208.162 1.87402 -0.876824 0
M  V30 2192 C 208.577 1.79894 0.573025 0
M  V30 2193 O 207.934 1.17629 1.39534 0
M  V30 2194 C 207.985 3.36428 -1.32282 0
M  V30 2195 O 207.706 3.43765 -2.71582 0
M  V30 2196 C 209.207 4.28783 -1.12518 0
M  V30 2197 H 206.427 0.592793 -0.314384 0
M  V30 2198 H 208.971 1.41649 -1.47499 0
M  V30 2199 H 207.126 3.79706 -0.768229 0
M  V30 2200 H 207.54 4.3652 -2.90776 0
M  V30 2201 H 209.014 5.31613 -1.48633 0
M  V30 2202 H 209.491 4.39153 -0.0642394 0
M  V30 2203 H 210.097 3.91291 -1.66648 0
M  V30 2204 N 208.412 0.89855 1.29475 0
M  V30 2205 C 209.322 0.379974 2.31502 0
M  V30 2206 C 210.338 -0.524695 1.659 0
M  V30 2207 O 211.514 -0.414551 1.97087 0
M  V30 2208 C 208.579 -0.385138 3.44554 0
M  V30 2209 C 207.64 0.550914 4.2575 0
M  V30 2210 C 206.873 -0.177778 5.33404 0
M  V30 2211 O 207.096 -1.40189 5.52904 0
M  V30 2212 O 206.03 0.479106 5.9999 0
M  V30 2213 H 209.856 1.22639 2.77837 0
M  V30 2214 H 207.441 0.662834 1.33891 0
M  V30 2215 H 209.323 -0.817841 4.13388 0
M  V30 2216 H 207.998 -1.20763 3.0033 0
M  V30 2217 H 206.905 1.03271 3.59564 0
M  V30 2218 H 208.238 1.33979 4.73614 0
M  V30 2219 N 209.89 -1.43072 0.660911 0
M  V30 2220 C 210.8 -2.34585 -0.0264163 0
M  V30 2221 C 211.816 -1.54316 -0.803898 0
M  V30 2222 O 212.992 -1.86939 -0.749391 0
M  V30 2223 C 210.057 -3.32689 -0.975639 0
M  V30 2224 C 209.118 -4.2886 -0.194236 0
M  V30 2225 C 208.351 -5.22278 -1.09825 0
M  V30 2226 O 208.574 -5.20299 -2.33763 0
M  V30 2227 O 207.508 -5.99228 -0.566513 0
M  V30 2228 H 211.334 -2.94869 0.727034 0
M  V30 2229 H 208.919 -1.43342 0.42111 0
M  V30 2230 H 210.801 -3.92995 -1.52094 0
M  V30 2231 H 209.476 -2.74898 -1.70918 0
M  V30 2232 H 208.383 -3.72011 0.394835 0
M  V30 2233 H 209.716 -4.89655 0.499899 0
M  V30 2234 N 211.368 -0.403325 -1.52352 0
M  V30 2235 C 212.593 0.176499 -2.06648 0
M  V30 2236 C 213.018 1.38577 -1.27193 0
M  V30 2237 O 212.376 1.7879 -0.300637 0
M  V30 2238 C 212.424 0.511061 -3.5696 0
M  V30 2239 O 211.528 1.60294 -3.79973 0
M  V30 2240 H 210.869 0.0167337 -0.663789 0
M  V30 2241 H 213.399 -0.574848 -1.96359 0
M  V30 2242 H 213.409 0.771362 -4.00642 0
M  V30 2243 H 212.084 -0.37296 -4.14224 0
M  V30 2244 H 210.661 1.33526 -3.48174 0
M  V30 2245 N 212.846 1.57033 -0.133567 0
M  V30 2246 C 213.776 2.1909 0.807567 0
M  V30 2247 C 214.757 1.13517 1.26681 0
M  V30 2248 O 215.942 1.41809 1.32679 0
M  V30 2249 C 213.072 2.80188 2.05212 0
M  V30 2250 C 212.026 3.91471 1.73015 0
M  V30 2251 C 211.352 4.39443 3.04622 0
M  V30 2252 C 212.652 5.12886 0.987168 0
M  V30 2253 H 214.346 2.97988 0.290403 0
M  V30 2254 H 211.892 1.43335 0.138239 0
M  V30 2255 H 213.845 3.22264 2.71521 0
M  V30 2256 H 212.569 1.98601 2.59278 0
M  V30 2257 H 211.228 3.49993 1.0909 0
M  V30 2258 H 210.876 3.54695 3.56651 0
M  V30 2259 H 210.576 5.14495 2.83847 0
M  V30 2260 H 212.1 4.8418 3.72024 0
M  V30 2261 H 213.514 5.51891 1.55208 0
M  V30 2262 H 211.911 5.93615 0.87985 0
M  V30 2263 H 212.981 4.84894 -0.0235286 0
M  V30 2264 N 214.325 -0.140222 1.56975 0
M  V30 2265 C 215.571 -0.852949 1.83991 0
M  V30 2266 C 215.904 -1.80512 0.716187 0
M  V30 2267 O 215.179 -1.92479 -0.279681 0
M  V30 2268 C 215.462 -1.6215 3.21527 0
M  V30 2269 C 215.315 -0.690363 4.4447 0
M  V30 2270 C 216.634 -2.58247 3.56366 0
M  V30 2271 H 213.753 -0.308634 0.669264 0
M  V30 2272 H 216.395 -0.117898 1.89634 0
M  V30 2273 H 214.545 -2.24812 3.16847 0
M  V30 2274 H 216.217 -0.0742264 4.6124 0
M  V30 2275 H 214.46 -0.000396433 4.338 0
M  V30 2276 H 215.131 -1.2643 5.37326 0
M  V30 2277 H 217.607 -2.05701 3.61699 0
M  V30 2278 H 216.483 -3.09067 4.53617 0
M  V30 2279 H 216.744 -3.39923 2.82674 0
M  V30 2280 N 215.803 -1.52179 -0.40978 0
M  V30 2281 C 216.75 -1.75475 -1.49924 0
M  V30 2282 C 217.72 -0.597175 -1.54994 0
M  V30 2283 O 218.905 -0.834655 -1.71575 0
M  V30 2284 C 216.045 -1.9107 -2.87378 0
M  V30 2285 C 215.158 -3.18717 -2.91622 0
M  V30 2286 C 214.293 -3.24747 -4.20372 0
M  V30 2287 C 213.332 -4.46598 -4.18588 0
M  V30 2288 N 212.469 -4.50025 -5.38908 0
M  V30 2289 H 217.309 -2.68458 -1.29361 0
M  V30 2290 H 214.846 -1.33024 -0.627934 0
M  V30 2291 H 216.804 -1.98096 -3.6717 0
M  V30 2292 H 215.434 -1.01469 -3.06437 0
M  V30 2293 H 214.486 -3.20866 -2.04326 0
M  V30 2294 H 215.798 -4.08544 -2.86169 0
M  V30 2295 H 214.952 -3.30841 -5.08556 0
M  V30 2296 H 213.691 -2.32857 -4.28519 0
M  V30 2297 H 212.696 -4.40652 -3.28794 0
M  V30 2298 H 213.921 -5.39783 -4.12081 0
M  V30 2299 H 211.867 -3.61017 -5.47725 0
M  V30 2300 H 211.784 -5.33697 -5.35447 0
M  V30 2301 H 213.052 -4.60347 -6.29048 0
M  V30 2302 N 217.281 0.66697 -1.42791 0
M  V30 2303 C 218.697 0.981027 -1.25889 0
M  V30 2304 C 218.897 2.00793 -0.168695 0
M  V30 2305 O 217.953 2.48321 0.45747 0
M  V30 2306 C 219.266 1.47838 -2.61848 0
M  V30 2307 C 220.814 1.59575 -2.69267 0
M  V30 2308 C 221.289 2.12704 -4.05612 0
M  V30 2309 N 222.78 2.20026 -4.07606 0
M  V30 2310 C 223.515 2.62227 -5.09926 0
M  V30 2311 N 223.011 3.03824 -6.22626 0
M  V30 2312 N 224.804 2.62045 -4.97281 0
M  V30 2313 H 216.955 -0.0127891 -2.12396 0
M  V30 2314 H 219.218 0.0568258 -0.946295 0
M  V30 2315 H 218.924 0.798299 -3.4252 0
M  V30 2316 H 218.798 2.45579 -2.86305 0
M  V30 2317 H 221.185 2.26687 -1.88936 0
M  V30 2318 H 221.266 0.60302 -2.48591 0
M  V30 2319 H 220.91 1.46198 -4.86404 0
M  V30 2320 H 220.84 3.12782 -4.23645 0
M  V30 2321 H 223.331 1.90708 -3.2625 0
M  V30 2322 H 223.644 3.34734 -6.96544 0
M  V30 2323 H 221.989 3.01662 -6.26119 0
M  V30 2324 H 225.18 2.28916 -4.08308 0
M  V30 2325 H 225.353 2.94613 -5.77154 0
M  V30 2326 N 218.759 1.29093 0.90403 0
M  V30 2327 C 219.689 1.16401 2.02418 0
M  V30 2328 C 220.67 0.0593085 1.69997 0
M  V30 2329 O 221.855 0.238021 1.92736 0
M  V30 2330 C 218.985 0.835233 3.37107 0
M  V30 2331 C 217.939 1.89578 3.83724 0
M  V30 2332 C 217.265 1.42041 5.15489 0
M  V30 2333 C 218.565 3.30394 4.04521 0
M  V30 2334 H 220.259 2.10109 2.13295 0
M  V30 2335 H 217.805 1.01157 1.02486 0
M  V30 2336 H 219.758 0.733169 4.14973 0
M  V30 2337 H 218.482 -0.137543 3.2631 0
M  V30 2338 H 217.141 1.98715 3.08071 0
M  V30 2339 H 216.789 0.436426 5.01103 0
M  V30 2340 H 216.489 2.12964 5.4765 0
M  V30 2341 H 218.013 1.33176 5.959 0
M  V30 2342 H 219.427 3.24123 4.72882 0
M  V30 2343 H 217.824 3.99237 4.48029 0
M  V30 2344 H 218.894 3.73692 3.09002 0
M  V30 2345 N 220.237 -1.11381 1.11499 0
M  V30 2346 C 221.2 -2.15622 0.777153 0
M  V30 2347 C 222.2 -1.59504 -0.203779 0
M  V30 2348 O 223.39 -1.74188 0.020782 0
M  V30 2349 C 220.522 -3.40556 0.153116 0
M  V30 2350 H 221.715 -2.47021 1.70061 0
M  V30 2351 H 219.268 -1.26577 0.916952 0
M  V30 2352 H 220.003 -3.14767 -0.780536 0
M  V30 2353 H 219.788 -3.8257 0.859238 0
M  V30 2354 H 221.278 -4.17546 -0.0671044 0
M  V30 2355 N 221.715 -0.905404 -1.28997 0
M  V30 2356 C 222.678 -0.392253 -2.25819 0
M  V30 2357 C 223.678 0.476753 -1.5357 0
M  V30 2358 O 224.868 0.280994 -1.71919 0
M  V30 2359 C 222 0.438588 -3.38067 0
M  V30 2360 H 223.193 -1.24743 -2.72725 0
M  V30 2361 H 220.746 -0.684051 -1.40536 0
M  V30 2362 H 221.481 1.31352 -2.96508 0
M  V30 2363 H 221.266 -0.184167 -3.91667 0
M  V30 2364 H 222.756 0.78873 -4.10084 0
M  V30 2365 N 223.193 1.4272 -0.668489 0
M  V30 2366 C 224.156 2.292 0.00448567 0
M  V30 2367 C 225.156 1.43001 0.735339 0
M  V30 2368 O 226.346 1.64461 0.57429 0
M  V30 2369 C 223.478 3.25375 1.01705 0
M  V30 2370 H 224.671 2.90199 -0.756608 0
M  V30 2371 H 222.224 1.50254 -0.430506 0
M  V30 2372 H 222.959 2.69301 1.80686 0
M  V30 2373 H 222.744 3.88944 0.496463 0
M  V30 2374 H 224.234 3.90245 1.48655 0
M  V30 2375 N 224.671 0.411399 1.52136 0
M  V30 2376 C 225.603 -0.448386 2.24771 0
M  V30 2377 C 226.616 -1.00828 1.27818 0
M  V30 2378 O 227.805 -0.906841 1.53749 0
M  V30 2379 C 224.905 -1.63636 2.96777 0
M  V30 2380 C 224.078 -1.19995 4.20618 0
M  V30 2381 C 223.137 -2.25509 4.75428 0
M  V30 2382 O 222.163 -1.86007 5.3795 0
M  V30 2383 N 223.365 -3.577 4.57199 0
M  V30 2384 H 226.13 0.174025 2.99194 0
M  V30 2385 H 223.691 0.238897 1.60128 0
M  V30 2386 H 225.683 -2.33793 3.30338 0
M  V30 2387 H 224.253 -2.16465 2.25526 0
M  V30 2388 H 223.473 -0.326421 3.92846 0
M  V30 2389 H 224.761 -0.885365 5.01038 0
M  V30 2390 H 224.159 -3.92543 4.07341 0
M  V30 2391 H 222.716 -4.23827 4.95191 0
M  V30 2392 N 226.149 -1.5696 0.141893 0
M  V30 2393 C 227.112 -2.15316 -0.785587 0
M  V30 2394 C 228.112 -1.09366 -1.1788 0
M  V30 2395 O 229.302 -1.35031 -1.10056 0
M  V30 2396 C 226.434 -2.71211 -2.06537 0
M  V30 2397 H 227.627 -2.98608 -0.278041 0
M  V30 2398 H 225.18 -1.5593 -0.107519 0
M  V30 2399 H 225.915 -1.91571 -2.6167 0
M  V30 2400 H 225.7 -3.4872 -1.79268 0
M  V30 2401 H 227.19 -3.16189 -2.72789 0
M  V30 2402 N 227.627 0.131896 -1.57047 0
M  V30 2403 C 228.904 0.871495 -1.75112 0
M  V30 2404 C 229.284 1.9866 -0.713949 0
M  V30 2405 O 228.632 2.26965 0.264447 0
M  V30 2406 C 228.842 1.40007 -3.19686 0
M  V30 2407 C 230.19 1.85752 -3.81813 0
M  V30 2408 O 231.214 1.49715 -3.23209 0
M  V30 2409 O 230.073 2.5226 -4.84796 0
M  V30 2410 H 227.167 0.412919 -0.716538 0
M  V30 2411 H 229.713 0.116641 -1.69299 0
M  V30 2412 H 228.485 0.599404 -3.86682 0
M  V30 2413 H 228.108 2.218 -3.29986 0
M  V30 2414 N 229.106 1.52395 0.401703 0
M  V30 2415 C 230.039 1.70999 1.51111 0
M  V30 2416 C 231.017 0.55765 1.52738 0
M  V30 2417 O 232.201 0.785912 1.71335 0
M  V30 2418 C 229.328 1.75607 2.8962 0
M  V30 2419 C 228.374 2.97227 3.05873 0
M  V30 2420 S 229.207 4.57439 2.78405 0
M  V30 2421 C 230.363 4.64844 4.19131 0
M  V30 2422 H 230.596 2.6483 1.35102 0
M  V30 2423 H 228.129 1.42527 0.593762 0
M  V30 2424 H 230.087 1.78947 3.69443 0
M  V30 2425 H 228.748 0.828914 3.02965 0
M  V30 2426 H 227.941 2.96955 4.07227 0
M  V30 2427 H 227.543 2.91813 2.33925 0
M  V30 2428 H 229.835 4.42677 5.12877 0
M  V30 2429 H 230.778 5.66807 4.24424 0
M  V30 2430 H 231.186 3.93804 4.04448 0
M  V30 2431 N 230.584 -0.659388 1.43143 0
M  V30 2432 C 231.494 -1.80167 1.50256 0
M  V30 2433 C 232.51 -1.69571 0.390106 0
M  V30 2434 O 233.686 -1.90849 0.643319 0
M  V30 2435 C 230.751 -3.16409 1.41725 0
M  V30 2436 C 229.812 -3.38848 2.63591 0
M  V30 2437 C 229.045 -4.68591 2.55458 0
M  V30 2438 O 229.268 -5.47532 1.59891 0
M  V30 2439 O 228.202 -4.92614 3.45854 0
M  V30 2440 H 232.028 -1.77121 2.46702 0
M  V30 2441 H 229.613 -0.817092 1.25076 0
M  V30 2442 H 231.495 -3.9768 1.39387 0
M  V30 2443 H 230.17 -3.20059 0.484118 0
M  V30 2444 H 229.077 -2.57366 2.71502 0
M  V30 2445 H 230.41 -3.4004 3.55856 0
M  V30 2446 N 232.062 -1.29571 -0.897171 0
M  V30 2447 C 233.287 -1.20705 -1.68656 0
M  V30 2448 C 233.712 0.228582 -1.86706 0
M  V30 2449 O 233.07 1.16494 -1.3892 0
M  V30 2450 C 233.118 -1.9282 -3.04717 0
M  V30 2451 O 232.222 -1.24697 -3.93096 0
M  V30 2452 H 231.563 -0.418126 -0.515816 0
M  V30 2453 H 234.093 -1.71183 -1.12061 0
M  V30 2454 H 234.103 -2.01372 -3.54843 0
M  V30 2455 H 232.778 -2.97239 -2.90899 0
M  V30 2456 H 231.355 -1.2442 -3.51531 0
M  V30 2457 N 233.54 1.10788 -1.12088 0
M  V30 2458 C 234.765 1.87002 -0.896949 0
M  V30 2459 C 235.19 1.79933 0.548261 0
M  V30 2460 O 234.548 1.16662 1.38779 0
M  V30 2461 C 234.596 3.3349 -1.37174 0
M  V30 2462 O 233.7 4.08745 -0.547831 0
M  V30 2463 H 233.041 0.580397 -0.322545 0
M  V30 2464 H 235.571 1.39996 -1.49206 0
M  V30 2465 H 235.581 3.84339 -1.36922 0
M  V30 2466 H 234.256 3.37951 -2.42408 0
M  V30 2467 H 232.833 3.6776 -0.617034 0
M  V30 2468 N 235.018 0.912232 1.28515 0
M  V30 2469 C 235.965 0.397954 2.27343 0
M  V30 2470 C 236.935 -0.526766 1.57526 0
M  V30 2471 O 238.12 -0.449292 1.85435 0
M  V30 2472 C 235.26 -0.357263 3.43246 0
M  V30 2473 C 234.373 0.599788 4.27816 0
M  V30 2474 C 233.508 -0.173725 5.30916 0
M  V30 2475 C 232.547 0.777039 6.07148 0
M  V30 2476 N 231.684 0.0371398 7.0209 0
M  V30 2477 H 236.524 1.24577 2.70711 0
M  V30 2478 H 234.061 0.625612 1.33133 0
M  V30 2479 H 236.019 -0.8113 4.09236 0
M  V30 2480 H 234.649 -1.16943 3.00872 0
M  V30 2481 H 233.701 1.17235 3.61884 0
M  V30 2482 H 235.013 1.32704 4.80823 0
M  V30 2483 H 234.167 -0.688394 6.02782 0
M  V30 2484 H 232.906 -0.934041 4.78672 0
M  V30 2485 H 231.911 1.3031 5.34134 0
M  V30 2486 H 233.136 1.53689 6.61481 0
M  V30 2487 H 231.082 -0.705213 6.52198 0
M  V30 2488 H 230.999 0.704249 7.52713 0
M  V30 2489 H 232.267 -0.457383 7.78157 0
M  V30 2490 N 236.496 -1.42363 0.676048 0
M  V30 2491 C 237.406 -2.346 -0.00153389 0
M  V30 2492 C 238.422 -1.5516 -0.787485 0
M  V30 2493 O 239.598 -1.87723 -0.729521 0
M  V30 2494 C 236.663 -3.33705 -0.940298 0
M  V30 2495 C 235.724 -4.29042 -0.148739 0
M  V30 2496 C 234.957 -5.23413 -1.04279 0
M  V30 2497 O 235.18 -5.22749 -2.28232 0
M  V30 2498 O 234.114 -5.99795 -0.502925 0
M  V30 2499 H 237.94 -2.94082 0.758268 0
M  V30 2500 H 235.525 -1.42888 0.436289 0
M  V30 2501 H 237.407 -3.94586 -1.47917 0
M  V30 2502 H 236.082 -2.76695 -1.67993 0
M  V30 2503 H 234.989 -3.71571 0.43427 0
M  V30 2504 H 236.322 -4.89097 0.551805 0
M  V30 2505 N 237.974 -0.419461 -1.51915 0
M  V30 2506 C 239.385 0.0477853 -1.86639 0
M  V30 2507 C 239.736 1.43531 -1.33766 0
M  V30 2508 O 238.861 2.05401 -0.68113 0
M  V30 2509 C 239.456 0.0934885 -3.38671 0
M  V30 2510 C 238.015 0.505097 -3.72996 0
M  V30 2511 C 237.162 -0.313792 -2.75519 0
M  V30 2512 H 240.113 -0.636088 -1.45395 0
M  V30 2513 H 240.134 0.906667 -3.6954 0
M  V30 2514 H 239.646 -0.916501 -3.77123 0
M  V30 2515 H 237.747 1.52135 -3.40126 0
M  V30 2516 H 237.86 0.242309 -4.78487 0
M  V30 2517 H 236.224 0.225363 -2.53701 0
M  V30 2518 H 237.007 -1.32232 -3.16812 0
M  V30 2519 N 239.452 1.56882 -0.150215 0
M  V30 2520 C 240.7 1.9584 0.499105 0
M  V30 2521 C 241.021 1.03623 1.65188 0
M  V30 2522 O 240.291 0.0984084 1.95653 0
M  V30 2523 H 238.871 0.723119 0.187373 0
M  V30 2524 H 241.533 1.9358 -0.226466 0
M  V30 2525 H 240.629 2.99638 0.873122 0
M  V30 2526 N 240.93 -0.123565 1.57115 0
M  V30 2527 C 241.86 -1.15309 2.03042 0
M  V30 2528 C 242.841 -1.43454 0.914061 0
M  V30 2529 O 244.026 -1.53973 1.18347 0
M  V30 2530 C 241.156 -2.48043 2.43089 0
M  V30 2531 C 240.11 -2.3437 3.58127 0
M  V30 2532 C 239.436 -3.72026 3.84059 0
M  V30 2533 C 240.736 -1.80804 4.90007 0
M  V30 2534 H 242.43 -0.771102 2.893 0
M  V30 2535 H 239.976 -0.369479 1.39179 0
M  V30 2536 H 241.929 -3.20311 2.73823 0
M  V30 2537 H 240.653 -2.88122 1.53796 0
M  V30 2538 H 239.312 -1.64551 3.27595 0
M  V30 2539 H 238.96 -4.09582 2.91979 0
M  V30 2540 H 238.66 -3.63732 4.6149 0
M  V30 2541 H 240.184 -4.45806 4.1724 0
M  V30 2542 H 241.598 -2.42886 5.19307 0
M  V30 2543 H 239.995 -1.83343 5.71407 0
M  V30 2544 H 241.065 -0.76528 4.78823 0
M  V30 2545 N 242.408 -1.52605 -0.393616 0
M  V30 2546 C 243.655 -1.67424 -1.1391 0
M  V30 2547 C 243.983 -0.411859 -1.90089 0
M  V30 2548 O 243.238 0.605626 -1.86093 0
M  V30 2549 C 243.537 -2.85721 -2.14705 0
M  V30 2550 C 243.203 -4.23342 -1.55218 0
M  V30 2551 C 241.865 -4.60771 -1.3872 0
M  V30 2552 C 244.217 -5.09041 -1.11924 0
M  V30 2553 C 241.545 -5.81563 -0.774689 0
M  V30 2554 C 243.897 -6.30452 -0.520853 0
M  V30 2555 C 242.561 -6.66617 -0.343134 0
M  V30 2556 H 241.831 -0.612648 -0.416826 0
M  V30 2557 H 244.478 -1.8674 -0.424315 0
M  V30 2558 H 242.783 -2.60803 -2.92385 0
M  V30 2559 H 244.48 -2.94382 -2.72288 0
M  V30 2560 H 241.07 -3.93855 -1.69045 0
M  V30 2561 H 245.254 -4.80695 -1.23473 0
M  V30 2562 H 240.51 -6.08196 -0.625154 0
M  V30 2563 H 244.684 -6.96175 -0.177065 0
M  V30 2564 H 242.311 -7.60083 0.133571 0
M  V30 2565 N 243.887 0.651787 -1.4349 0
M  V30 2566 C 245.164 1.40909 -1.35661 0
M  V30 2567 C 245.544 2.11099 -0.00511733 0
M  V30 2568 O 244.892 2.04892 1.0115 0
M  V30 2569 C 245.102 2.3926 -2.54078 0
M  V30 2570 C 246.45 3.03217 -2.97228 0
M  V30 2571 O 247.474 2.49588 -2.54135 0
M  V30 2572 O 246.333 4.00455 -3.71885 0
M  V30 2573 H 243.427 0.629625 -0.536191 0
M  V30 2574 H 245.973 0.678575 -1.55542 0
M  V30 2575 H 244.745 1.86352 -3.44076 0
M  V30 2576 H 244.368 3.1976 -2.36303 0
M  V30 2577 N 245.365 1.30045 0.890287 0
M  V30 2578 C 246.611 1.18737 1.64406 0
M  V30 2579 C 246.944 -0.258525 1.92472 0
M  V30 2580 O 246.219 -1.18562 1.54186 0
M  V30 2581 C 246.502 2.01087 2.98724 0
M  V30 2582 C 246.355 3.53867 2.77665 0
M  V30 2583 C 247.674 1.84457 3.9958 0
M  V30 2584 H 244.793 0.432698 0.596608 0
M  V30 2585 H 247.435 1.5962 1.0306 0
M  V30 2586 H 245.585 1.66349 3.51084 0
M  V30 2587 H 247.257 3.98637 2.32133 0
M  V30 2588 H 245.5 3.78318 2.12269 0
M  V30 2589 H 246.171 4.06772 3.7315 0
M  V30 2590 H 248.647 2.14817 3.56361 0
M  V30 2591 H 247.523 2.44411 4.91482 0
M  V30 2592 H 247.784 0.802276 4.3476 0
M  V30 2593 N 246.843 -1.10192 1.12674 0
M  V30 2594 C 248.089 -1.82475 0.884915 0
M  V30 2595 C 248.422 -1.85093 -0.58773 0
M  V30 2596 O 247.697 -1.3134 -1.43457 0
M  V30 2597 C 247.98 -3.29018 1.46353 0
M  V30 2598 C 247.833 -3.34718 3.00473 0
M  V30 2599 C 249.152 -4.25473 1.12519 0
M  V30 2600 H 246.271 -0.662492 0.322915 0
M  V30 2601 H 248.913 -1.2913 1.39375 0
M  V30 2602 H 247.063 -3.74576 1.03077 0
M  V30 2603 H 248.735 -2.97622 3.52447 0
M  V30 2604 H 246.978 -2.74541 3.35872 0
M  V30 2605 H 247.649 -4.37918 3.36053 0
M  V30 2606 H 250.125 -3.88161 1.499 0
M  V30 2607 H 249.001 -5.26365 1.55663 0
M  V30 2608 H 249.262 -4.42084 0.0377407 0
M  V30 2609 N 248.321 -0.919034 -1.28029 0
M  V30 2610 C 249.57 -0.550802 -1.94034 0
M  V30 2611 C 249.883 0.910877 -1.73096 0
M  V30 2612 O 251.089 1.3875 -2.33368 0
M  V30 2613 C 249.545 -0.934249 -3.47563 0
M  V30 2614 C 249.153 -2.41602 -3.7727 0
M  V30 2615 C 250.897 -0.636854 -4.19696 0
M  V30 2616 C 248.804 -2.73932 -5.24133 0
M  V30 2617 H 247.734 -0.202273 -0.726362 0
M  V30 2618 H 250.385 -1.11867 -1.45458 0
M  V30 2619 H 248.767 -0.295115 -3.94899 0
M  V30 2620 H 249.941 -3.10233 -3.40723 0
M  V30 2621 H 248.256 -2.68441 -3.18321 0
M  V30 2622 H 250.853 -0.855005 -5.2782 0
M  V30 2623 H 251.196 0.425575 -4.14119 0
M  V30 2624 H 251.729 -1.23469 -3.78154 0
M  V30 2625 H 248.468 -3.79049 -5.34792 0
M  V30 2626 H 247.988 -2.09942 -5.61858 0
M  V30 2627 H 249.667 -2.61215 -5.91925 0
M  V30 2628 N 249.799 1.42003 -0.683588 0
M  V30 2629 C 251.048 2.00638 -0.206681 0
M  V30 2630 C 251.361 1.5472 1.19671 0
M  V30 2631 O 252.567 2.05833 1.77045 0
M  V30 2632 C 251.023 3.58487 -0.318632 0
M  V30 2633 C 250.631 4.1339 -1.72663 0
M  V30 2634 C 252.375 4.24384 0.0991141 0
M  V30 2635 C 250.282 5.63633 -1.79087 0
M  V30 2636 H 249.212 0.750408 -0.0735107 0
M  V30 2637 H 251.863 1.62624 -0.850048 0
M  V30 2638 H 250.245 3.94047 0.392781 0
M  V30 2639 H 251.419 3.89273 -2.46583 0
M  V30 2640 H 249.734 3.59976 -2.09299 0
M  V30 2641 H 252.331 5.34652 0.0713833 0
M  V30 2642 H 252.674 4.00505 1.13586 0
M  V30 2643 H 253.207 3.93816 -0.561599 0
M  V30 2644 H 249.946 5.92323 -2.80774 0
M  V30 2645 H 249.466 5.89714 -1.09535 0
M  V30 2646 H 251.145 6.28201 -1.5483 0
M  V30 2647 N 251.277 0.427512 1.51691 0
M  V30 2648 C 252.225 -0.403359 2.29076 0
M  V30 2649 C 253.219 -1.02962 1.34518 0
M  V30 2650 O 254.425 -0.965715 1.51901 0
M  V30 2651 H 250.8 -0.148879 0.737115 0
M  V30 2652 H 252.771 0.270295 2.97173 0
M  V30 2653 C 251.52 -1.49763 3.13794 0
M  V30 2654 H 250.843 -1.02508 3.86435 0
M  V30 2655 H 252.283 -2.05244 3.71014 0
M  V30 2656 C 250.742 -2.47536 2.28533 0
M  V30 2657 O 251.272 -3.51848 1.93819 0
M  V30 2658 N 249.478 -2.18187 1.91945 0
M  V30 2659 H 249.025 -1.33389 2.20375 0
M  V30 2660 H 248.983 -2.83848 1.35195 0
M  V30 2661 N 252.755 -1.56801 0.158532 0
M  V30 2662 C 254.032 -1.88131 -0.535357 0
M  V30 2663 C 254.412 -1.06638 -1.82186 0
M  V30 2664 O 253.76 -0.156533 -2.27963 0
M  V30 2665 C 253.97 -3.39949 -0.789653 0
M  V30 2666 C 255.318 -4.09416 -1.12533 0
M  V30 2667 O 256.342 -3.45194 -0.878622 0
M  V30 2668 O 255.201 -5.22855 -1.59014 0
M  V30 2669 H 252.295 -0.780143 -0.27442 0
M  V30 2670 H 254.841 -1.68564 0.19601 0
M  V30 2671 H 253.613 -3.91115 0.120353 0
M  V30 2672 H 253.236 -3.65084 -1.57479 0
M  V30 2673 N 254.233 0.115231 -1.57178 0
M  V30 2674 C 255.458 0.840354 -1.89612 0
M  V30 2675 C 255.883 1.72464 -0.750845 0
M  V30 2676 O 255.241 1.78826 0.298478 0
M  V30 2677 C 255.289 1.64654 -3.20814 0
M  V30 2678 O 254.393 2.7538 -3.06985 0
M  V30 2679 H 253.734 0.232158 -0.622092 0
M  V30 2680 H 256.264 0.0964977 -2.04372 0
M  V30 2681 H 256.274 2.03499 -3.53627 0
M  V30 2682 H 254.949 0.997416 -4.03763 0
M  V30 2683 H 253.526 2.3971 -2.85646 0
M  V30 2684 N 255.711 1.52812 0.385517 0
M  V30 2685 C 256.641 1.80808 1.47752 0
M  V30 2686 C 257.622 0.660318 1.5676 0
M  V30 2687 O 258.807 0.908246 1.71652 0
M  V30 2688 C 255.937 1.98008 2.85324 0
M  V30 2689 C 254.891 3.13709 2.91154 0
M  V30 2690 C 254.217 3.16169 4.31209 0
M  V30 2691 C 255.517 4.52709 2.60483 0
M  V30 2692 H 257.211 2.72253 1.24573 0
M  V30 2693 H 254.757 1.31003 0.597839 0
M  V30 2694 H 256.71 2.16176 3.61726 0
M  V30 2695 H 255.434 1.03255 3.09848 0
M  V30 2696 H 254.093 2.95329 2.17201 0
M  V30 2697 H 253.741 2.19092 4.52778 0
M  V30 2698 H 253.441 3.93894 4.36029 0
M  V30 2699 H 254.965 3.36496 5.09512 0
M  V30 2700 H 256.379 4.71173 3.26602 0
M  V30 2701 H 254.776 5.32528 2.76648 0
M  V30 2702 H 255.846 4.59186 1.55809 0
M  V30 2703 N 257.189 -0.644168 1.43834 0
M  V30 2704 C 258.466 -1.40188 1.36406 0
M  V30 2705 C 258.846 -2.11094 0.0163124 0
M  V30 2706 O 258.194 -2.05426 -1.00062 0
M  V30 2707 C 258.404 -2.3791 2.55343 0
M  V30 2708 C 259.752 -3.01637 2.98832 0
M  V30 2709 O 260.776 -2.48237 2.55455 0
M  V30 2710 O 259.635 -3.98477 3.74003 0
M  V30 2711 H 256.729 -0.626773 0.539523 0
M  V30 2712 H 259.275 -0.670317 1.559 0
M  V30 2713 H 258.047 -1.84525 3.4506 0
M  V30 2714 H 257.67 -3.18503 2.37995 0
M  V30 2715 N 258.668 -1.30515 -0.883378 0
M  V30 2716 C 259.6 -1.12846 -1.99496 0
M  V30 2717 C 260.613 -0.0712571 -1.62644 0
M  V30 2718 O 261.802 -0.317432 -1.75655 0
M  V30 2719 C 258.902 -0.699123 -3.3161 0
M  V30 2720 C 258.075 -1.83842 -3.96889 0
M  V30 2721 C 257.134 -1.39737 -5.07307 0
M  V30 2722 O 256.16 -2.10485 -5.28852 0
M  V30 2723 N 257.362 -0.277279 -5.79837 0
M  V30 2724 H 260.127 -2.08585 -2.15203 0
M  V30 2725 H 257.688 -1.22672 -1.05656 0
M  V30 2726 H 259.68 -0.387044 -4.02845 0
M  V30 2727 H 258.25 0.166276 -3.12157 0
M  V30 2728 H 257.47 -2.31853 -3.18807 0
M  V30 2729 H 258.758 -2.60187 -4.37241 0
M  V30 2730 H 258.156 0.3122 -5.64838 0
M  V30 2731 H 256.713 -0.0246623 -6.51795 0
M  V30 2732 N 260.146 1.09593 -1.13257 0
M  V30 2733 C 261.109 2.14359 -0.811358 0
M  V30 2734 C 262.109 1.59808 0.178377 0
M  V30 2735 O 263.299 1.74132 -0.0484911 0
M  V30 2736 C 260.431 3.40269 -0.207276 0
M  V30 2737 H 261.624 2.44284 -1.73969 0
M  V30 2738 H 259.177 1.25102 -0.936973 0
M  V30 2739 H 259.912 3.15969 0.73036 0
M  V30 2740 H 259.697 3.81154 -0.919992 0
M  V30 2741 H 261.187 4.176 0.000667944 0
M  V30 2742 N 261.624 0.925811 1.2754 0
M  V30 2743 C 262.854 0.580666 1.98272 0
M  V30 2744 C 263.262 -0.845207 1.69272 0
M  V30 2745 O 262.605 -1.57306 0.948707 0
M  V30 2746 C 262.667 0.724418 3.52126 0
M  V30 2747 C 262.331 2.12206 4.04744 0
M  V30 2748 C 263.328 3.09604 4.17662 0
M  V30 2749 C 261.013 2.4385 4.39138 0
M  V30 2750 C 263.007 4.36755 4.64246 0
M  V30 2751 C 260.694 3.71237 4.85414 0
M  V30 2752 C 261.692 4.67503 4.97926 0
M  V30 2753 O 261.38 5.92624 5.43187 0
M  V30 2754 H 261.112 0.218987 0.639547 0
M  V30 2755 H 263.666 1.24452 1.63404 0
M  V30 2756 H 261.896 0.0034663 3.867 0
M  V30 2757 H 263.585 0.384607 4.04074 0
M  V30 2758 H 264.351 2.86478 3.91351 0
M  V30 2759 H 260.23 1.69665 4.28643 0
M  V30 2760 H 263.774 5.11898 4.73927 0
M  V30 2761 H 259.671 3.94182 5.11166 0
M  V30 2762 H 260.439 5.95585 5.61445 0
M  V30 2763 N 263.102 -1.41638 0.69111 0
M  V30 2764 C 264.065 -2.29178 0.0319786 0
M  V30 2765 C 265.065 -1.44153 -0.712496 0
M  V30 2766 O 266.255 -1.65354 -0.548053 0
M  V30 2767 C 263.387 -3.26952 -0.965161 0
M  V30 2768 H 264.58 -2.88959 0.802681 0
M  V30 2769 H 262.133 -1.4955 0.454356 0
M  V30 2770 H 262.868 -2.72142 -1.76378 0
M  V30 2771 H 262.653 -3.89685 -0.434522 0
M  V30 2772 H 264.143 -3.92561 -1.42428 0
M  V30 2773 N 264.58 -0.43555 -1.51462 0
M  V30 2774 C 265.49 0.383001 -2.31453 0
M  V30 2775 C 266.506 1.02931 -1.4029 0
M  V30 2776 O 267.682 1.02507 -1.73362 0
M  V30 2777 C 264.747 1.47043 -3.13973 0
M  V30 2778 C 263.808 0.844433 -4.20913 0
M  V30 2779 C 263.041 1.88004 -4.9949 0
M  V30 2780 O 263.264 3.10199 -4.78678 0
M  V30 2781 O 262.198 1.47157 -5.83634 0
M  V30 2782 H 266.024 -0.269964 -3.02498 0
M  V30 2783 H 263.609 -0.19813 -1.4808 0
M  V30 2784 H 265.491 2.10113 -3.65281 0
M  V30 2785 H 264.166 2.10751 -2.45695 0
M  V30 2786 H 263.073 0.175729 -3.73687 0
M  V30 2787 H 264.406 0.250869 -4.9156 0
M  V30 2788 N 266.058 1.56714 -0.166846 0
M  V30 2789 C 266.988 2.20754 0.760913 0
M  V30 2790 C 267.969 1.16178 1.24244 0
M  V30 2791 O 269.154 1.44592 1.29641 0
M  V30 2792 C 266.284 2.84478 1.99223 0
M  V30 2793 C 265.238 3.95053 1.64672 0
M  V30 2794 C 264.564 4.45805 2.95232 0
M  V30 2795 C 265.864 5.14865 0.878155 0
M  V30 2796 H 267.558 2.98537 0.22713 0
M  V30 2797 H 265.104 1.43596 0.107805 0
M  V30 2798 H 267.057 3.27951 2.64624 0
M  V30 2799 H 265.781 2.04056 2.55007 0
M  V30 2800 H 264.44 3.52228 1.01641 0
M  V30 2801 H 264.088 3.62181 3.49047 0
M  V30 2802 H 263.788 5.204 2.7287 0
M  V30 2803 H 265.312 4.91962 3.6167 0
M  V30 2804 H 266.726 5.55059 1.43466 0
M  V30 2805 H 265.123 5.95348 0.753738 0
M  V30 2806 H 266.193 4.84735 -0.126377 0
M  V30 2807 N 267.536 -0.106894 1.57237 0
M  V30 2808 C 268.483 -1.13049 2.01217 0
M  V30 2809 C 269.453 -1.40471 0.886403 0
M  V30 2810 O 270.638 -1.52133 1.15153 0
M  V30 2811 C 267.778 -2.4487 2.43172 0
M  V30 2812 C 266.891 -2.24281 3.69218 0
M  V30 2813 C 266.026 -3.49417 4.00101 0
M  V30 2814 C 265.065 -3.24038 5.19294 0
M  V30 2815 N 264.202 -4.41409 5.45988 0
M  V30 2816 H 269.042 -0.748456 2.88448 0
M  V30 2817 H 266.579 -0.358054 1.42676 0
M  V30 2818 H 268.537 -3.21786 2.65537 0
M  V30 2819 H 267.167 -2.80944 1.58967 0
M  V30 2820 H 266.219 -1.38224 3.54398 0
M  V30 2821 H 267.531 -2.01512 4.56283 0
M  V30 2822 H 266.685 -4.34746 4.2318 0
M  V30 2823 H 265.424 -3.75229 3.11535 0
M  V30 2824 H 264.429 -2.37102 4.96047 0
M  V30 2825 H 265.654 -2.99584 6.09447 0
M  V30 2826 H 263.6 -4.67319 4.60379 0
M  V30 2827 H 263.517 -4.21788 6.274 0
M  V30 2828 H 264.785 -5.27836 5.73593 0
M  V30 2829 N 269.014 -1.53014 -0.377408 0
M  V30 2830 C 269.924 -1.81557 -1.48574 0
M  V30 2831 C 270.94 -0.703102 -1.59162 0
M  V30 2832 O 272.116 -0.99192 -1.75279 0
M  V30 2833 C 269.181 -1.9889 -2.83978 0
M  V30 2834 C 268.242 -3.22801 -2.83016 0
M  V30 2835 C 267.475 -3.39298 -4.11962 0
M  V30 2836 O 267.698 -2.60345 -5.0752 0
M  V30 2837 O 266.632 -4.32604 -4.18494 0
M  V30 2838 H 270.458 -2.75695 -1.27382 0
M  V30 2839 H 268.043 -1.38248 -0.566373 0
M  V30 2840 H 269.925 -2.11931 -3.6423 0
M  V30 2841 H 268.6 -1.07942 -3.05172 0
M  V30 2842 H 267.507 -3.15193 -2.01505 0
M  V30 2843 H 268.84 -4.13632 -2.66775 0
M  V30 2844 N 270.492 0.636531 -1.44174 0
M  V30 2845 C 271.455 1.73063 -1.50273 0
M  V30 2846 C 272.455 1.56113 -0.385397 0
M  V30 2847 O 273.645 1.61707 -0.64781 0
M  V30 2848 C 270.777 3.12096 -1.37145 0
M  V30 2849 H 271.97 1.69031 -2.47727 0
M  V30 2850 H 269.523 0.849706 -1.31186 0
M  V30 2851 H 270.258 3.21728 -0.407636 0
M  V30 2852 H 270.043 3.25805 -2.18159 0
M  V30 2853 H 271.533 3.91846 -1.44382 0
M  V30 2854 N 271.97 1.30982 0.876444 0
M  V30 2855 C 272.9 1.20668 1.99903 0
M  V30 2856 C 273.881 0.095354 1.69833 0
M  V30 2857 O 275.066 0.27885 1.92188 0
M  V30 2858 C 272.196 0.90655 3.3526 0
M  V30 2859 C 271.15 1.97675 3.79617 0
M  V30 2860 C 270.476 1.52943 5.1236 0
M  V30 2861 C 271.776 3.389 3.97422 0
M  V30 2862 H 273.47 2.14586 2.0879 0
M  V30 2863 H 271.016 1.03308 1.00317 0
M  V30 2864 H 272.969 0.821025 4.13324 0
M  V30 2865 H 271.693 -0.0682969 3.26529 0
M  V30 2866 H 270.352 2.05205 3.03787 0
M  V30 2867 H 270 0.54262 5.00065 0
M  V30 2868 H 269.7 2.24532 5.43009 0
M  V30 2869 H 271.224 1.45786 5.92941 0
M  V30 2870 H 272.638 3.34081 4.659 0
M  V30 2871 H 271.035 4.0865 4.3946 0
M  V30 2872 H 272.105 3.80163 3.01006 0
M  V30 2873 N 273.449 -1.08991 1.13837 0
M  V30 2874 C 274.674 -1.85551 0.926585 0
M  V30 2875 C 275.099 -1.80782 -0.519566 0
M  V30 2876 O 274.457 -1.18855 -1.36906 0
M  V30 2877 C 274.505 -3.31266 1.42462 0
M  V30 2878 O 273.609 -4.07822 0.612789 0
M  V30 2879 H 272.95 -0.575192 0.331738 0
M  V30 2880 H 275.48 -1.37604 1.51414 0
M  V30 2881 H 275.49 -3.82112 1.43019 0
M  V30 2882 H 274.165 -3.34052 2.47754 0
M  V30 2883 H 272.742 -3.66731 0.675463 0
M  V30 2884 N 274.927 -0.932562 -1.27047 0
M  V30 2885 C 275.837 -0.441219 -2.30414 0
M  V30 2886 C 276.853 0.480525 -1.67233 0
M  V30 2887 O 278.029 0.362151 -1.98117 0
M  V30 2888 C 275.094 0.293651 -3.45454 0
M  V30 2889 C 274.155 -0.663601 -4.2414 0
M  V30 2890 C 273.388 0.0362932 -5.33688 0
M  V30 2891 O 273.611 1.2548 -5.56427 0
M  V30 2892 O 272.545 -0.638015 -5.98509 0
M  V30 2893 H 276.371 -1.29962 -2.74488 0
M  V30 2894 H 273.956 -0.6981 -1.32087 0
M  V30 2895 H 275.838 0.707951 -4.15411 0
M  V30 2896 H 274.513 1.12758 -3.03426 0
M  V30 2897 H 273.42 -1.12768 -3.56699 0
M  V30 2898 H 274.753 -1.46489 -4.69896 0
M  V30 2899 N 276.405 1.4127 -0.698611 0
M  V30 2900 C 277.315 2.34573 -0.0357891 0
M  V30 2901 C 278.331 1.56393 0.762701 0
M  V30 2902 O 279.507 1.8886 0.699564 0
M  V30 2903 C 276.572 3.35159 0.887089 0
M  V30 2904 C 275.633 4.29225 0.0804634 0
M  V30 2905 C 274.866 5.25006 0.959387 0
M  V30 2906 O 275.089 5.26314 2.19886 0
M  V30 2907 O 274.023 6.00519 0.407439 0
M  V30 2908 H 277.849 2.92838 -0.804957 0
M  V30 2909 H 275.434 1.42175 -0.458966 0
M  V30 2910 H 277.316 3.9689 1.41621 0
M  V30 2911 H 275.991 2.79333 1.6357 0
M  V30 2912 H 274.898 3.70833 -0.493328 0
M  V30 2913 H 276.231 4.88157 -0.629547 0
M  V30 2914 N 277.883 0.443576 1.51229 0
M  V30 2915 C 279.132 -0.122332 2.01329 0
M  V30 2916 C 279.445 -1.43237 1.33201 0
M  V30 2917 O 280.651 -2.0816 1.74304 0
M  V30 2918 C 279.107 -0.268551 3.58897 0
M  V30 2919 C 278.715 1.03142 4.35965 0
M  V30 2920 C 280.459 -0.787894 4.17124 0
M  V30 2921 C 278.366 0.850504 5.85252 0
M  V30 2922 H 277.296 -0.0494929 0.752374 0
M  V30 2923 H 279.947 0.574289 1.74282 0
M  V30 2924 H 278.329 -1.02832 3.82415 0
M  V30 2925 H 279.503 1.80001 4.24189 0
M  V30 2926 H 277.818 1.47977 3.89219 0
M  V30 2927 H 280.415 -0.939841 5.26375 0
M  V30 2928 H 280.758 -1.77201 3.76703 0
M  V30 2929 H 281.291 -0.0862669 3.97706 0
M  V30 2930 H 278.03 1.80718 6.30096 0
M  V30 2931 H 277.55 0.121825 5.99676 0
M  V30 2932 H 279.229 0.506163 6.45017 0
M  V30 2933 N 279.361 -1.56624 0.175154 0
M  V30 2934 C 280.308 -2.18149 -0.753634 0
M  V30 2935 C 281.278 -1.12265 -1.22417 0
M  V30 2936 O 282.463 -1.40432 -1.29165 0
M  V30 2937 C 279.603 -2.82933 -1.97592 0
M  V30 2938 C 278.716 -4.03289 -1.5486 0
M  V30 2939 C 277.851 -4.55988 -2.72485 0
M  V30 2940 C 276.89 -5.68746 -2.26262 0
M  V30 2941 N 276.027 -6.15938 -3.36994 0
M  V30 2942 H 280.867 -2.9717 -0.222195 0
M  V30 2943 H 278.404 -1.46774 -0.0979422 0
M  V30 2944 H 280.362 -3.18653 -2.69288 0
M  V30 2945 H 278.992 -2.06509 -2.481 0
M  V30 2946 H 278.044 -3.73364 -0.728246 0
M  V30 2947 H 279.356 -4.849 -1.16933 0
M  V30 2948 H 278.51 -4.9391 -3.52332 0
M  V30 2949 H 277.249 -3.73443 -3.13674 0
M  V30 2950 H 276.254 -5.30372 -1.44863 0
M  V30 2951 H 277.479 -6.53095 -1.86127 0
M  V30 2952 H 275.425 -5.36321 -3.77751 0
M  V30 2953 H 275.342 -6.92548 -3.03172 0
M  V30 2954 H 276.61 -6.58511 -4.17114 0
M  V30 2955 N 280.839 0.0985539 -1.57292 0
M  V30 2956 C 281.786 1.11981 -2.01814 0
M  V30 2957 C 282.756 1.39999 -0.89384 0
M  V30 2958 O 283.941 1.5152 -1.15958 0
M  V30 2959 C 281.081 2.43577 -2.44467 0
M  V30 2960 C 280.194 2.2232 -3.70402 0
M  V30 2961 C 279.329 3.4729 -4.01949 0
M  V30 2962 C 278.368 3.2128 -5.21005 0
M  V30 2963 N 277.505 4.38507 -5.48321 0
M  V30 2964 H 282.345 0.733149 -2.88841 0
M  V30 2965 H 279.882 0.350482 -1.42864 0
M  V30 2966 H 281.84 3.20373 -2.6724 0
M  V30 2967 H 280.47 2.80097 -1.60455 0
M  V30 2968 H 279.522 1.36343 -3.55126 0
M  V30 2969 H 280.834 1.99089 -4.57345 0
M  V30 2970 H 279.988 4.32495 -4.25479 0
M  V30 2971 H 278.727 3.73572 -3.13521 0
M  V30 2972 H 277.732 2.34468 -4.97298 0
M  V30 2973 H 278.957 2.96348 -6.11028 0
M  V30 2974 H 276.903 4.64871 -4.62851 0
M  V30 2975 H 276.82 4.18455 -6.29628 0
M  V30 2976 H 278.088 5.24787 -5.76385 0
M  V30 2977 N 282.317 1.53212 0.369288 0
M  V30 2978 C 283.28 1.7872 1.43498 0
M  V30 2979 C 284.28 0.657554 1.46741 0
M  V30 2980 O 285.47 0.925736 1.47566 0
M  V30 2981 C 282.602 1.90591 2.82645 0
M  V30 2982 H 283.795 2.73894 1.22156 0
M  V30 2983 H 281.348 1.44233 0.602203 0
M  V30 2984 H 282.083 0.974709 3.09306 0
M  V30 2985 H 281.868 2.72751 2.8169 0
M  V30 2986 H 283.358 2.11931 3.59826 0
M  V30 2987 N 283.795 -0.628877 1.44509 0
M  V30 2988 C 284.727 -1.754 1.47538 0
M  V30 2989 C 285.74 -1.58575 0.368506 0
M  V30 2990 O 286.929 -1.66847 0.634376 0
M  V30 2991 C 284.029 -3.1315 1.29577 0
M  V30 2992 C 283.202 -3.56413 2.53551 0
M  V30 2993 C 282.261 -4.7305 2.30457 0
M  V30 2994 O 281.287 -4.81247 3.03957 0
M  V30 2995 N 282.489 -5.64903 1.3366 0
M  V30 2996 H 285.254 -1.73272 2.44534 0
M  V30 2997 H 282.815 -0.813512 1.39977 0
M  V30 2998 H 284.807 -3.88902 1.11971 0
M  V30 2999 H 283.377 -3.09908 0.409371 0
M  V30 3000 H 282.597 -2.70847 2.86419 0
M  V30 3001 H 283.885 -3.82071 3.36005 0
M  V30 3002 H 283.283 -5.60975 0.729604 0
M  V30 3003 H 281.84 -6.40275 1.22032 0
M  V30 3004 N 285.273 -1.31445 -0.869486 0
M  V30 3005 C 286.689 -1.10113 -1.15531 0
M  V30 3006 C 286.889 0.128087 -2.01092 0
M  V30 3007 O 285.945 0.817276 -2.38908 0
M  V30 3008 C 287.258 -2.37291 -1.84698 0
M  V30 3009 C 288.806 -2.42906 -1.97397 0
M  V30 3010 C 289.281 -3.69967 -2.69979 0
M  V30 3011 N 290.772 -3.70864 -2.77514 0
M  V30 3012 C 291.507 -4.65875 -3.34287 0
M  V30 3013 N 291.003 -5.71242 -3.91988 0
M  V30 3014 N 292.796 -4.53394 -3.3225 0
M  V30 3015 H 284.947 -2.1028 -0.299347 0
M  V30 3016 H 287.21 -0.927683 -0.195214 0
M  V30 3017 H 286.916 -3.27078 -1.29278 0
M  V30 3018 H 286.79 -2.47125 -2.84972 0
M  V30 3019 H 289.177 -1.53588 -2.51982 0
M  V30 3020 H 289.258 -2.37036 -0.961643 0
M  V30 3021 H 288.902 -4.59652 -2.16062 0
M  V30 3022 H 288.832 -3.73103 -3.7162 0
M  V30 3023 H 291.323 -2.94697 -2.36563 0
M  V30 3024 H 291.636 -6.39817 -4.33421 0
M  V30 3025 H 289.981 -5.75015 -3.90362 0
M  V30 3026 H 293.172 -3.70252 -2.8641 0
M  V30 3027 H 293.345 -5.27617 -3.76197 0
M  V30 3028 N 286.751 1.08385 -1.14413 0
M  V30 3029 C 287.979 1.84517 -0.936001 0
M  V30 3030 C 288.394 1.81626 0.515503 0
M  V30 3031 O 287.751 1.22008 1.35721 0
M  V30 3032 C 287.802 3.32049 -1.42918 0
M  V30 3033 O 287.523 3.34951 -2.82381 0
M  V30 3034 C 289.024 4.24986 -1.26103 0
M  V30 3035 H 286.244 0.582491 -0.333084 0
M  V30 3036 H 288.788 1.36885 -1.5193 0
M  V30 3037 H 286.943 3.7707 -0.888641 0
M  V30 3038 H 287.357 4.27048 -3.04517 0
M  V30 3039 H 288.831 5.26615 -1.6547 0
M  V30 3040 H 289.308 4.38726 -0.20392 0
M  V30 3041 H 289.914 3.85791 -1.79012 0
M  V30 3042 N 288.23 0.939286 1.26551 0
M  V30 3043 C 289.478 0.58469 1.93457 0
M  V30 3044 C 289.799 -0.878774 1.74076 0
M  V30 3045 O 289.069 -1.62421 1.09528 0
M  V30 3046 H 287.649 0.21325 0.715914 0
M  V30 3047 H 290.311 1.1942 1.54029 0
M  V30 3048 H 289.407 0.800849 3.0165 0
M  V30 3049 N 289.708 -1.40897 0.706093 0
M  V30 3050 C 290.671 -2.29131 0.0562841 0
M  V30 3051 C 291.671 -1.44901 -0.697166 0
M  V30 3052 O 292.861 -1.65926 -0.530484 0
M  V30 3053 C 289.993 -3.27957 -0.93043 0
M  V30 3054 H 291.186 -2.88091 0.833284 0
M  V30 3055 H 288.739 -1.4906 0.470192 0
M  V30 3056 H 289.474 -2.73997 -1.73482 0
M  V30 3057 H 289.259 -3.90124 -0.393166 0
M  V30 3058 H 290.749 -3.94049 -1.38256 0
M  V30 3059 O 291.225 -0.593567 -1.50197 0
M  V30 3060 H 291.916 -0.101366 -1.93435 0
M  V30 END ATOM
M  V30 BEGIN BOND
M  V30 END BOND
M  V30 END CTAB
M  END
$$$$
