drugbank_target|Q16739 Ceramide glucosyltransferase (DB00419; DB09039)
 OpenBabel12092119323D

  0  0  0     0  0            999 V3000
M  V30 BEGIN CTAB
M  V30 COUNTS 6327 6410 0 0 0
M  V30 BEGIN ATOM
M  V30 1 H -0.908 1.98254 -0.117106 0
M  V30 2 N 0 1.576 0 0
M  V30 3 C 0.933 2.03868 1.02534 0
M  V30 4 C 1.911 0.928543 1.3348 0
M  V30 5 O 3.095 1.19667 1.45644 0
M  V30 6 C 0.222 2.43627 2.35294 0
M  V30 7 C -0.732 3.65373 2.2001 0
M  V30 8 S 0.101 5.13292 1.52614 0
M  V30 9 C 1.257 5.56322 2.86805 0
M  V30 10 H 1.49 2.90518 0.631377 0
M  V30 11 H -0.977 1.52953 0.210867 0
M  V30 12 H 0.981 2.67203 3.11629 0
M  V30 13 H -0.358 1.57376 2.7183 0
M  V30 14 H -1.165 3.90944 3.18086 0
M  V30 15 H -1.563 3.418 1.51819 0
M  V30 16 H 0.729 5.58782 3.83104 0
M  V30 17 H 1.672 6.56266 2.65933 0
M  V30 18 H 2.08 4.83886 2.90714 0
M  V30 19 N 1.4781 -0.272755 1.55222 0
M  V30 20 C 2.4411 -1.32041 1.87344 0
M  V30 21 C 3.4411 -1.42342 0.74803 0
M  V30 22 O 4.6311 -1.41488 1.0162 0
M  V30 23 C 1.7631 -2.70173 2.07893 0
M  V30 24 H 2.9561 -1.04789 2.80997 0
M  V30 25 H 0.5091 -0.51083 1.47717 0
M  V30 26 H 1.2441 -3.02605 1.16622 0
M  V30 27 H 1.0291 -2.64082 2.89833 0
M  V30 28 H 2.5191 -3.45869 2.34017 0
M  V30 29 N 2.9562 -1.48159 -0.537278 0
M  V30 30 C 3.8862 -1.65029 -1.6519 0
M  V30 31 C 4.8672 -0.499281 -1.62607 0
M  V30 32 O 6.0522 -0.730972 -1.79918 0
M  V30 33 C 3.1822 -1.68303 -3.03795 0
M  V30 34 C 2.1362 -2.8283 -3.21234 0
M  V30 35 C 1.4622 -2.71189 -4.60826 0
M  V30 36 C 2.7622 -4.24211 -3.04701 0
M  V30 37 H 4.4562 -2.58341 -1.51328 0
M  V30 38 H 2.0022 -1.24325 -0.726585 0
M  V30 39 H 3.9552 -1.78693 -3.81637 0
M  V30 40 H 2.6792 -0.715635 -3.18663 0
M  V30 41 H 1.3382 -2.71983 -2.45807 0
M  V30 42 H 0.9862 -1.72435 -4.7252 0
M  V30 43 H 0.6862 -3.48035 -4.7344 0
M  V30 44 H 2.2102 -2.83537 -5.40777 0
M  V30 45 H 3.6242 -4.3593 -3.72341 0
M  V30 46 H 2.0212 -5.01998 -3.28813 0
M  V30 47 H 3.0912 -4.41184 -2.01209 0
M  V30 48 N 4.4343 0.785586 -1.36625 0
M  V30 49 C 5.3643 1.91259 -1.33949 0
M  V30 50 C 6.3453 1.68795 -0.210325 0
M  V30 51 O 7.5303 1.89854 -0.408561 0
M  V30 52 C 4.6603 3.28339 -1.13186 0
M  V30 53 C 3.6143 3.65335 -2.22967 0
M  V30 54 C 2.9403 5.00806 -1.87342 0
M  V30 55 C 4.2403 3.7352 -3.65075 0
M  V30 56 H 5.9343 1.93755 -2.28253 0
M  V30 57 H 3.4803 0.930788 -1.09874 0
M  V30 58 H 5.4333 4.06804 -1.09948 0
M  V30 59 H 4.1573 3.2624 -0.153332 0
M  V30 60 H 2.8163 2.89169 -2.25337 0
M  V30 61 H 2.4643 4.95233 -0.880545 0
M  V30 62 H 2.1643 5.26529 -2.60846 0
M  V30 63 H 3.6883 5.81687 -1.85667 0
M  V30 64 H 5.1023 4.42168 -3.64911 0
M  V30 65 H 3.4993 4.10731 -4.37516 0
M  V30 66 H 4.5693 2.74527 -3.99703 0
M  V30 67 N 5.9124 1.20967 1.01018 0
M  V30 68 C 7.1894 0.93264 1.71934 0
M  V30 69 C 7.5694 -0.55692 2.03621 0
M  V30 70 O 6.9174 -1.52035 1.7058 0
M  V30 71 C 7.1274 1.81233 2.98254 0
M  V30 72 C 8.4754 2.05804 3.71389 0
M  V30 73 O 9.4994 1.78539 3.08225 0
M  V30 74 O 8.3584 2.51888 4.84989 0
M  V30 75 H 5.4524 0.349272 0.749625 0
M  V30 76 H 7.9984 1.31871 1.06808 0
M  V30 77 H 6.7704 2.82067 2.71208 0
M  V30 78 H 6.3934 1.42674 3.7112 0
M  V30 79 N 7.3905 -1.2043 1.01659 0
M  V30 80 C 8.3205 -2.25466 0.607226 0
M  V30 81 C 9.3015 -1.65853 -0.377716 0
M  V30 82 O 10.4865 -1.92409 -0.263149 0
M  V30 83 C 7.6165 -3.47256 -0.0552949 0
M  V30 84 C 6.5705 -4.19462 0.850632 0
M  V30 85 C 5.8965 -5.34673 0.0538859 0
M  V30 86 C 7.1965 -4.75603 2.15868 0
M  V30 87 H 8.8905 -2.59962 1.48526 0
M  V30 88 H 6.4365 -1.2496 0.715605 0
M  V30 89 H 8.3895 -4.19917 -0.353233 0
M  V30 90 H 7.1135 -3.11924 -0.968045 0
M  V30 91 H 5.7725 -3.48667 1.13257 0
M  V30 92 H 5.4205 -4.95585 -0.860514 0
M  V30 93 H 5.1205 -5.83913 0.657192 0
M  V30 94 H 6.6445 -6.10138 -0.237598 0
M  V30 95 H 8.0585 -5.40083 1.92311 0
M  V30 96 H 6.4555 -5.3528 2.71284 0
M  V30 97 H 7.5255 -3.94346 2.82169 0
M  V30 98 N 8.8686 -0.792821 -1.36206 0
M  V30 99 C 9.8316 -0.199459 -2.2833 0
M  V30 100 C 10.8316 0.605189 -1.48977 0
M  V30 101 O 12.0216 0.425685 -1.68919 0
M  V30 102 C 9.1536 0.723523 -3.33134 0
M  V30 103 H 10.3466 -1.01181 -2.82316 0
M  V30 104 H 7.8996 -0.562485 -1.45828 0
M  V30 105 H 8.6346 1.56008 -2.84309 0
M  V30 106 H 8.4196 0.148436 -3.91819 0
M  V30 107 H 9.9096 1.13344 -4.01924 0
M  V30 108 N 10.3467 1.47872 -0.545128 0
M  V30 109 C 11.2767 2.32661 0.197793 0
M  V30 110 C 12.2577 1.43041 0.920504 0
M  V30 111 O 13.4427 1.71912 0.90333 0
M  V30 112 C 10.5727 3.24569 1.23582 0
M  V30 113 C 9.5267 4.23333 0.630323 0
M  V30 114 C 8.8527 5.0448 1.77211 0
M  V30 115 C 10.1527 5.20704 -0.407974 0
M  V30 116 H 11.8467 2.95024 -0.510045 0
M  V30 117 H 9.3927 1.4187 -0.246731 0
M  V30 118 H 11.3457 3.8272 1.76362 0
M  V30 119 H 10.0697 2.60236 1.97344 0
M  V30 120 H 8.7287 3.6639 0.123922 0
M  V30 121 H 8.3767 4.36561 2.49847 0
M  V30 122 H 8.0767 5.71339 1.37281 0
M  V30 123 H 9.6007 5.65487 2.3034 0
M  V30 124 H 11.0147 5.7329 0.033305 0
M  V30 125 H 9.4117 5.95699 -0.725486 0
M  V30 126 H 10.4817 4.66917 -1.30828 0
M  V30 127 N 11.8248 0.280983 1.55075 0
M  V30 128 C 12.7348 -0.61388 2.26426 0
M  V30 129 C 13.7508 -1.16521 1.29224 0
M  V30 130 O 14.9268 -1.19426 1.62171 0
M  V30 131 C 11.9918 -1.7788 2.9759 0
M  V30 132 C 11.0528 -1.26355 4.10284 0
M  V30 133 C 10.2858 -2.37295 4.78045 0
M  V30 134 O 10.5088 -3.56777 4.45047 0
M  V30 135 O 9.4428 -2.05119 5.65871 0
M  V30 136 H 13.2688 -0.0356932 3.03679 0
M  V30 137 H 10.8538 0.0481686 1.49322 0
M  V30 138 H 12.7358 -2.45791 3.42293 0
M  V30 139 H 11.4108 -2.34397 2.23249 0
M  V30 140 H 10.3178 -0.550735 3.70024 0
M  V30 141 H 11.6508 -0.744065 4.86543 0
M  V30 142 N 13.3029 -1.57598 0.00835791 0
M  V30 143 C 14.5509 -1.90551 -0.6734 0
M  V30 144 C 14.8719 -0.883301 -1.73847 0
M  V30 145 O 14.1419 0.0781442 -1.95744 0
M  V30 146 H 12.7219 -0.703312 -0.251717 0
M  V30 147 H 15.3839 -1.94833 0.0512592 0
M  V30 148 H 14.4799 -2.9056 -1.13935 0
M  V30 149 N 14.781 0.264519 -1.55364 0
M  V30 150 C 15.714 1.35297 -1.83766 0
M  V30 151 C 16.692 1.47171 -0.691336 0
M  V30 152 O 17.876 1.63663 -0.935238 0
M  V30 153 C 15.003 2.72847 -2.00679 0
M  V30 154 C 14.049 2.78214 -3.23263 0
M  V30 155 S 14.882 2.36601 -4.80396 0
M  V30 156 C 16.038 3.7611 -5.00292 0
M  V30 157 H 16.271 1.11003 -2.758 0
M  V30 158 H 13.804 0.464596 -1.47244 0
M  V30 159 H 15.762 3.52057 -2.11108 0
M  V30 160 H 14.423 2.94388 -1.09518 0
M  V30 161 H 13.616 3.7919 -3.3201 0
M  V30 162 H 13.218 2.07034 -3.11469 0
M  V30 163 H 15.51 4.71457 -4.86554 0
M  V30 164 H 16.453 3.7231 -6.02321 0
M  V30 165 H 16.861 3.67806 -4.28228 0
M  V30 166 N 16.2591 1.48442 0.529413 0
M  V30 167 C 17.2221 1.62524 1.61612 0
M  V30 168 C 18.2221 0.498509 1.52877 0
M  V30 169 O 19.4121 0.76431 1.56537 0
M  V30 170 C 16.5441 1.59597 3.01233 0
M  V30 171 H 17.7371 2.59423 1.50465 0
M  V30 172 H 15.2901 1.37047 0.751514 0
M  V30 173 H 16.0251 0.641781 3.17886 0
M  V30 174 H 15.8101 2.41397 3.08982 0
M  V30 175 H 17.3001 1.72646 3.80241 0
M  V30 176 N 17.7372 -0.778329 1.37039 0
M  V30 177 C 18.9832 -1.53892 1.32079 0
M  V30 178 C 19.3162 -1.9396 -0.0965386 0
M  V30 179 O 18.5912 -1.63568 -1.05242 0
M  V30 180 C 18.8742 -2.80847 2.25382 0
M  V30 181 C 18.7272 -2.47076 3.75864 0
M  V30 182 C 20.0462 -3.82741 2.1725 0
M  V30 183 H 17.1652 -0.558303 0.48111 0
M  V30 184 H 19.8072 -0.893397 1.67685 0
M  V30 185 H 17.9572 -3.35931 1.95148 0
M  V30 186 H 19.6292 -1.97957 4.16666 0
M  V30 187 H 17.8722 -1.79863 3.94755 0
M  V30 188 H 18.5432 -3.37798 4.36574 0
M  V30 189 H 21.0192 -3.37133 2.43887 0
M  V30 190 H 19.8952 -4.69303 2.84686 0
M  V30 191 H 20.1562 -4.2652 1.16331 0
M  V30 192 N 19.2153 -1.21501 -1.00376 0
M  V30 193 C 20.4623 -1.03299 -1.74171 0
M  V30 194 C 20.7903 0.433326 -1.89612 0
M  V30 195 O 20.0453 1.33779 -1.42834 0
M  V30 196 C 20.3443 -1.67673 -3.15627 0
M  V30 197 C 20.0103 -3.17533 -3.2013 0
M  V30 198 C 18.6723 -3.58427 -3.21067 0
M  V30 199 C 21.0243 -4.13504 -3.17275 0
M  V30 200 C 18.3523 -4.93794 -3.16835 0
M  V30 201 C 20.7043 -5.48834 -3.14585 0
M  V30 202 C 19.3683 -5.89123 -3.13831 0
M  V30 203 H 18.6383 -0.377999 -0.637336 0
M  V30 204 H 21.2853 -1.51111 -1.17634 0
M  V30 205 H 19.5903 -1.12158 -3.75404 0
M  V30 206 H 21.2873 -1.51091 -3.71446 0
M  V30 207 H 17.8773 -2.84965 -3.20145 0
M  V30 208 H 22.0613 -3.82936 -3.15711 0
M  V30 209 H 17.3173 -5.24255 -3.1459 0
M  V30 210 H 21.4913 -6.22934 -3.1133 0
M  V30 211 H 19.1183 -6.93984 -3.10307 0
M  V30 212 N 20.6934 1.19889 -1.02296 0
M  V30 213 C 21.9414 1.89046 -0.714558 0
M  V30 214 C 22.2624 1.79636 0.758681 0
M  V30 215 O 21.5324 1.20292 1.54618 0
M  V30 216 H 20.1124 0.699802 -0.261317 0
M  V30 217 H 22.7744 1.45574 -1.29592 0
M  V30 218 H 21.8704 2.95524 -1.0036 0
M  V30 219 N 22.1715 0.800033 1.35784 0
M  V30 220 C 23.4185 0.377342 1.98953 0
M  V30 221 C 23.7465 -1.05378 1.6348 0
M  V30 222 O 23.0015 -1.74459 0.886707 0
M  V30 223 C 23.3005 0.500276 3.53881 0
M  V30 224 C 22.9665 1.89375 4.09204 0
M  V30 225 C 21.6285 2.27499 4.24025 0
M  V30 226 C 23.9805 2.8057 4.39238 0
M  V30 227 C 21.3085 3.562 4.66195 0
M  V30 228 C 23.6605 4.0871 4.82844 0
M  V30 229 C 22.3245 4.46843 4.95871 0
M  V30 230 H 21.5945 0.138079 0.728021 0
M  V30 231 H 24.2415 1.01955 1.62103 0
M  V30 232 H 22.5465 -0.225405 3.91151 0
M  V30 233 H 24.2435 0.154097 4.00704 0
M  V30 234 H 20.8335 1.58753 3.98115 0
M  V30 235 H 25.0175 2.52367 4.27346 0
M  V30 236 H 20.2735 3.85602 4.74469 0
M  V30 237 H 24.4475 4.79481 5.05046 0
M  V30 238 H 22.0745 5.46623 5.28306 0
M  V30 239 N 23.6496 -1.47581 0.552962 0
M  V30 240 C 24.8956 -2.02782 0.0273648 0
M  V30 241 C 25.2286 -1.42687 -1.31734 0
M  V30 242 O 24.5036 -0.580897 -1.85623 0
M  V30 243 C 24.7866 -3.60031 -0.0702371 0
M  V30 244 C 24.6396 -4.30566 1.30126 0
M  V30 245 C 25.9586 -4.33028 -0.785771 0
M  V30 246 H 23.0776 -0.736912 0.0114185 0
M  V30 247 H 25.7196 -1.76056 0.714432 0
M  V30 248 H 23.8696 -3.82932 -0.655382 0
M  V30 249 H 25.5416 -4.19018 1.92929 0
M  V30 250 H 23.7846 -3.91086 1.87709 0
M  V30 251 H 24.4556 -5.39114 1.18573 0
M  V30 252 H 26.9316 -4.15095 -0.288982 0
M  V30 253 H 25.8076 -5.42695 -0.823013 0
M  V30 254 H 26.0686 -4.01945 -1.841 0
M  V30 255 N 25.1277 -0.289203 -1.54924 0
M  V30 256 C 26.0577 0.58549 -2.2604 0
M  V30 257 C 27.0387 1.14753 -1.25562 0
M  V30 258 O 28.2237 1.17906 -1.54311 0
M  V30 259 C 25.3537 1.76305 -2.99222 0
M  V30 260 C 24.3077 1.33191 -4.06748 0
M  V30 261 C 23.6337 2.5937 -4.6758 0
M  V30 262 C 24.9337 0.471775 -5.20165 0
M  V30 263 H 26.6277 -0.00763532 -2.99399 0
M  V30 264 H 24.1737 -0.00511229 -1.43999 0
M  V30 265 H 26.1267 2.38097 -3.47689 0
M  V30 266 H 24.8507 2.38223 -2.23422 0
M  V30 267 H 23.5097 0.737121 -3.59113 0
M  V30 268 H 23.1577 3.19576 -3.88433 0
M  V30 269 H 22.8577 2.31228 -5.40192 0
M  V30 270 H 24.3817 3.21985 -5.18804 0
M  V30 271 H 25.7957 0.995056 -5.64599 0
M  V30 272 H 24.1927 0.284639 -5.99425 0
M  V30 273 H 25.2627 -0.506041 -4.82252 0
M  V30 274 N 26.6058 1.57591 -0.0167156 0
M  V30 275 C 27.8528 1.91283 0.664597 0
M  V30 276 C 28.1808 0.891949 1.72842 0
M  V30 277 O 27.4358 -0.100931 1.9544 0
M  V30 278 C 27.7348 3.3172 1.33029 0
M  V30 279 C 27.4008 4.4914 0.398047 0
M  V30 280 C 26.0628 4.80992 0.141421 0
M  V30 281 C 28.4148 5.20634 -0.242825 0
M  V30 282 C 25.7428 5.81703 -0.764092 0
M  V30 283 C 28.0948 6.22311 -1.13632 0
M  V30 284 C 26.7588 6.52611 -1.40196 0
M  V30 285 H 26.0288 0.699956 0.243193 0
M  V30 286 H 28.6758 1.9135 -0.0758267 0
M  V30 287 H 26.9808 3.27856 2.14517 0
M  V30 288 H 28.6778 3.55055 1.86379 0
M  V30 289 H 25.2678 4.24262 0.608238 0
M  V30 290 H 29.4518 4.96267 -0.0576019 0
M  V30 291 H 24.7078 6.03532 -0.977732 0
M  V30 292 H 28.8818 6.76834 -1.63917 0
M  V30 293 H 26.5088 7.30467 -2.10529 0
M  V30 294 N 28.0839 -0.256276 1.55502 0
M  V30 295 C 29.0139 -1.32102 1.92539 0
M  V30 296 C 29.9949 -1.50684 0.789194 0
M  V30 297 O 31.1799 -1.63449 1.04872 0
M  V30 298 C 28.3099 -2.67752 2.21192 0
M  V30 299 C 27.2639 -2.63878 3.36975 0
M  V30 300 C 26.5899 -4.03236 3.51147 0
M  V30 301 C 27.8899 -2.21682 4.72921 0
M  V30 302 H 29.5839 -1.01351 2.81724 0
M  V30 303 H 27.1299 -0.486105 1.35547 0
M  V30 304 H 29.0829 -3.42365 2.45691 0
M  V30 305 H 27.8069 -3.0012 1.28824 0
M  V30 306 H 26.4659 -1.91722 3.12471 0
M  V30 307 H 26.1139 -4.32854 2.56216 0
M  V30 308 H 25.8139 -4.01535 4.29003 0
M  V30 309 H 27.3379 -4.79563 3.77957 0
M  V30 310 H 28.7519 -2.86023 4.96854 0
M  V30 311 H 27.1489 -2.3111 5.53812 0
M  V30 312 H 28.2189 -1.16833 4.70615 0
M  V30 313 N 29.562 -1.4872 -0.521534 0
M  V30 314 C 30.808 -1.574 -1.27879 0
M  V30 315 C 31.141 -0.250817 -1.92573 0
M  V30 316 O 30.416 0.743934 -1.79711 0
M  V30 317 C 30.699 -2.71843 -2.36164 0
M  V30 318 C 30.552 -4.13893 -1.76105 0
M  V30 319 C 31.871 -2.82008 -3.37875 0
M  V30 320 H 28.99 -0.572941 -0.463581 0
M  V30 321 H 31.632 -1.80927 -0.580119 0
M  V30 322 H 29.782 -2.51914 -2.95756 0
M  V30 323 H 31.454 -4.45284 -1.20499 0
M  V30 324 H 29.697 -4.20498 -1.06601 0
M  V30 325 H 30.368 -4.89804 -2.5455 0
M  V30 326 H 32.844 -3.00086 -2.88249 0
M  V30 327 H 31.72 -3.63796 -4.11028 0
M  V30 328 H 31.981 -1.90511 -3.98946 0
M  V30 329 N 31.0401 0.771051 -1.3745 0
M  V30 330 C 31.9701 1.89827 -1.3597 0
M  V30 331 C 32.9511 1.68562 -0.228216 0
M  V30 332 O 34.1361 1.8941 -0.428675 0
M  V30 333 C 31.2661 3.2712 -1.16662 0
M  V30 334 C 30.2201 3.6295 -2.2683 0
M  V30 335 C 29.5461 4.98791 -1.92644 0
M  V30 336 C 30.8461 3.69627 -3.69017 0
M  V30 337 H 32.5401 1.91323 -2.30295 0
M  V30 338 H 30.0861 0.919082 -1.10855 0
M  V30 339 H 32.0391 4.05615 -1.14256 0
M  V30 340 H 30.7631 3.26059 -0.187926 0
M  V30 341 H 29.4221 2.86763 -2.28392 0
M  V30 342 H 29.0701 4.94271 -0.933021 0
M  V30 343 H 28.7701 5.23733 -2.66416 0
M  V30 344 H 30.2941 5.79685 -1.91826 0
M  V30 345 H 31.7081 4.38273 -3.69581 0
M  V30 346 H 30.1051 4.06067 -4.41848 0
M  V30 347 H 31.1751 2.70273 -4.02592 0
M  V30 348 N 32.5182 1.22032 0.997298 0
M  V30 349 C 33.7642 1.05382 1.73972 0
M  V30 350 C 34.1192 -0.407419 1.88037 0
M  V30 351 O 33.4122 -1.29811 1.40924 0
M  V30 352 C 33.6062 1.69345 3.14733 0
M  V30 353 C 33.4352 3.21537 3.14395 0
M  V30 354 C 32.2052 3.9062 3.20537 0
M  V30 355 C 34.4032 4.18527 2.98897 0
M  V30 356 N 32.3852 5.29935 3.09906 0
M  V30 357 C 33.7562 5.44645 2.96247 0
M  V30 358 C 35.8112 4.09476 2.83255 0
M  V30 359 C 34.5142 6.62752 2.79557 0
M  V30 360 C 36.5402 5.27228 2.67926 0
M  V30 361 C 35.9022 6.52262 2.65959 0
M  V30 362 H 32.0012 0.440018 0.646458 0
M  V30 363 H 34.5852 1.54505 1.18475 0
M  V30 364 H 32.7562 1.22778 3.68484 0
M  V30 365 H 34.4882 1.45828 3.77513 0
M  V30 366 H 31.2432 3.41592 3.28043 0
M  V30 367 H 31.6672 6.02926 3.07912 0
M  V30 368 H 36.3092 3.13598 2.83577 0
M  V30 369 H 34.0272 7.58783 2.77982 0
M  V30 370 H 37.6132 5.22053 2.56812 0
M  V30 371 H 36.4932 7.41844 2.54239 0
M  V30 372 N 33.9963 -1.19345 1.0293 0
M  V30 373 C 34.9263 -2.2481 0.631105 0
M  V30 374 C 35.9073 -1.66245 -0.360104 0
M  V30 375 O 37.0923 -1.92677 -0.242726 0
M  V30 376 C 34.2223 -3.47295 -0.0184607 0
M  V30 377 C 33.1763 -4.18536 0.895073 0
M  V30 378 C 32.5023 -5.34586 0.110592 0
M  V30 379 C 33.8023 -4.73287 2.209 0
M  V30 380 H 35.4963 -2.58372 1.51275 0
M  V30 381 H 33.0423 -1.24194 0.728818 0
M  V30 382 H 34.9953 -4.20268 -0.308675 0
M  V30 383 H 33.7193 -3.12933 -0.934907 0
M  V30 384 H 32.3783 -3.47446 1.16949 0
M  V30 385 H 32.0263 -4.96469 -0.807902 0
M  V30 386 H 31.7263 -5.83183 0.719087 0
M  V30 387 H 33.2503 -6.10355 -0.172871 0
M  V30 388 H 34.6643 -5.38013 1.98028 0
M  V30 389 H 33.0613 -5.32373 2.76946 0
M  V30 390 H 34.1313 -3.91331 2.86336 0
M  V30 391 N 35.4744 -0.807222 -1.35358 0
M  V30 392 C 36.4074 -0.163572 -2.27613 0
M  V30 393 C 37.3854 0.670817 -1.48118 0
M  V30 394 O 38.5694 0.63796 -1.77376 0
M  V30 395 C 35.6964 0.773015 -3.29761 0
M  V30 396 C 34.7424 0.0181653 -4.26496 0
M  V30 397 S 35.5754 -1.31831 -5.19019 0
M  V30 398 C 36.7314 -0.38619 -6.24707 0
M  V30 399 H 36.9644 -0.945757 -2.81856 0
M  V30 400 H 34.4974 -0.602315 -1.42167 0
M  V30 401 H 36.4554 1.30788 -3.89108 0
M  V30 402 H 35.1164 1.52859 -2.74396 0
M  V30 403 H 34.3094 0.729534 -4.98692 0
M  V30 404 H 33.9114 -0.446761 -3.71322 0
M  V30 405 H 36.2034 0.428295 -6.76145 0
M  V30 406 H 37.1464 -1.07736 -6.99856 0
M  V30 407 H 37.5544 0.018398 -5.64497 0
M  V30 408 N 36.9525 1.47285 -0.560781 0
M  V30 409 C 37.9025 2.27073 0.205384 0
M  V30 410 C 38.8865 1.34569 0.882044 0
M  V30 411 O 40.0785 1.58899 0.77976 0
M  V30 412 C 37.2075 3.20414 1.23247 0
M  V30 413 C 36.2935 4.20399 0.559041 0
M  V30 414 N 36.6845 5.04423 -0.372927 0
M  V30 415 C 34.9825 4.38536 0.812522 0
M  V30 416 C 35.6835 5.76655 -0.764446 0
M  V30 417 N 34.6595 5.43471 -0.11848 0
M  V30 418 H 38.4615 2.89422 -0.511117 0
M  V30 419 H 35.9755 1.57868 -0.380975 0
M  V30 420 H 37.9725 3.76262 1.79534 0
M  V30 421 H 36.6325 2.59623 1.95002 0
M  V30 422 H 37.6435 5.1248 -0.747287 0
M  V30 423 H 34.3205 3.88913 1.51832 0
M  V30 424 H 35.7105 6.54238 -1.53045 0
M  V30 425 N 38.4306 0.297415 1.54768 0
M  V30 426 C 39.6776 -0.312913 2.00068 0
M  V30 427 C 40.0056 -1.54171 1.18582 0
M  V30 428 O 39.2606 -1.94108 0.249133 0
M  V30 429 C 39.5596 -0.717561 3.50123 0
M  V30 430 C 39.2256 0.409095 4.4904 0
M  V30 431 C 37.8876 0.718399 4.75807 0
M  V30 432 C 40.2396 1.16717 5.07963 0
M  V30 433 C 37.5676 1.78896 5.5876 0
M  V30 434 C 39.9196 2.22762 5.92081 0
M  V30 435 C 38.5836 2.54303 6.1716 0
M  V30 436 H 37.8536 -0.114503 0.7321 0
M  V30 437 H 40.5006 0.415767 1.86932 0
M  V30 438 H 38.8056 -1.52627 3.60849 0
M  V30 439 H 40.5026 -1.20091 3.82595 0
M  V30 440 H 37.0926 0.157918 4.28309 0
M  V30 441 H 41.2766 0.941466 4.87289 0
M  V30 442 H 36.5326 2.0381 5.7643 0
M  V30 443 H 40.7066 2.81962 6.36765 0
M  V30 444 H 38.3336 3.3739 6.81229 0
M  V30 445 N 39.9087 -1.5758 0.0250728 0
M  V30 446 C 40.8417 -2.05473 -0.992777 0
M  V30 447 C 41.8197 -0.949661 -1.31986 0
M  V30 448 O 43.0037 -1.21969 -1.43722 0
M  V30 449 C 40.1307 -2.4734 -2.31389 0
M  V30 450 C 39.1767 -3.68827 -2.1417 0
M  V30 451 S 40.0097 -5.15655 -1.44429 0
M  V30 452 C 41.1657 -5.60814 -2.77918 0
M  V30 453 H 41.3987 -2.91486 -0.585078 0
M  V30 454 H 38.9317 -1.53269 -0.186507 0
M  V30 455 H 40.8897 -2.72127 -3.07339 0
M  V30 456 H 39.5507 -1.6168 -2.69292 0
M  V30 457 H 38.7437 -3.95955 -3.11826 0
M  V30 458 H 38.3457 -3.44172 -1.46362 0
M  V30 459 H 40.6377 -5.64806 -3.74166 0
M  V30 460 H 41.5807 -6.60414 -2.55459 0
M  V30 461 H 41.9887 -4.8845 -2.82979 0
M  V30 462 N 41.3868 0.248026 -1.55636 0
M  V30 463 C 42.3498 1.29044 -1.89421 0
M  V30 464 C 43.3498 1.41134 -0.770581 0
M  V30 465 O 44.5398 1.39854 -1.03858 0
M  V30 466 C 41.6718 2.66831 -2.12165 0
M  V30 467 H 42.8648 1.00305 -2.82629 0
M  V30 468 H 40.4178 0.487265 -1.48511 0
M  V30 469 H 41.1528 3.00711 -1.21422 0
M  V30 470 H 40.9378 2.59438 -2.93997 0
M  V30 471 H 42.4278 3.42103 -2.3949 0
M  V30 472 N 42.8649 1.48995 0.513639 0
M  V30 473 C 44.1139 1.57093 1.2651 0
M  V30 474 C 44.4269 0.257091 1.93903 0
M  V30 475 O 45.6329 0.216478 2.70636 0
M  V30 476 C 44.0889 2.77118 2.29638 0
M  V30 477 C 43.6969 4.15209 1.68241 0
M  V30 478 C 45.4409 2.94538 3.05692 0
M  V30 479 C 43.3479 5.26474 2.69406 0
M  V30 480 H 42.2779 0.584876 0.475854 0
M  V30 481 H 44.9289 1.7536 0.540487 0
M  V30 482 H 43.3109 2.52319 3.05207 0
M  V30 483 H 44.4849 4.50094 0.987505 0
M  V30 484 H 42.7999 4.03042 1.04623 0
M  V30 485 H 45.3969 3.74832 3.8132 0
M  V30 486 H 45.7399 2.04614 3.62545 0
M  V30 487 H 46.2729 3.19316 2.37238 0
M  V30 488 H 43.0119 6.18417 2.17351 0
M  V30 489 H 42.5319 4.96058 3.37175 0
M  V30 490 H 44.2109 5.55277 3.32078 0
M  V30 491 N 44.343 -0.763751 1.37857 0
M  V30 492 C 45.592 -1.51789 1.32827 0
M  V30 493 C 45.905 -1.95426 -0.0823719 0
M  V30 494 O 47.111 -2.70298 -0.255172 0
M  V30 495 C 45.567 -2.74133 2.33193 0
M  V30 496 C 45.175 -2.37562 3.79827 0
M  V30 497 C 46.919 -3.52054 2.37188 0
M  V30 498 C 44.826 -3.56456 4.71904 0
M  V30 499 H 43.756 -0.569896 0.493695 0
M  V30 500 H 46.407 -0.835822 1.63359 0
M  V30 501 H 44.789 -3.4427 1.9569 0
M  V30 502 H 45.963 -1.75157 4.26212 0
M  V30 503 H 44.278 -1.72798 3.78853 0
M  V30 504 H 46.875 -4.40437 3.03182 0
M  V30 505 H 47.218 -3.92486 1.38782 0
M  V30 506 H 47.751 -2.88921 2.7344 0
M  V30 507 H 44.49 -3.21099 5.71468 0
M  V30 508 H 44.01 -4.17938 4.30218 0
M  V30 509 H 45.689 -4.23168 4.89426 0
M  V30 510 N 45.8211 -1.22559 -0.990812 0
M  V30 511 C 47.0511 -1.07623 -1.76355 0
M  V30 512 C 47.4591 0.37601 -1.85426 0
M  V30 513 O 46.8021 1.27228 -1.32509 0
M  V30 514 C 46.8641 -1.61507 -3.21179 0
M  V30 515 C 46.5281 -3.10146 -3.35646 0
M  V30 516 C 47.5251 -4.07553 -3.22796 0
M  V30 517 C 45.2101 -3.49644 -3.60631 0
M  V30 518 C 47.2041 -5.42442 -3.34716 0
M  V30 519 C 44.8911 -4.84682 -3.72192 0
M  V30 520 C 45.8891 -5.8089 -3.59243 0
M  V30 521 O 45.5771 -7.13476 -3.70415 0
M  V30 522 H 45.3091 -0.377745 -0.560611 0
M  V30 523 H 47.8631 -1.62658 -1.25425 0
M  V30 524 H 46.0931 -1.00881 -3.73309 0
M  V30 525 H 47.7821 -1.42202 -3.80175 0
M  V30 526 H 48.5481 -3.78381 -3.03403 0
M  V30 527 H 44.4271 -2.75282 -3.69785 0
M  V30 528 H 47.9711 -6.17518 -3.24526 0
M  V30 529 H 43.8681 -5.13534 -3.91092 0
M  V30 530 H 44.6361 -7.21083 -3.87275 0
M  V30 531 N 47.2992 1.18797 -1.03562 0
M  V30 532 C 48.5272 1.92599 -0.755869 0
M  V30 533 C 48.9422 1.75886 0.686271 0
M  V30 534 O 48.2992 1.08517 1.46732 0
M  V30 535 C 48.3502 3.44159 -1.10619 0
M  V30 536 O 48.0712 3.60341 -2.4917 0
M  V30 537 C 49.5722 4.3507 -0.850214 0
M  V30 538 H 46.7922 0.611587 -0.276048 0
M  V30 539 H 49.3362 1.50742 -1.38192 0
M  V30 540 H 47.4912 3.83823 -0.525194 0
M  V30 541 H 47.9052 4.54128 -2.62427 0
M  V30 542 H 49.3792 5.39989 -1.14523 0
M  V30 543 H 49.8562 4.38673 0.215176 0
M  V30 544 H 50.4622 4.01097 -1.41426 0
M  V30 545 N 48.7773 0.814389 1.34928 0
M  V30 546 C 50.1933 0.499084 1.51596 0
M  V30 547 C 50.3933 -0.978319 1.76157 0
M  V30 548 O 49.4493 -1.76309 1.80752 0
M  V30 549 C 50.7623 1.35121 2.68631 0
M  V30 550 C 52.3103 1.34746 2.82511 0
M  V30 551 C 52.7853 2.18388 4.0258 0
M  V30 552 N 54.2763 2.15966 4.09772 0
M  V30 553 C 55.0113 2.77437 5.01813 0
M  V30 554 N 54.5073 3.47866 5.99134 0
M  V30 555 N 56.3003 2.67037 4.94619 0
M  V30 556 H 48.4513 1.7711 1.17243 0
M  V30 557 H 50.7143 0.754256 0.574284 0
M  V30 558 H 50.4203 2.40001 2.57085 0
M  V30 559 H 50.2943 1.00991 3.63429 0
M  V30 560 H 52.6813 0.30648 2.93504 0
M  V30 561 H 52.7623 1.72869 1.88547 0
M  V30 562 H 52.4063 3.2253 3.92347 0
M  V30 563 H 52.3363 1.77621 4.9574 0
M  V30 564 H 54.8273 1.64729 3.40107 0
M  V30 565 H 55.1403 3.92038 6.65977 0
M  V30 566 H 53.4853 3.51972 5.99284 0
M  V30 567 H 56.6763 2.11597 4.17546 0
M  V30 568 H 56.8493 3.15232 5.66156 0
M  V30 569 N 50.2554 -1.46986 0.568584 0
M  V30 570 C 51.1854 -2.32946 -0.160753 0
M  V30 571 C 52.1664 -1.44487 -0.897631 0
M  V30 572 O 53.3514 -1.73327 -0.875867 0
M  V30 573 C 50.4814 -3.26494 -1.18403 0
M  V30 574 C 49.4354 -4.24282 -0.562895 0
M  V30 575 C 48.7614 -5.07236 -1.69163 0
M  V30 576 C 50.0614 -5.19989 0.490761 0
M  V30 577 H 51.7554 -2.94175 0.556916 0
M  V30 578 H 49.3014 -1.4146 0.26927 0
M  V30 579 H 51.2544 -3.85477 -1.70251 0
M  V30 580 H 49.9784 -2.63343 -1.93179 0
M  V30 581 H 48.6374 -3.66541 -0.0656164 0
M  V30 582 H 48.2854 -4.4048 -2.42871 0
M  V30 583 H 47.9854 -5.7345 -1.28174 0
M  V30 584 H 49.5094 -5.6908 -2.21314 0
M  V30 585 H 50.9234 -5.73271 0.0579047 0
M  V30 586 H 49.3204 -5.94469 0.820165 0
M  V30 587 H 50.3904 -4.64777 1.3824 0
M  V30 588 N 51.7335 -0.305618 -1.54608 0
M  V30 589 C 52.6835 0.583595 -2.20405 0
M  V30 590 C 53.6675 1.09539 -1.17856 0
M  V30 591 O 54.8595 1.0354 -1.43557 0
M  V30 592 C 51.9885 1.75277 -2.95183 0
M  V30 593 C 51.0745 1.25672 -4.05052 0
M  V30 594 N 51.4655 0.478998 -5.03527 0
M  V30 595 C 49.7635 1.53704 -4.18678 0
M  V30 596 C 50.4645 0.214269 -5.81305 0
M  V30 597 N 49.4405 0.795374 -5.3775 0
M  V30 598 H 53.2425 -0.0180946 -2.93894 0
M  V30 599 H 50.7565 -0.110601 -1.62023 0
M  V30 600 H 52.7535 2.4014 -3.40791 0
M  V30 601 H 51.4135 2.35812 -2.23211 0
M  V30 602 H 52.4245 0.123473 -5.17753 0
M  V30 603 H 49.1015 2.14954 -3.57912 0
M  V30 604 H 50.4915 -0.410656 -6.70644 0
M  V30 605 N 53.2116 1.57565 -0.0334293 0
M  V30 606 C 54.1416 2.13511 0.945265 0
M  V30 607 C 55.1226 1.05231 1.33643 0
M  V30 608 O 56.3076 1.33084 1.41429 0
M  V30 609 C 53.4376 2.6657 2.22616 0
M  V30 610 C 52.3916 3.79676 1.97561 0
M  V30 611 C 51.7176 4.1918 3.31952 0
M  V30 612 C 53.0176 5.0557 1.31135 0
M  V30 613 H 54.7116 2.95538 0.479325 0
M  V30 614 H 52.2576 1.42166 0.229115 0
M  V30 615 H 54.2106 3.04344 2.91466 0
M  V30 616 H 52.9346 1.8171 2.71384 0
M  V30 617 H 51.5936 3.42347 1.31127 0
M  V30 618 H 51.2416 3.31296 3.78487 0
M  V30 619 H 50.9416 4.95402 3.15992 0
M  V30 620 H 52.4656 4.59541 4.02063 0
M  V30 621 H 53.8796 5.40903 1.89992 0
M  V30 622 H 52.2766 5.86818 1.25559 0
M  V30 623 H 53.3466 4.84062 0.284894 0
M  V30 624 N 54.6897 -0.239769 1.55765 0
M  V30 625 C 55.6377 -1.31668 1.91745 0
M  V30 626 C 56.6317 -1.49462 0.797338 0
M  V30 627 O 57.8377 -1.50852 0.982021 0
M  V30 628 H 54.2127 -0.441048 0.609082 0
M  V30 629 H 56.1837 -0.985923 2.81642 0
M  V30 630 C 54.9327 -2.66368 2.2348 0
M  V30 631 H 54.2557 -2.53478 3.09175 0
M  V30 632 H 55.6957 -3.40578 2.52553 0
M  V30 633 C 54.1547 -3.20002 1.05359 0
M  V30 634 O 54.6847 -4.00538 0.305261 0
M  V30 635 N 52.8907 -2.78126 0.842292 0
M  V30 636 H 52.4377 -2.12742 1.45253 0
M  V30 637 H 52.3957 -3.14354 0.053652 0
M  V30 638 N 56.1678 -1.49265 -0.50573 0
M  V30 639 C 57.1148 -1.65585 -1.6078 0
M  V30 640 C 58.0848 -0.497396 -1.58478 0
M  V30 641 O 59.2698 -0.72385 -1.76536 0
M  V30 642 C 56.4098 -1.72408 -2.98948 0
M  V30 643 C 55.5228 -2.99525 -3.11301 0
M  V30 644 C 54.6578 -2.97356 -4.40174 0
M  V30 645 C 53.6968 -4.19074 -4.46143 0
M  V30 646 N 52.8338 -4.14841 -5.66437 0
M  V30 647 H 57.6738 -2.59688 -1.46172 0
M  V30 648 H 55.2108 -1.28761 -0.711261 0
M  V30 649 H 57.1688 -1.74344 -3.79025 0
M  V30 650 H 55.7988 -0.817753 -3.1227 0
M  V30 651 H 54.8508 -3.07222 -2.24318 0
M  V30 652 H 56.1628 -3.89518 -3.11572 0
M  V30 653 H 55.3168 -2.97829 -5.28567 0
M  V30 654 H 54.0558 -2.05133 -4.42461 0
M  V30 655 H 53.0608 -4.1885 -3.56153 0
M  V30 656 H 54.2858 -5.12483 -4.45575 0
M  V30 657 H 52.2318 -3.25453 -5.69575 0
M  V30 658 H 52.1488 -4.98564 -5.68304 0
M  V30 659 H 53.4168 -4.1941 -6.57051 0
M  V30 660 N 57.6459 0.756429 -1.3826 0
M  V30 661 C 58.5929 1.87011 -1.35261 0
M  V30 662 C 59.5629 1.64695 -0.215616 0
M  V30 663 O 60.7479 1.864 -0.407399 0
M  V30 664 C 57.8879 3.24275 -1.18068 0
M  V30 665 C 57.0009 3.58442 -2.41129 0
M  V30 666 C 56.1359 4.84994 -2.16689 0
M  V30 667 C 55.1749 5.11939 -3.35537 0
M  V30 668 N 54.3119 6.29685 -3.10549 0
M  V30 669 H 59.1519 1.8891 -2.30472 0
M  V30 670 H 56.6889 0.923373 -1.14509 0
M  V30 671 H 58.6469 4.03479 -1.06116 0
M  V30 672 H 57.2769 3.21711 -0.264973 0
M  V30 673 H 56.3289 2.74103 -2.63764 0
M  V30 674 H 57.6409 3.74283 -3.29717 0
M  V30 675 H 56.7949 5.72135 -2.01857 0
M  V30 676 H 55.5339 4.71286 -1.25462 0
M  V30 677 H 54.5389 4.23268 -3.50891 0
M  V30 678 H 55.7639 5.27546 -4.27635 0
M  V30 679 H 53.7099 6.17306 -2.21967 0
M  V30 680 H 53.6269 6.46014 -3.92686 0
M  V30 681 H 54.8949 7.19722 -2.99367 0
M  V30 682 N 59.124 1.23083 0.984299 0
M  V30 683 C 60.087 1.00979 2.05757 0
M  V30 684 C 61.087 -0.0269573 1.60777 0
M  V30 685 O 62.277 0.212403 1.729 0
M  V30 686 C 59.409 0.527072 3.36801 0
M  V30 687 H 60.602 1.9622 2.26799 0
M  V30 688 H 58.155 1.05072 1.15714 0
M  V30 689 H 58.89 -0.429294 3.21446 0
M  V30 690 H 58.675 1.27515 3.70786 0
M  V30 691 H 60.165 0.392942 4.15747 0
M  V30 692 N 60.6021 -1.18246 1.0419 0
M  V30 693 C 61.8301 -1.92195 0.766072 0
M  V30 694 C 62.2451 -1.76247 -0.676933 0
M  V30 695 O 61.6021 -1.09293 -1.46155 0
M  V30 696 C 61.6531 -3.43568 1.12442 0
M  V30 697 O 61.3741 -3.59015 2.51078 0
M  V30 698 C 62.8751 -4.34613 0.873275 0
M  V30 699 H 60.0951 -0.610114 0.279288 0
M  V30 700 H 62.6391 -1.50007 1.38989 0
M  V30 701 H 60.7941 -3.8354 0.545542 0
M  V30 702 H 61.2081 -4.5273 2.64831 0
M  V30 703 H 62.6821 -5.39374 1.17385 0
M  V30 704 H 63.1591 -4.38781 -0.191909 0
M  V30 705 H 63.7651 -4.00341 1.43551 0
M  V30 706 N 62.0802 -0.821533 -1.34494 0
M  V30 707 C 63.3572 -0.33159 -1.92769 0
M  V30 708 C 63.7372 1.18088 -1.74981 0
M  V30 709 O 63.0852 1.98733 -1.12772 0
M  V30 710 C 63.2952 -0.759398 -3.40638 0
M  V30 711 C 64.6432 -0.757433 -4.1779 0
M  V30 712 O 65.6672 -0.70189 -3.49216 0
M  V30 713 O 64.5262 -0.829361 -5.4017 0
M  V30 714 H 61.6202 -0.0902502 -0.822061 0
M  V30 715 H 64.1662 -0.906231 -1.43477 0
M  V30 716 H 62.9382 -1.8012 -3.47379 0
M  V30 717 H 62.5612 -0.160378 -3.97276 0
M  V30 718 N 63.5583 1.46682 -0.576371 0
M  V30 719 C 64.5053 2.30241 0.160499 0
M  V30 720 C 65.4753 1.40233 0.890162 0
M  V30 721 O 66.6603 1.69186 0.882084 0
M  V30 722 C 63.8003 3.24578 1.1723 0
M  V30 723 C 62.9133 4.29684 0.446736 0
M  V30 724 C 62.0483 5.11154 1.44551 0
M  V30 725 C 61.0873 6.08015 0.70599 0
M  V30 726 N 60.2243 6.82376 1.65251 0
M  V30 727 H 65.0643 2.92727 -0.558127 0
M  V30 728 H 62.6013 1.44272 -0.287056 0
M  V30 729 H 64.5593 3.77711 1.77172 0
M  V30 730 H 63.1893 2.63916 1.85872 0
M  V30 731 H 62.2413 3.79458 -0.267594 0
M  V30 732 H 63.5533 4.98626 -0.131686 0
M  V30 733 H 62.7073 5.68533 2.11791 0
M  V30 734 H 61.4463 4.42158 2.05786 0
M  V30 735 H 60.4513 5.49796 0.0197725 0
M  V30 736 H 61.6763 6.79028 0.09912 0
M  V30 737 H 59.6223 6.16094 2.25308 0
M  V30 738 H 59.5393 7.47556 1.12673 0
M  V30 739 H 60.8073 7.44316 2.31546 0
M  V30 740 N 65.0364 0.313813 1.54444 0
M  V30 741 C 65.9684 -0.590425 2.21465 0
M  V30 742 C 66.9814 -1.08753 1.21147 0
M  V30 743 O 68.1704 -1.00278 1.4767 0
M  V30 744 C 65.2704 -1.82179 2.85769 0
M  V30 745 C 64.4434 -1.46502 4.12136 0
M  V30 746 C 63.5024 -2.55288 4.60124 0
M  V30 747 O 62.5284 -2.19842 5.25032 0
M  V30 748 N 63.7304 -3.86053 4.33525 0
M  V30 749 H 66.4954 -0.0166033 2.99695 0
M  V30 750 H 64.0564 0.136578 1.61323 0
M  V30 751 H 66.0484 -2.54328 3.14801 0
M  V30 752 H 64.6184 -2.30369 2.11303 0
M  V30 753 H 63.8384 -0.575595 3.89975 0
M  V30 754 H 65.1264 -1.20221 4.94393 0
M  V30 755 H 64.5244 -4.17654 3.81552 0
M  V30 756 H 63.0814 -4.54461 4.67235 0
M  V30 757 N 66.5145 -1.57545 0.0417849 0
M  V30 758 C 67.9255 -1.80011 -0.495259 0
M  V30 759 C 68.2765 -0.953199 -1.71489 0
M  V30 760 O 67.4015 -0.167138 -2.15754 0
M  V30 761 C 67.9965 -3.26482 -0.905265 0
M  V30 762 C 66.5555 -3.499 -1.38734 0
M  V30 763 C 65.7025 -2.74979 -0.358056 0
M  V30 764 H 68.6535 -1.56425 0.267736 0
M  V30 765 H 68.6745 -3.36887 -1.76882 0
M  V30 766 H 68.1865 -3.88096 -0.017401 0
M  V30 767 H 66.2875 -2.93553 -2.29471 0
M  V30 768 H 66.4005 -4.58615 -1.38598 0
M  V30 769 H 64.7645 -2.40834 -0.828912 0
M  V30 770 H 65.5475 -3.39315 0.521561 0
M  V30 771 N 67.9926 0.231505 -1.5589 0
M  V30 772 C 69.2226 0.973092 -1.82248 0
M  V30 773 C 69.6306 1.78845 -0.617328 0
M  V30 774 O 68.9736 1.78752 0.423499 0
M  V30 775 C 69.0356 1.94732 -3.02192 0
M  V30 776 C 68.6996 1.31743 -4.37599 0
M  V30 777 C 69.6966 0.712238 -5.14998 0
M  V30 778 C 67.3816 1.33218 -4.84312 0
M  V30 779 C 69.3756 0.130195 -6.37267 0
M  V30 780 C 67.0626 0.746286 -6.06526 0
M  V30 781 C 68.0606 0.146337 -6.82843 0
M  V30 782 O 67.7486 -0.430465 -8.02747 0
M  V30 783 H 67.4806 0.29125 -0.61004 0
M  V30 784 H 70.0346 0.254915 -2.03812 0
M  V30 785 H 68.2646 2.70422 -2.76422 0
M  V30 786 H 69.9536 2.55362 -3.15508 0
M  V30 787 H 70.7196 0.69324 -4.8002 0
M  V30 788 H 66.5986 1.78854 -4.24891 0
M  V30 789 H 70.1426 -0.33871 -6.96777 0
M  V30 790 H 66.0396 0.762663 -6.40979 0
M  V30 791 H 66.8076 -0.323818 -8.17859 0
M  V30 792 N 69.4707 1.49531 0.497807 0
M  V30 793 C 70.6957 1.63159 1.28039 0
M  V30 794 C 71.1207 0.30418 1.85624 0
M  V30 795 O 70.4787 -0.728618 1.66015 0
M  V30 796 C 70.5267 2.70537 2.38416 0
M  V30 797 O 69.6307 2.29931 3.42353 0
M  V30 798 H 68.9717 0.546001 0.377861 0
M  V30 799 H 71.5017 1.9574 0.59558 0
M  V30 800 H 71.5117 2.92802 2.84132 0
M  V30 801 H 70.1867 3.6689 1.95869 0
M  V30 802 H 68.7637 2.18009 3.02533 0
M  V30 803 N 70.9488 -0.749086 1.3866 0
M  V30 804 C 71.8958 -1.86291 1.36251 0
M  V30 805 C 72.8658 -1.64578 0.224347 0
M  V30 806 O 74.0508 -1.86181 0.417279 0
M  V30 807 C 71.1908 -3.23644 1.19786 0
M  V30 808 C 70.3038 -3.57158 2.43027 0
M  V30 809 C 69.4388 -4.83838 2.19258 0
M  V30 810 C 68.4778 -5.10152 3.38247 0
M  V30 811 N 67.6148 -6.28029 3.13884 0
M  V30 812 H 72.4548 -1.87685 2.3147 0
M  V30 813 H 69.9918 -0.917287 1.14997 0
M  V30 814 H 71.9498 -4.0291 1.08254 0
M  V30 815 H 70.5798 -3.21566 0.282031 0
M  V30 816 H 69.6318 -2.72701 2.65214 0
M  V30 817 H 70.9438 -3.7253 3.31697 0
M  V30 818 H 70.0978 -5.71057 2.04888 0
M  V30 819 H 68.8368 -4.70614 1.2796 0
M  V30 820 H 67.8418 -4.21401 3.53131 0
M  V30 821 H 69.0668 -5.25271 4.30427 0
M  V30 822 H 67.0128 -6.1612 2.25238 0
M  V30 823 H 66.9298 -6.43922 3.96106 0
M  V30 824 H 68.1978 -7.18124 3.03179 0
M  V30 825 N 72.4269 -1.23603 -0.977757 0
M  V30 826 C 73.3569 -1.04401 -2.0886 0
M  V30 827 C 74.3379 0.0399052 -1.70053 0
M  V30 828 O 75.5229 -0.125246 -1.93796 0
M  V30 829 C 72.6529 -0.637269 -3.41403 0
M  V30 830 C 71.6069 -1.66883 -3.94124 0
M  V30 831 C 70.9329 -1.11745 -5.22893 0
M  V30 832 C 72.2329 -3.06247 -4.23096 0
M  V30 833 H 73.9269 -1.97316 -2.25182 0
M  V30 834 H 71.4729 -0.950096 -1.08209 0
M  V30 835 H 73.4259 -0.48998 -4.18542 0
M  V30 836 H 72.1499 0.327557 -3.24953 0
M  V30 837 H 70.8089 -1.80416 -3.19133 0
M  V30 838 H 70.4569 -0.143527 -5.02795 0
M  V30 839 H 70.1569 -1.80672 -5.59134 0
M  V30 840 H 71.6809 -0.982067 -6.02651 0
M  V30 841 H 73.0949 -2.96001 -4.90975 0
M  V30 842 H 71.4919 -3.72436 -4.70544 0
M  V30 843 H 72.5619 -3.55041 -3.30263 0
M  V30 844 N 73.905 1.17692 -1.04816 0
M  V30 845 C 75.316 1.69501 -0.782698 0
M  V30 846 C 75.667 1.83456 0.695577 0
M  V30 847 O 74.792 1.51942 1.54086 0
M  V30 848 C 75.387 3.07874 -1.41419 0
M  V30 849 C 73.946 3.56864 -1.19686 0
M  V30 850 C 73.093 2.3322 -1.50012 0
M  V30 851 H 76.044 1.02262 -1.2136 0
M  V30 852 H 76.065 3.71528 -0.821428 0
M  V30 853 H 75.577 2.97685 -2.49009 0
M  V30 854 H 73.678 3.72337 -0.140043 0
M  V30 855 H 73.791 4.39851 -1.89916 0
M  V30 856 H 72.155 2.37501 -0.920071 0
M  V30 857 H 72.938 2.25644 -2.58727 0
M  V30 858 N 75.3831 0.828654 1.34056 0
M  V30 859 C 76.6311 0.41863 1.97717 0
M  V30 860 C 76.9521 -1.02314 1.66002 0
M  V30 861 O 76.2221 -1.71119 0.953683 0
M  V30 862 H 74.8021 0.151809 0.731412 0
M  V30 863 H 77.4641 1.05936 1.63596 0
M  V30 864 H 76.5601 0.542318 3.07352 0
M  V30 865 N 76.8612 -1.46375 0.584142 0
M  V30 866 C 78.1072 -2.02678 0.0703716 0
M  V30 867 C 78.4402 -1.4545 -1.28678 0
M  V30 868 O 77.7152 -0.62014 -1.84349 0
M  V30 869 C 77.9982 -3.60099 0.00614674 0
M  V30 870 C 77.8512 -4.27709 1.3923 0
M  V30 871 C 79.1702 -4.34598 -0.693742 0
M  V30 872 H 76.2892 -0.736504 0.027047 0
M  V30 873 H 78.9312 -1.74501 0.751615 0
M  V30 874 H 77.0812 -3.84236 -0.574009 0
M  V30 875 H 78.7532 -4.14832 2.01773 0
M  V30 876 H 76.9962 -3.87016 1.95962 0
M  V30 877 H 77.6672 -5.36478 1.29982 0
M  V30 878 H 80.1432 -4.15615 -0.200869 0
M  V30 879 H 79.0192 -5.44318 -0.707714 0
M  V30 880 H 79.2802 -4.05759 -1.75533 0
M  V30 881 N 78.3393 -0.321999 -1.54275 0
M  V30 882 C 79.5643 0.285791 -2.05422 0
M  V30 883 C 79.9893 1.45124 -1.19669 0
M  V30 884 O 79.3473 1.80132 -0.205441 0
M  V30 885 C 79.3953 0.69956 -3.53749 0
M  V30 886 O 78.4993 1.8021 -3.70942 0
M  V30 887 H 77.8403 0.0518962 -0.661969 0
M  V30 888 H 80.3703 -0.469954 -1.9913 0
M  V30 889 H 80.3803 0.982649 -3.9599 0
M  V30 890 H 79.0553 -0.152864 -4.15619 0
M  V30 891 H 77.6323 1.51794 -3.40607 0
M  V30 892 N 79.8174 1.5752 -0.0501392 0
M  V30 893 C 80.7474 2.14502 0.922566 0
M  V30 894 C 81.7284 1.06642 1.3252 0
M  V30 895 O 82.9134 1.34577 1.4001 0
M  V30 896 C 80.0434 2.68916 2.19776 0
M  V30 897 C 78.9974 3.8175 1.93523 0
M  V30 898 C 78.3234 4.22677 3.27487 0
M  V30 899 C 79.6234 5.06932 1.25765 0
M  V30 900 H 81.3174 2.9603 0.447952 0
M  V30 901 H 78.8634 1.42401 0.214024 0
M  V30 902 H 80.8164 3.07419 2.88222 0
M  V30 903 H 79.5404 1.84578 2.69441 0
M  V30 904 H 78.1994 3.43718 1.27489 0
M  V30 905 H 77.8474 3.35291 3.74952 0
M  V30 906 H 77.5474 4.98725 3.1072 0
M  V30 907 H 79.0714 4.63779 3.97166 0
M  V30 908 H 80.4854 5.42888 1.84244 0
M  V30 909 H 78.8824 5.88116 1.19328 0
M  V30 910 H 79.9524 4.84337 0.233536 0
M  V30 911 N 81.2955 -0.223234 1.56011 0
M  V30 912 C 82.2255 -1.27988 1.95298 0
M  V30 913 C 83.2065 -1.48976 0.820979 0
M  V30 914 O 84.3915 -1.61188 1.08315 0
M  V30 915 C 81.5215 -2.63 2.26822 0
M  V30 916 C 80.4755 -2.56671 3.42497 0
M  V30 917 C 79.8015 -3.95697 3.59622 0
M  V30 918 C 81.1015 -2.11601 4.77517 0
M  V30 919 H 82.7955 -0.953525 2.8381 0
M  V30 920 H 80.3415 -0.457244 1.36548 0
M  V30 921 H 82.2945 -3.37077 2.52898 0
M  V30 922 H 81.0185 -2.9732 1.35161 0
M  V30 923 H 79.6775 -1.85051 3.16467 0
M  V30 924 H 79.3255 -4.27322 2.6534 0
M  V30 925 H 79.0255 -3.92345 4.37424 0
M  V30 926 H 80.5495 -4.71438 3.88044 0
M  V30 927 H 81.9635 -2.7542 5.02809 0
M  V30 928 H 80.3605 -2.19311 5.5859 0
M  V30 929 H 81.4305 -1.06824 4.72987 0
M  V30 930 N 82.7736 -1.49793 -0.48987 0
M  V30 931 C 83.7206 -1.67281 -1.59014 0
M  V30 932 C 84.6906 -0.514177 -1.57941 0
M  V30 933 O 85.8756 -0.742533 -1.75759 0
M  V30 934 C 83.0156 -1.75569 -2.97102 0
M  V30 935 C 82.1286 -3.0281 -3.08107 0
M  V30 936 C 81.2636 -3.02008 -4.36995 0
M  V30 937 C 80.3026 -4.23782 -4.41673 0
M  V30 938 N 79.4396 -4.20826 -5.62005 0
M  V30 939 H 84.2796 -2.61224 -1.43409 0
M  V30 940 H 81.8166 -1.29508 -0.697565 0
M  V30 941 H 83.7746 -1.78354 -3.77155 0
M  V30 942 H 82.4046 -0.850827 -3.11385 0
M  V30 943 H 81.4566 -3.09584 -2.21047 0
M  V30 944 H 82.7686 -3.92801 -3.07423 0
M  V30 945 H 81.9226 -3.03418 -5.25378 0
M  V30 946 H 80.6616 -2.09815 -4.4026 0
M  V30 947 H 79.6666 -4.22604 -3.5169 0
M  V30 948 H 80.8916 -5.17181 -4.40115 0
M  V30 949 H 78.8376 -3.31476 -5.66091 0
M  V30 950 H 78.7546 -5.04564 -5.62984 0
M  V30 951 H 80.0226 -4.26355 -6.52565 0
M  V30 952 N 84.2517 0.741722 -1.39055 0
M  V30 953 C 85.6627 1.31966 -1.32068 0
M  V30 954 C 86.0137 1.96192 0.0180797 0
M  V30 955 O 85.1387 1.95861 0.920196 0
M  V30 956 C 85.7337 2.39954 -2.39181 0
M  V30 957 C 84.2927 2.93438 -2.35735 0
M  V30 958 C 83.4397 1.66936 -2.21422 0
M  V30 959 H 86.3907 0.539721 -1.4924 0
M  V30 960 H 86.4117 3.20182 -2.05581 0
M  V30 961 H 85.9237 1.9318 -3.36605 0
M  V30 962 H 84.0247 3.4451 -1.41929 0
M  V30 963 H 84.1377 3.4701 -3.30335 0
M  V30 964 H 82.5017 1.91016 -1.68478 0
M  V30 965 H 83.2847 1.22224 -3.20806 0
M  V30 966 N 85.7298 1.2412 0.971189 0
M  V30 967 C 86.6598 1.05508 2.08304 0
M  V30 968 C 87.6408 -0.0308864 1.70072 0
M  V30 969 O 88.8258 0.135521 1.93727 0
M  V30 970 C 85.9558 0.655365 3.4106 0
M  V30 971 C 84.9098 1.68971 3.93234 0
M  V30 972 C 84.2358 1.14516 5.22293 0
M  V30 973 C 85.5358 3.08487 4.21465 0
M  V30 974 H 87.2298 1.98507 2.24132 0
M  V30 975 H 84.7758 0.955821 1.07704 0
M  V30 976 H 86.7288 0.51217 4.18276 0
M  V30 977 H 85.4528 -0.31032 3.25122 0
M  V30 978 H 84.1118 1.82106 3.18171 0
M  V30 979 H 83.7598 0.170189 5.02712 0
M  V30 980 H 83.4598 1.83635 5.58168 0
M  V30 981 H 84.9838 1.01401 6.02121 0
M  V30 982 H 86.3978 2.98601 4.89398 0
M  V30 983 H 84.7948 3.74926 4.68562 0
M  V30 984 H 85.8648 3.56787 3.28376 0
M  V30 985 N 87.2079 -1.17134 1.05439 0
M  V30 986 C 88.1549 -2.21235 0.657539 0
M  V30 987 C 89.1249 -1.62551 -0.341543 0
M  V30 988 O 90.3099 -1.89379 -0.232393 0
M  V30 989 C 87.4499 -3.45076 0.0410575 0
M  V30 990 C 86.5629 -4.18042 1.08927 0
M  V30 991 C 85.6979 -5.29376 0.439848 0
M  V30 992 C 84.7369 -5.94132 1.4722 0
M  V30 993 N 83.8739 -6.96975 0.846756 0
M  V30 994 H 88.7139 -2.54534 1.54972 0
M  V30 995 H 86.2509 -1.25028 0.775006 0
M  V30 996 H 88.2089 -4.15862 -0.33383 0
M  V30 997 H 86.8389 -3.12353 -0.814568 0
M  V30 998 H 85.8909 -3.45945 1.58196 0
M  V30 999 H 87.2029 -4.62306 1.87282 0
M  V30 1000 H 86.3569 -6.06699 0.0115125 0
M  V30 1001 H 85.0959 -4.86251 -0.375656 0
M  V30 1002 H 84.1009 -5.15538 1.91052 0
M  V30 1003 H 85.3259 -6.39337 2.28965 0
M  V30 1004 H 83.2719 -6.5598 0.0518075 0
M  V30 1005 H 83.1889 -7.39565 1.5678 0
M  V30 1006 H 84.4569 -7.78239 0.443277 0
M  V30 1007 N 88.686 -0.835752 -1.33615 0
M  V30 1008 C 89.934 -0.429109 -1.97492 0
M  V30 1009 C 90.255 1.01433 -1.66543 0
M  V30 1010 O 89.525 1.70611 -0.962744 0
M  V30 1011 H 88.105 -0.155686 -0.730596 0
M  V30 1012 H 90.767 -1.06802 -1.63031 0
M  V30 1013 H 89.863 -0.55861 -3.0706 0
M  V30 1014 N 90.1641 1.46063 -0.591896 0
M  V30 1015 C 91.4101 2.02638 -0.0811191 0
M  V30 1016 C 91.7431 1.4613 1.27905 0
M  V30 1017 O 91.0181 0.629908 1.84017 0
M  V30 1018 C 91.3011 3.60091 -0.0252436 0
M  V30 1019 C 91.1541 4.26965 -1.41496 0
M  V30 1020 C 92.4731 4.3496 0.670685 0
M  V30 1021 H 89.5921 0.73635 -0.0309524 0
M  V30 1022 H 92.2341 1.741 -0.760859 0
M  V30 1023 H 90.3841 3.84535 0.553624 0
M  V30 1024 H 92.0561 4.13756 -2.0397 0
M  V30 1025 H 90.2991 3.85971 -1.98011 0
M  V30 1026 H 90.9701 5.35781 -1.32825 0
M  V30 1027 H 93.4461 4.15716 0.178825 0
M  V30 1028 H 92.3221 5.44686 0.678837 0
M  V30 1029 H 92.5831 4.06685 1.73379 0
M  V30 1030 N 91.6422 0.330177 1.54103 0
M  V30 1031 C 92.9192 -0.325007 1.92881 0
M  V30 1032 C 93.2992 -1.6934 1.26045 0
M  V30 1033 O 92.6472 -2.24855 0.406526 0
M  V30 1034 C 92.8572 -0.410634 3.46576 0
M  V30 1035 C 94.2052 -0.667801 4.19316 0
M  V30 1036 O 95.2292 -0.49329 3.52768 0
M  V30 1037 O 94.0882 -1.00491 5.37181 0
M  V30 1038 H 91.1822 -0.186873 0.80561 0
M  V30 1039 H 93.7282 0.380376 1.65382 0
M  V30 1040 H 92.5002 0.550164 3.87413 0
M  V30 1041 H 92.1232 -1.16333 3.802 0
M  V30 1042 N 93.1203 -1.57491 0.0584922 0
M  V30 1043 C 94.5313 -1.80526 -0.476138 0
M  V30 1044 C 94.8823 -0.971334 -1.70469 0
M  V30 1045 O 94.0073 -0.190012 -2.15564 0
M  V30 1046 C 94.6023 -3.27424 -0.870587 0
M  V30 1047 C 93.1613 -3.51351 -1.35015 0
M  V30 1048 C 92.3083 -2.75343 -0.32887 0
M  V30 1049 H 95.2593 -1.56133 0.284312 0
M  V30 1050 H 95.2803 -3.38745 -1.73299 0
M  V30 1051 H 94.7923 -3.88093 0.0237627 0
M  V30 1052 H 92.8933 -2.95971 -2.26345 0
M  V30 1053 H 93.0063 -4.60059 -1.33726 0
M  V30 1054 H 91.3703 -2.417 -0.803321 0
M  V30 1055 H 92.1533 -3.38743 0.557521 0
M  V30 1056 N 94.5984 0.214957 -1.56127 0
M  V30 1057 C 95.5464 1.28601 -1.93816 0
M  V30 1058 C 96.5404 1.48175 -0.821016 0
M  V30 1059 O 97.7464 1.49271 -1.0059 0
M  V30 1060 H 94.1214 0.431302 -0.616022 0
M  V30 1061 H 96.0924 0.940991 -2.83175 0
M  V30 1062 C 94.8414 2.62779 -2.27689 0
M  V30 1063 H 94.1644 2.48527 -3.13168 0
M  V30 1064 H 95.6044 3.36517 -2.57939 0
M  V30 1065 C 94.0634 3.18285 -1.10436 0
M  V30 1066 O 94.5934 4.00002 -0.368945 0
M  V30 1067 N 92.7994 2.7675 -0.886433 0
M  V30 1068 H 92.3464 2.10404 -1.48619 0
M  V30 1069 H 92.3044 3.14229 -0.103656 0
M  V30 1070 N 96.0765 1.50051 0.48192 0
M  V30 1071 C 97.0065 1.71046 1.58951 0
M  V30 1072 C 97.9875 0.559288 1.60642 0
M  V30 1073 O 99.1725 0.797243 1.77081 0
M  V30 1074 C 96.3025 1.79462 2.97339 0
M  V30 1075 C 95.2565 2.94558 3.10515 0
M  V30 1076 C 94.5825 2.88105 4.50444 0
M  V30 1077 C 95.8825 4.35227 2.88747 0
M  V30 1078 H 97.5765 2.6378 1.41635 0
M  V30 1079 H 95.1225 1.26936 0.679942 0
M  V30 1080 H 97.0755 1.92734 3.74742 0
M  V30 1081 H 95.7995 0.833412 3.15788 0
M  V30 1082 H 94.4585 2.80918 2.35543 0
M  V30 1083 H 94.1065 1.89853 4.65795 0
M  V30 1084 H 93.8065 3.65366 4.60197 0
M  V30 1085 H 95.3305 3.03412 5.29881 0
M  V30 1086 H 96.7445 4.49449 3.55905 0
M  V30 1087 H 95.1415 5.13856 3.09955 0
M  V30 1088 H 96.2115 4.48347 1.84696 0
M  V30 1089 N 97.5546 -0.734337 1.39446 0
M  V30 1090 C 98.8036 -1.48937 1.36017 0
M  V30 1091 C 99.1166 -1.95557 -0.0409005 0
M  V30 1092 O 100.323 -2.70779 -0.19778 0
M  V30 1093 C 98.7786 -2.69125 2.38955 0
M  V30 1094 C 98.3866 -2.29452 3.8478 0
M  V30 1095 C 100.131 -3.46944 2.44603 0
M  V30 1096 C 98.0376 -3.46366 4.79358 0
M  V30 1097 H 96.9676 -0.559296 0.505672 0
M  V30 1098 H 99.6186 -0.800983 1.65095 0
M  V30 1099 H 98.0006 -3.40041 2.02948 0
M  V30 1100 H 99.1746 -1.66077 4.29831 0
M  V30 1101 H 97.4896 -1.64723 3.82433 0
M  V30 1102 H 100.087 -4.33907 3.12456 0
M  V30 1103 H 100.43 -3.89454 1.47076 0
M  V30 1104 H 100.963 -2.83056 2.79507 0
M  V30 1105 H 97.7016 -3.08905 5.78151 0
M  V30 1106 H 97.2216 -4.08719 4.38986 0
M  V30 1107 H 98.9006 -4.12691 4.98292 0
M  V30 1108 N 99.0327 -1.24633 -0.964593 0
M  V30 1109 C 99.9807 -1.03917 -2.08096 0
M  V30 1110 C 100.975 0.0268581 -1.69379 0
M  V30 1111 O 102.181 -0.127952 -1.79545 0
M  V30 1112 H 98.5557 -0.319044 -0.680966 0
M  V30 1113 H 100.527 -1.98581 -2.22729 0
M  V30 1114 C 99.2757 -0.663983 -3.41301 0
M  V30 1115 H 98.5987 -1.47605 -3.71555 0
M  V30 1116 H 100.039 -0.558663 -4.20303 0
M  V30 1117 C 98.4977 0.629169 -3.30973 0
M  V30 1118 O 99.0277 1.67404 -3.65156 0
M  V30 1119 N 97.2337 0.611057 -2.84103 0
M  V30 1120 H 96.7807 -0.239593 -2.56483 0
M  V30 1121 H 96.7387 1.47647 -2.77575 0
M  V30 1122 N 100.511 1.16574 -1.06058 0
M  V30 1123 C 101.459 2.22941 -0.663343 0
M  V30 1124 C 102.453 1.66358 0.319593 0
M  V30 1125 O 103.659 1.7905 0.184713 0
M  V30 1126 H 100.034 0.725907 -0.196376 0
M  V30 1127 H 102.005 2.53736 -1.57037 0
M  V30 1128 C 100.754 3.47642 -0.0632808 0
M  V30 1129 H 100.077 3.91493 -0.810733 0
M  V30 1130 H 101.517 4.2363 0.177177 0
M  V30 1131 C 99.9758 3.1509 1.19248 0
M  V30 1132 O 100.506 3.30673 2.28075 0
M  V30 1133 N 98.7118 2.6924 1.09353 0
M  V30 1134 H 98.2588 2.5676 0.207912 0
M  V30 1135 H 98.2168 2.47833 1.93458 0
M  V30 1136 N 101.989 0.842826 1.3317 0
M  V30 1137 C 102.919 0.294028 2.31641 0
M  V30 1138 C 103.9 -0.600401 1.59151 0
M  V30 1139 O 105.085 -0.523124 1.87022 0
M  V30 1140 C 102.215 -0.528416 3.43257 0
M  V30 1141 C 101.169 0.27056 4.27144 0
M  V30 1142 C 100.495 -0.675881 5.30411 0
M  V30 1143 C 101.795 1.48981 5.00602 0
M  V30 1144 H 103.489 1.11681 2.77791 0
M  V30 1145 H 101.035 0.538478 1.33553 0
M  V30 1146 H 102.988 -0.922674 4.11175 0
M  V30 1147 H 101.712 -1.38445 2.95805 0
M  V30 1148 H 100.371 0.646427 3.60856 0
M  V30 1149 H 100.019 -1.52842 4.79216 0
M  V30 1150 H 99.7189 -0.145374 5.8742 0
M  V30 1151 H 101.243 -1.06757 6.01195 0
M  V30 1152 H 102.657 1.16849 5.61266 0
M  V30 1153 H 101.054 1.95739 5.6728 0
M  V30 1154 H 102.124 2.25746 4.29147 0
M  V30 1155 N 103.467 -1.45747 0.599634 0
M  V30 1156 C 104.377 -2.34262 -0.125888 0
M  V30 1157 C 105.393 -1.50768 -0.868625 0
M  V30 1158 O 106.569 -1.83592 -0.828003 0
M  V30 1159 C 103.634 -3.28252 -1.11587 0
M  V30 1160 C 102.695 -4.27651 -0.375956 0
M  V30 1161 C 101.928 -5.1715 -1.31877 0
M  V30 1162 O 102.151 -5.09916 -2.55621 0
M  V30 1163 O 101.085 -5.96286 -0.820157 0
M  V30 1164 H 104.911 -2.97688 0.601315 0
M  V30 1165 H 102.496 -1.44999 0.359934 0
M  V30 1166 H 104.378 -3.86191 -1.68626 0
M  V30 1167 H 103.053 -2.67401 -1.82424 0
M  V30 1168 H 101.96 -3.7335 0.236698 0
M  V30 1169 H 103.293 -4.91334 0.29177 0
M  V30 1170 N 104.945 -0.338344 -1.53925 0
M  V30 1171 C 106.173 0.261298 -2.05243 0
M  V30 1172 C 106.588 1.44625 -1.21363 0
M  V30 1173 O 105.945 1.80811 -0.247736 0
M  V30 1174 C 105.996 0.681412 -3.5502 0
M  V30 1175 O 105.717 -0.456414 -4.35716 0
M  V30 1176 C 107.218 1.34232 -4.22489 0
M  V30 1177 H 104.438 0.0513685 -0.669031 0
M  V30 1178 H 106.982 -0.488822 -1.98572 0
M  V30 1179 H 105.137 1.38148 -3.61931 0
M  V30 1180 H 105.551 -0.122564 -5.24357 0
M  V30 1181 H 107.025 1.58708 -5.28693 0
M  V30 1182 H 107.502 2.29426 -3.74514 0
M  V30 1183 H 108.108 0.684424 -4.19757 0
M  V30 1184 N 106.423 1.57458 -0.0668435 0
M  V30 1185 C 107.67 1.93301 0.603406 0
M  V30 1186 C 107.998 0.946486 1.69917 0
M  V30 1187 O 107.253 -0.0387021 1.95662 0
M  V30 1188 C 107.552 3.35784 1.22409 0
M  V30 1189 C 107.218 4.50179 0.254955 0
M  V30 1190 C 105.88 4.81199 -0.0116746 0
M  V30 1191 C 108.232 5.19598 -0.408338 0
M  V30 1192 C 105.56 5.78978 -0.94877 0
M  V30 1193 C 107.912 6.18381 -1.33372 0
M  V30 1194 C 106.576 6.47821 -1.60887 0
M  V30 1195 H 105.846 0.707338 0.220802 0
M  V30 1196 H 108.493 1.91012 -0.136665 0
M  V30 1197 H 106.798 3.34515 2.03978 0
M  V30 1198 H 108.495 3.60804 1.74989 0
M  V30 1199 H 105.085 4.25983 0.472954 0
M  V30 1200 H 109.269 4.95832 -0.215456 0
M  V30 1201 H 104.525 6.00115 -1.16925 0
M  V30 1202 H 108.699 6.71277 -1.85367 0
M  V30 1203 H 106.326 7.23399 -2.33661 0
M  V30 1204 N 107.901 -0.206675 1.56239 0
M  V30 1205 C 109.148 -0.928842 1.79941 0
M  V30 1206 C 109.476 -1.83734 0.638131 0
M  V30 1207 O 108.731 -1.92039 -0.376746 0
M  V30 1208 C 109.03 -1.78675 3.09532 0
M  V30 1209 C 108.696 -1.03022 4.38973 0
M  V30 1210 C 107.358 -0.821302 4.74139 0
M  V30 1211 C 109.71 -0.497081 5.18824 0
M  V30 1212 C 107.038 -0.0675719 5.86661 0
M  V30 1213 C 109.39 0.24338 6.32132 0
M  V30 1214 C 108.054 0.463422 6.65889 0
M  V30 1215 H 107.324 -0.339887 0.658451 0
M  V30 1216 H 109.971 -0.195977 1.90495 0
M  V30 1217 H 108.276 -2.58794 2.94165 0
M  V30 1218 H 109.973 -2.34792 3.25075 0
M  V30 1219 H 106.563 -1.20306 4.11369 0
M  V30 1220 H 110.747 -0.645921 4.92079 0
M  V30 1221 H 106.003 0.112995 6.11296 0
M  V30 1222 H 110.177 0.66393 6.93228 0
M  V30 1223 H 107.804 1.04938 7.52922 0
M  V30 1224 N 109.379 -1.50304 -0.473955 0
M  V30 1225 C 110.289 -1.7174 -1.5982 0
M  V30 1226 C 111.305 -0.600457 -1.63311 0
M  V30 1227 O 112.481 -0.878441 -1.81233 0
M  V30 1228 C 109.546 -1.80427 -2.96052 0
M  V30 1229 C 108.607 -3.04148 -3.02972 0
M  V30 1230 C 107.84 -3.12411 -4.32706 0
M  V30 1231 O 108.063 -2.27542 -5.23049 0
M  V30 1232 O 106.997 -4.05113 -4.45159 0
M  V30 1233 H 110.823 -2.67035 -1.44657 0
M  V30 1234 H 108.408 -1.34366 -0.653148 0
M  V30 1235 H 110.29 -1.88338 -3.7697 0
M  V30 1236 H 108.965 -0.883156 -3.11419 0
M  V30 1237 H 107.872 -3.0174 -2.21142 0
M  V30 1238 H 109.205 -3.95829 -2.92541 0
M  V30 1239 N 110.857 0.726932 -1.39834 0
M  V30 1240 C 111.787 1.85405 -1.41941 0
M  V30 1241 C 112.768 1.67751 -0.281728 0
M  V30 1242 O 113.953 1.8795 -0.488717 0
M  V30 1243 C 111.083 3.23243 -1.2701 0
M  V30 1244 C 110.037 3.55549 -2.38262 0
M  V30 1245 C 109.363 4.9241 -2.08415 0
M  V30 1246 C 110.663 3.577 -3.80589 0
M  V30 1247 H 112.357 1.83899 -2.36266 0
M  V30 1248 H 109.903 0.883349 -1.13723 0
M  V30 1249 H 111.856 4.01775 -1.27103 0
M  V30 1250 H 110.58 3.25296 -0.291564 0
M  V30 1251 H 109.239 2.79351 -2.37399 0
M  V30 1252 H 108.887 4.91052 -1.0898 0
M  V30 1253 H 108.587 5.14992 -2.82943 0
M  V30 1254 H 110.111 5.73289 -2.10171 0
M  V30 1255 H 111.525 4.26293 -3.83337 0
M  V30 1256 H 109.922 3.91804 -4.54543 0
M  V30 1257 H 110.992 2.57328 -4.10987 0
M  V30 1258 N 112.336 1.25143 0.95797 0
M  V30 1259 C 113.613 1.00472 1.67823 0
M  V30 1260 C 113.993 -0.470056 2.058 0
M  V30 1261 O 113.341 -1.44663 1.76875 0
M  V30 1262 C 113.551 1.9372 2.90299 0
M  V30 1263 C 114.899 2.21371 3.62326 0
M  V30 1264 O 115.923 1.91451 3.00375 0
M  V30 1265 O 114.782 2.72231 4.7387 0
M  V30 1266 H 111.876 0.380752 0.734137 0
M  V30 1267 H 114.422 1.36283 1.01119 0
M  V30 1268 H 113.194 2.93316 2.59001 0
M  V30 1269 H 112.817 1.58286 3.64735 0
M  V30 1270 N 113.814 -1.1601 1.06675 0
M  V30 1271 C 115.044 -1.90251 0.805497 0
M  V30 1272 C 115.452 -1.77891 -0.64431 0
M  V30 1273 O 114.795 -1.12383 -1.45313 0
M  V30 1274 C 114.857 -3.41419 1.12576 0
M  V30 1275 C 114.521 -3.77564 2.57477 0
M  V30 1276 C 115.518 -3.79161 3.55715 0
M  V30 1277 C 113.203 -4.08079 2.92877 0
M  V30 1278 C 115.197 -4.10767 4.8739 0
M  V30 1279 C 112.884 -4.39351 4.24751 0
M  V30 1280 C 113.882 -4.40675 5.21818 0
M  V30 1281 O 113.57 -4.71202 6.51325 0
M  V30 1282 H 113.302 -0.610018 0.291297 0
M  V30 1283 H 115.856 -1.47958 1.4247 0
M  V30 1284 H 114.086 -3.84079 0.449503 0
M  V30 1285 H 115.775 -3.9694 0.84814 0
M  V30 1286 H 116.541 -3.55693 3.29708 0
M  V30 1287 H 112.42 -4.06211 2.17976 0
M  V30 1288 H 115.964 -4.11715 5.63148 0
M  V30 1289 H 111.861 -4.62285 4.50514 0
M  V30 1290 H 112.629 -4.88996 6.56373 0
M  V30 1291 N 115.292 -0.849877 -1.32721 0
M  V30 1292 C 116.703 -0.506188 -1.79707 0
M  V30 1293 C 117.054 0.975627 -1.70223 0
M  V30 1294 O 116.179 1.76078 -1.25799 0
M  V30 1295 C 116.774 -0.912044 -3.26293 0
M  V30 1296 C 115.333 -0.620326 -3.71253 0
M  V30 1297 C 114.48 -1.11439 -2.53922 0
M  V30 1298 H 117.431 -1.03754 -1.20087 0
M  V30 1299 H 117.452 -0.226493 -3.79825 0
M  V30 1300 H 116.964 -1.99057 -3.33164 0
M  V30 1301 H 115.065 0.447674 -3.69901 0
M  V30 1302 H 115.178 -1.18327 -4.64258 0
M  V30 1303 H 113.542 -0.534834 -2.49021 0
M  V30 1304 H 114.325 -2.19992 -2.6355 0
M  V30 1305 N 116.77 1.45427 -0.607355 0
M  V30 1306 C 117.717 2.3053 0.111625 0
M  V30 1307 C 118.687 1.4209 0.860216 0
M  V30 1308 O 119.872 1.71019 0.845998 0
M  V30 1309 C 117.012 3.26992 1.10319 0
M  V30 1310 C 116.125 4.30535 0.355493 0
M  V30 1311 C 115.26 5.14105 1.33676 0
M  V30 1312 C 114.299 6.09376 0.576862 0
M  V30 1313 N 113.436 6.85727 1.5074 0
M  V30 1314 H 118.276 2.91477 -0.620093 0
M  V30 1315 H 115.813 1.43631 -0.317594 0
M  V30 1316 H 117.771 3.81385 1.6912 0
M  V30 1317 H 116.401 2.67799 1.80232 0
M  V30 1318 H 115.453 3.78805 -0.348023 0
M  V30 1319 H 116.765 4.98235 -0.237423 0
M  V30 1320 H 115.919 5.72897 1.99684 0
M  V30 1321 H 114.658 4.46423 1.9636 0
M  V30 1322 H 113.663 5.49715 -0.0968519 0
M  V30 1323 H 114.888 6.79085 -0.0449341 0
M  V30 1324 H 112.834 6.20735 2.12189 0
M  V30 1325 H 112.751 7.49778 0.967913 0
M  V30 1326 H 114.019 7.4906 2.15706 0
M  V30 1327 N 118.248 0.346503 1.53744 0
M  V30 1328 C 119.478 -0.250047 2.05081 0
M  V30 1329 C 119.886 -1.44529 1.22098 0
M  V30 1330 O 119.229 -1.81992 0.249917 0
M  V30 1331 C 119.291 -0.725934 3.52094 0
M  V30 1332 C 118.955 0.350053 4.55657 0
M  V30 1333 C 119.952 1.19372 5.0601 0
M  V30 1334 C 117.637 0.504827 4.99757 0
M  V30 1335 C 119.631 2.17768 5.99046 0
M  V30 1336 C 117.318 1.49218 5.92602 0
M  V30 1337 C 118.316 2.32706 6.42135 0
M  V30 1338 O 118.004 3.2976 7.33153 0
M  V30 1339 H 117.736 -0.0515469 0.674032 0
M  V30 1340 H 120.29 0.497559 1.99282 0
M  V30 1341 H 118.52 -1.52483 3.55367 0
M  V30 1342 H 120.209 -1.24336 3.86388 0
M  V30 1343 H 120.975 1.08525 4.72702 0
M  V30 1344 H 116.854 -0.135178 4.60802 0
M  V30 1345 H 120.398 2.82971 6.37631 0
M  V30 1346 H 116.295 1.6012 6.25325 0
M  V30 1347 H 117.063 3.25265 7.51096 0
M  V30 1348 N 119.726 -1.57421 0.075193 0
M  V30 1349 C 120.636 -2.1642 -0.905511 0
M  V30 1350 C 121.652 -1.12828 -1.32461 0
M  V30 1351 O 122.828 -1.45109 -1.39661 0
M  V30 1352 C 119.893 -2.71693 -2.15369 0
M  V30 1353 C 118.954 -3.90171 -1.79068 0
M  V30 1354 C 118.187 -4.42798 -2.97936 0
M  V30 1355 O 118.41 -3.94416 -4.12058 0
M  V30 1356 O 117.344 -5.34085 -2.77555 0
M  V30 1357 H 121.17 -3.00588 -0.433626 0
M  V30 1358 H 118.755 -1.48664 -0.148067 0
M  V30 1359 H 120.637 -3.07104 -2.88557 0
M  V30 1360 H 119.312 -1.90582 -2.61649 0
M  V30 1361 H 118.219 -3.59606 -1.03122 0
M  V30 1362 H 119.552 -4.72584 -1.37569 0
M  V30 1363 N 121.204 0.198386 -1.56346 0
M  V30 1364 C 122.45 0.920648 -1.80698 0
M  V30 1365 C 122.783 1.83045 -0.648697 0
M  V30 1366 O 122.058 1.91308 0.350925 0
M  V30 1367 C 122.341 1.73971 -3.15287 0
M  V30 1368 C 122.194 0.85485 -4.41602 0
M  V30 1369 C 123.513 2.71296 -3.46535 0
M  V30 1370 H 120.632 0.333261 -0.657348 0
M  V30 1371 H 123.274 0.188198 -1.89066 0
M  V30 1372 H 121.424 2.36416 -3.08285 0
M  V30 1373 H 123.096 0.245362 -4.60647 0
M  V30 1374 H 121.339 0.161398 -4.335 0
M  V30 1375 H 122.01 1.46286 -5.32264 0
M  V30 1376 H 124.486 2.18983 -3.53816 0
M  V30 1377 H 123.362 3.2569 -4.41834 0
M  V30 1378 H 123.623 3.5018 -2.69864 0
M  V30 1379 N 122.682 1.50554 0.465978 0
M  V30 1380 C 123.612 1.72722 1.57128 0
M  V30 1381 C 124.593 0.576294 1.6004 0
M  V30 1382 O 125.778 0.81598 1.76225 0
M  V30 1383 C 122.908 1.82605 2.95419 0
M  V30 1384 C 121.862 2.97835 3.07373 0
M  V30 1385 C 121.188 2.92867 4.47363 0
M  V30 1386 C 122.488 4.38265 2.84114 0
M  V30 1387 H 124.182 2.65267 1.38829 0
M  V30 1388 H 121.728 1.2765 0.666441 0
M  V30 1389 H 123.681 1.96698 3.72677 0
M  V30 1390 H 122.405 0.866858 3.14886 0
M  V30 1391 H 121.064 2.83401 2.3255 0
M  V30 1392 H 120.712 1.94783 4.63755 0
M  V30 1393 H 120.412 3.70227 4.56296 0
M  V30 1394 H 121.936 3.09015 5.26633 0
M  V30 1395 H 123.35 4.53198 3.51118 0
M  V30 1396 H 121.747 5.17115 3.04487 0
M  V30 1397 H 122.817 4.50281 1.7993 0
M  V30 1398 N 124.16 -0.719506 1.40217 0
M  V30 1399 C 125.09 -1.8465 1.42922 0
M  V30 1400 C 126.071 -1.67599 0.29062 0
M  V30 1401 O 127.256 -1.87688 0.498677 0
M  V30 1402 C 124.386 -3.22565 1.28722 0
M  V30 1403 C 123.34 -3.54281 2.40144 0
M  V30 1404 C 122.666 -4.91298 2.11023 0
M  V30 1405 C 123.966 -3.55676 3.82481 0
M  V30 1406 H 125.66 -1.82644 2.37237 0
M  V30 1407 H 123.206 -0.877305 1.1419 0
M  V30 1408 H 125.159 -4.01095 1.29232 0
M  V30 1409 H 123.883 -3.25137 0.308811 0
M  V30 1410 H 122.542 -2.78088 2.38877 0
M  V30 1411 H 122.19 -4.90468 1.11582 0
M  V30 1412 H 121.89 -5.13485 2.8567 0
M  V30 1413 H 123.414 -5.72166 2.13209 0
M  V30 1414 H 124.828 -4.24254 3.85592 0
M  V30 1415 H 123.225 -3.89388 4.56614 0
M  V30 1416 H 124.295 -2.55144 4.12346 0
M  V30 1417 N 125.638 -1.25649 -0.95132 0
M  V30 1418 C 126.878 -1.11802 -1.71113 0
M  V30 1419 C 127.242 0.334758 -1.89059 0
M  V30 1420 O 128.443 0.595121 -2.62129 0
M  V30 1421 C 126.714 -1.85512 -3.05483 0
M  V30 1422 S 128.273 -1.87597 -3.96677 0
M  V30 1423 H 125.091 -0.399552 -0.588115 0
M  V30 1424 H 127.693 -1.59222 -1.1344 0
M  V30 1425 H 126.397 -2.90299 -2.90094 0
M  V30 1426 H 125.928 -1.38493 -3.68216 0
M  V30 1427 H 127.943 -0.955389 -4.86916 0
M  V30 1428 N 127.117 1.15442 -1.07289 0
M  V30 1429 C 128.363 1.86489 -0.796846 0
M  V30 1430 C 128.696 1.82078 0.675371 0
M  V30 1431 O 127.971 1.24346 1.4956 0
M  V30 1432 C 128.254 3.35626 -1.30489 0
M  V30 1433 C 128.107 3.48673 -2.84161 0
M  V30 1434 C 129.426 4.30357 -0.920907 0
M  V30 1435 H 126.545 0.677144 -0.290939 0
M  V30 1436 H 129.187 1.35633 -1.33056 0
M  V30 1437 H 127.337 3.79068 -0.850883 0
M  V30 1438 H 129.009 3.14099 -3.37846 0
M  V30 1439 H 127.252 2.90253 -3.22391 0
M  V30 1440 H 127.923 4.53453 -3.14777 0
M  V30 1441 H 130.399 3.94871 -1.3121 0
M  V30 1442 H 129.275 5.33193 -1.30372 0
M  V30 1443 H 129.536 4.4176 0.173226 0
M  V30 1444 N 128.595 0.856903 1.32268 0
M  V30 1445 C 129.527 0.260412 2.27716 0
M  V30 1446 C 130.54 -0.569137 1.52528 0
M  V30 1447 O 131.729 -0.39326 1.74114 0
M  V30 1448 C 128.829 -0.650477 3.32599 0
M  V30 1449 C 128.002 0.14372 4.37164 0
M  V30 1450 C 127.061 -0.69328 5.21613 0
M  V30 1451 O 126.087 -0.12599 5.69061 0
M  V30 1452 N 127.289 -2.00761 5.44679 0
M  V30 1453 H 130.054 1.08059 2.79541 0
M  V30 1454 H 127.615 0.717103 1.45152 0
M  V30 1455 H 129.607 -1.21581 3.86005 0
M  V30 1456 H 128.177 -1.37133 2.80915 0
M  V30 1457 H 127.397 0.890486 3.8401 0
M  V30 1458 H 128.685 0.68915 5.04111 0
M  V30 1459 H 128.083 -2.49181 5.07863 0
M  V30 1460 H 126.64 -2.52103 6.01072 0
M  V30 1461 N 130.073 -1.45103 0.615059 0
M  V30 1462 C 131.35 -1.95549 0.0448276 0
M  V30 1463 C 131.73 -1.55737 -1.4251 0
M  V30 1464 O 131.078 -0.823556 -2.13143 0
M  V30 1465 C 131.288 -3.48098 0.250785 0
M  V30 1466 C 132.636 -4.24384 0.135509 0
M  V30 1467 O 133.66 -3.55738 0.181299 0
M  V30 1468 O 132.519 -5.46493 0.0268878 0
M  V30 1469 H 129.613 -0.8264 -0.0314845 0
M  V30 1470 H 132.159 -1.55232 0.685642 0
M  V30 1471 H 130.931 -3.7007 1.27139 0
M  V30 1472 H 130.554 -3.95323 -0.424937 0
M  V30 1473 N 131.551 -0.354651 -1.53558 0
M  V30 1474 C 132.501 0.513179 -2.2215 0
M  V30 1475 C 133.485 1.05734 -1.21281 0
M  V30 1476 O 134.677 0.989202 -1.46778 0
M  V30 1477 C 131.806 1.65798 -3.00609 0
M  V30 1478 C 130.892 1.12722 -4.08845 0
M  V30 1479 N 131.283 0.318563 -5.04796 0
M  V30 1480 C 129.581 1.40307 -4.23356 0
M  V30 1481 C 130.282 0.0292224 -5.81693 0
M  V30 1482 N 129.258 0.623891 -5.40008 0
M  V30 1483 H 133.06 -0.111586 -2.93688 0
M  V30 1484 H 130.574 -0.162091 -1.61589 0
M  V30 1485 H 132.571 2.29176 -3.48258 0
M  V30 1486 H 131.231 2.28591 -2.306 0
M  V30 1487 H 132.242 -0.0413091 -5.17884 0
M  V30 1488 H 128.919 2.03458 -3.6457 0
M  V30 1489 H 130.309 -0.623808 -6.68998 0
M  V30 1490 N 133.029 1.57378 -0.0835403 0
M  V30 1491 C 134.306 1.85363 0.624507 0
M  V30 1492 C 134.686 0.978239 1.87066 0
M  V30 1493 O 134.034 0.0475908 2.2845 0
M  V30 1494 C 134.244 3.35795 0.950947 0
M  V30 1495 C 135.592 4.03581 1.31939 0
M  V30 1496 O 136.616 3.40609 1.04232 0
M  V30 1497 O 135.475 5.14672 1.83779 0
M  V30 1498 H 132.569 0.766162 0.311329 0
M  V30 1499 H 135.115 1.69307 -0.115362 0
M  V30 1500 H 133.887 3.91244 0.0663899 0
M  V30 1501 H 133.51 3.57154 1.74719 0
M  V30 1502 N 134.507 -0.190092 1.56449 0
M  V30 1503 C 135.784 -0.935886 1.71757 0
M  V30 1504 C 136.164 -2.01173 0.639726 0
M  V30 1505 O 135.512 -2.25827 -0.348502 0
M  V30 1506 C 135.722 -1.51775 3.1427 0
M  V30 1507 C 137.07 -1.99794 3.74656 0
M  V30 1508 O 138.094 -1.61607 3.1743 0
M  V30 1509 O 136.953 -2.70079 4.751 0
M  V30 1510 H 134.047 -0.439229 0.700719 0
M  V30 1511 H 136.593 -0.179395 1.68749 0
M  V30 1512 H 135.365 -0.742505 3.84191 0
M  V30 1513 H 134.988 -2.33894 3.21527 0
M  V30 1514 N 135.985 -1.50799 -0.457987 0
M  V30 1515 C 137.396 -1.55152 -1.0385 0
M  V30 1516 C 137.747 -0.362719 -1.92818 0
M  V30 1517 O 136.872 0.522915 -2.09987 0
M  V30 1518 C 137.467 -2.81173 -1.89017 0
M  V30 1519 C 136.026 -2.88164 -2.42154 0
M  V30 1520 C 135.173 -2.49591 -1.20829 0
M  V30 1521 H 138.124 -1.56874 -0.240068 0
M  V30 1522 H 138.145 -2.63769 -2.74238 0
M  V30 1523 H 137.657 -3.67677 -1.24238 0
M  V30 1524 H 135.758 -2.06042 -3.10447 0
M  V30 1525 H 135.871 -3.91356 -2.76364 0
M  V30 1526 H 134.235 -2.02322 -1.54719 0
M  V30 1527 H 135.018 -3.38418 -0.576927 0
M  V30 1528 N 137.463 0.71206 -1.40597 0
M  V30 1529 C 138.426 1.80785 -1.40888 0
M  V30 1530 C 139.426 1.57937 -0.302103 0
M  V30 1531 O 140.616 1.64913 -0.561182 0
M  V30 1532 C 137.748 3.18927 -1.20409 0
M  V30 1533 H 138.941 1.81924 -2.38419 0
M  V30 1534 H 136.494 0.91805 -1.26497 0
M  V30 1535 H 137.229 3.23436 -0.236522 0
M  V30 1536 H 137.014 3.36911 -2.00582 0
M  V30 1537 H 138.504 3.98949 -1.23408 0
M  V30 1538 N 138.941 1.26152 0.944643 0
M  V30 1539 C 140.19 1.10883 1.68487 0
M  V30 1540 C 140.503 -0.348153 1.92477 0
M  V30 1541 O 141.709 -0.621459 2.64292 0
M  V30 1542 C 140.165 1.93624 3.03377 0
M  V30 1543 C 139.773 3.43875 2.87148 0
M  V30 1544 C 141.517 1.86954 3.81115 0
M  V30 1545 C 139.424 4.18875 4.1749 0
M  V30 1546 H 138.354 0.41135 0.631907 0
M  V30 1547 H 141.005 1.50433 1.05082 0
M  V30 1548 H 139.387 1.46904 3.67743 0
M  V30 1549 H 140.561 3.98338 2.31653 0
M  V30 1550 H 138.876 3.51744 2.22856 0
M  V30 1551 H 141.473 2.40275 4.77673 0
M  V30 1552 H 141.816 0.839518 4.07747 0
M  V30 1553 H 142.349 2.31477 3.23517 0
M  V30 1554 H 139.088 5.22332 3.96043 0
M  V30 1555 H 138.608 3.69193 4.72712 0
M  V30 1556 H 140.287 4.27134 4.85968 0
M  V30 1557 N 140.419 -1.14872 1.07899 0
M  V30 1558 C 141.696 -1.81928 0.71845 0
M  V30 1559 C 142.076 -1.95417 -0.798455 0
M  V30 1560 O 141.424 -1.50997 -1.715 0
M  V30 1561 C 141.634 -3.17937 1.43935 0
M  V30 1562 C 142.982 -3.93501 1.59506 0
M  V30 1563 O 144.006 -3.27509 1.40058 0
M  V30 1564 O 142.865 -5.1183 1.91551 0
M  V30 1565 H 139.959 -0.78628 0.256305 0
M  V30 1566 H 142.505 -1.21934 1.18026 0
M  V30 1567 H 141.277 -3.0325 2.47295 0
M  V30 1568 H 140.9 -3.85619 0.968687 0
M  V30 1569 N 141.898 -0.863906 -1.31812 0
M  V30 1570 C 143.144 -0.472535 -1.97218 0
M  V30 1571 C 143.477 0.971394 -1.68159 0
M  V30 1572 O 142.752 1.68309 -0.974798 0
M  V30 1573 C 143.035 -0.723054 -3.52766 0
M  V30 1574 C 142.888 -2.21608 -3.91421 0
M  V30 1575 C 144.207 -0.185522 -4.39709 0
M  V30 1576 H 141.326 -0.173158 -0.71637 0
M  V30 1577 H 143.968 -1.08403 -1.56041 0
M  V30 1578 H 142.118 -0.202577 -3.87971 0
M  V30 1579 H 143.79 -2.80334 -3.66347 0
M  V30 1580 H 142.033 -2.691 -3.40246 0
M  V30 1581 H 142.704 -2.34203 -4.99853 0
M  V30 1582 H 145.18 -0.630726 -4.11292 0
M  V30 1583 H 144.056 -0.390306 -5.47511 0
M  V30 1584 H 144.317 0.912229 -4.32586 0
M  V30 1585 N 143.376 1.44774 -0.622745 0
M  V30 1586 C 144.616 2.04004 -0.127102 0
M  V30 1587 C 144.98 1.47862 1.22478 0
M  V30 1588 O 146.181 1.98541 1.81204 0
M  V30 1589 C 144.452 3.57247 -0.104429 0
M  V30 1590 S 146.011 4.37574 0.327814 0
M  V30 1591 H 142.829 0.708713 -0.0569776 0
M  V30 1592 H 145.431 1.77275 -0.824253 0
M  V30 1593 H 144.135 3.95616 -1.09159 0
M  V30 1594 H 143.666 3.88575 0.614236 0
M  V30 1595 H 145.681 4.70575 1.57395 0
M  V30 1596 N 144.854 0.36279 1.53368 0
M  V30 1597 C 145.801 -0.485008 2.25646 0
M  V30 1598 C 146.771 -1.07982 1.2621 0
M  V30 1599 O 147.956 -1.11284 1.54986 0
M  V30 1600 C 145.096 -1.62023 3.04701 0
M  V30 1601 C 144.209 -1.05086 4.19024 0
M  V30 1602 C 143.344 -2.15496 4.85525 0
M  V30 1603 C 142.383 -1.5601 5.91884 0
M  V30 1604 N 141.52 -2.60241 6.52088 0
M  V30 1605 H 146.36 0.137864 2.97681 0
M  V30 1606 H 143.897 0.0798061 1.46883 0
M  V30 1607 H 145.855 -2.28887 3.48807 0
M  V30 1608 H 144.485 -2.2138 2.34927 0
M  V30 1609 H 143.537 -0.27259 3.79422 0
M  V30 1610 H 144.849 -0.575926 4.95464 0
M  V30 1611 H 144.003 -2.90186 5.32801 0
M  V30 1612 H 142.742 -2.66341 4.08551 0
M  V30 1613 H 141.747 -0.798338 5.43973 0
M  V30 1614 H 142.972 -1.05994 6.70777 0
M  V30 1615 H 140.918 -3.10304 5.77968 0
M  V30 1616 H 140.835 -2.17426 7.24059 0
M  V30 1617 H 142.103 -3.34641 7.04014 0
M  V30 1618 N 146.332 -1.57332 0.0918853 0
M  V30 1619 C 147.279 -2.13847 -0.868211 0
M  V30 1620 C 148.249 -1.05618 -1.28196 0
M  V30 1621 O 149.434 -1.33387 -1.36427 0
M  V30 1622 C 146.574 -2.72062 -2.12312 0
M  V30 1623 C 145.687 -3.94514 -1.7602 0
M  V30 1624 C 144.822 -4.40903 -2.96273 0
M  V30 1625 C 143.861 -5.55953 -2.56092 0
M  V30 1626 N 142.998 -5.97209 -3.69169 0
M  V30 1627 H 147.838 -2.95575 -0.379406 0
M  V30 1628 H 145.375 -1.46048 -0.175606 0
M  V30 1629 H 147.333 -3.03931 -2.858 0
M  V30 1630 H 145.963 -1.93068 -2.58698 0
M  V30 1631 H 145.015 -3.68979 -0.925135 0
M  V30 1632 H 146.327 -4.7802 -1.42472 0
M  V30 1633 H 145.481 -4.74539 -3.78018 0
M  V30 1634 H 144.22 -3.56291 -3.33029 0
M  V30 1635 H 143.225 -5.21948 -1.72773 0
M  V30 1636 H 144.45 -6.42311 -2.20484 0
M  V30 1637 H 142.396 -5.15543 -4.05649 0
M  V30 1638 H 142.313 -6.75504 -3.39456 0
M  V30 1639 H 143.581 -6.35475 -4.51434 0
M  V30 1640 N 147.81 0.181792 -1.56548 0
M  V30 1641 C 148.74 1.22765 -1.98623 0
M  V30 1642 C 149.721 1.46747 -0.860189 0
M  V30 1643 O 150.906 1.58259 -1.12551 0
M  V30 1644 C 148.036 2.56894 -2.33715 0
M  V30 1645 C 146.99 2.475 -3.49182 0
M  V30 1646 C 146.316 3.86023 -3.69986 0
M  V30 1647 C 147.616 1.98866 -4.82959 0
M  V30 1648 H 149.31 0.877942 -2.86239 0
M  V30 1649 H 146.856 0.42088 -1.37712 0
M  V30 1650 H 148.809 3.30253 -2.61746 0
M  V30 1651 H 147.533 2.93632 -1.42997 0
M  V30 1652 H 146.192 1.76596 -3.21262 0
M  V30 1653 H 145.84 4.20136 -2.76576 0
M  V30 1654 H 145.54 3.80609 -4.47672 0
M  V30 1655 H 147.064 4.60984 -4.00407 0
M  V30 1656 H 148.478 2.61992 -5.09934 0
M  V30 1657 H 146.875 2.04424 -5.64208 0
M  V30 1658 H 147.945 0.942465 -4.75653 0
M  V30 1659 N 149.288 1.51039 0.449983 0
M  V30 1660 C 150.218 1.74379 1.55288 0
M  V30 1661 C 151.199 0.593236 1.5942 0
M  V30 1662 O 152.384 0.834625 1.7535 0
M  V30 1663 C 149.514 1.85728 2.93466 0
M  V30 1664 C 148.468 3.01078 3.04197 0
M  V30 1665 C 147.794 2.97595 4.44231 0
M  V30 1666 C 149.094 4.41254 2.7945 0
M  V30 1667 H 150.788 2.66725 1.36008 0
M  V30 1668 H 148.334 1.2835 0.652864 0
M  V30 1669 H 150.287 2.0064 3.70569 0
M  V30 1670 H 149.011 0.900207 3.13949 0
M  V30 1671 H 147.67 2.85851 2.29531 0
M  V30 1672 H 147.318 1.99691 4.61663 0
M  V30 1673 H 147.018 3.75046 4.52343 0
M  V30 1674 H 148.542 3.14583 5.23326 0
M  V30 1675 H 149.956 4.56897 3.46292 0
M  V30 1676 H 148.353 5.20315 2.98985 0
M  V30 1677 H 149.423 4.52164 1.75144 0
M  V30 1678 N 150.766 -0.704594 1.40972 0
M  V30 1679 C 152.014 -1.46169 1.39568 0
M  V30 1680 C 152.335 -1.95 0.00253745 0
M  V30 1681 O 151.605 -1.71095 -0.954114 0
M  V30 1682 H 150.185 -0.542326 0.513704 0
M  V30 1683 H 152.847 -0.834553 1.76128 0
M  V30 1684 H 151.943 -2.32922 2.07735 0
M  V30 1685 N 152.244 -1.26651 -0.937939 0
M  V30 1686 C 153.191 -1.0849 -2.03712 0
M  V30 1687 C 154.161 0.011033 -1.66096 0
M  V30 1688 O 155.346 -0.149353 -1.90215 0
M  V30 1689 C 152.486 -0.72735 -3.37348 0
M  V30 1690 C 151.599 -1.89986 -3.87981 0
M  V30 1691 C 150.734 -1.48513 -5.10017 0
M  V30 1692 C 149.773 -2.62575 -5.5292 0
M  V30 1693 N 148.91 -2.21762 -6.66158 0
M  V30 1694 H 153.75 -2.02551 -2.18579 0
M  V30 1695 H 151.287 -1.00844 -1.07093 0
M  V30 1696 H 153.245 -0.50092 -4.14182 0
M  V30 1697 H 151.875 0.176298 -3.22318 0
M  V30 1698 H 150.927 -2.23913 -3.07518 0
M  V30 1699 H 152.239 -2.75586 -4.15757 0
M  V30 1700 H 151.393 -1.21934 -5.94321 0
M  V30 1701 H 150.132 -0.60009 -4.83994 0
M  V30 1702 H 149.137 -2.8988 -4.67172 0
M  V30 1703 H 150.362 -3.51685 -5.80943 0
M  V30 1704 H 148.308 -1.35696 -6.41812 0
M  V30 1705 H 148.225 -3.00903 -6.93537 0
M  V30 1706 H 149.493 -1.98403 -7.53828 0
M  V30 1707 N 153.722 1.14298 -1.08507 0
M  V30 1708 C 154.952 1.88945 -0.835663 0
M  V30 1709 C 155.36 1.78894 0.615928 0
M  V30 1710 O 154.703 1.1468 1.43506 0
M  V30 1711 C 154.765 3.39585 -1.17994 0
M  V30 1712 C 154.429 3.7342 -2.63451 0
M  V30 1713 C 155.426 3.73454 -3.61702 0
M  V30 1714 C 153.111 4.03368 -2.99332 0
M  V30 1715 C 155.105 4.02961 -4.93864 0
M  V30 1716 C 152.792 4.32538 -4.31687 0
M  V30 1717 C 153.79 4.32318 -5.28763 0
M  V30 1718 O 153.478 4.6078 -6.58739 0
M  V30 1719 H 153.21 0.605307 -0.300965 0
M  V30 1720 H 155.764 1.45673 -1.44806 0
M  V30 1721 H 153.994 3.83315 -0.51055 0
M  V30 1722 H 155.683 3.9554 -0.911182 0
M  V30 1723 H 156.449 3.50403 -3.35325 0
M  V30 1724 H 152.328 4.02692 -2.24411 0
M  V30 1725 H 155.872 4.02704 -5.69627 0
M  V30 1726 H 151.769 4.55059 -4.57812 0
M  V30 1727 H 152.537 4.78492 -6.64069 0
M  V30 1728 N 155.201 0.870884 1.31352 0
M  V30 1729 C 156.612 0.534714 1.78879 0
M  V30 1730 C 156.963 -0.948423 1.71754 0
M  V30 1731 O 156.088 -1.74055 1.28584 0
M  V30 1732 C 156.683 0.963839 3.24801 0
M  V30 1733 C 155.242 0.679311 3.70219 0
M  V30 1734 C 154.389 1.15465 2.52117 0
M  V30 1735 H 157.34 1.05651 1.18421 0
M  V30 1736 H 157.361 0.286892 3.79417 0
M  V30 1737 H 156.873 2.04332 3.29955 0
M  V30 1738 H 154.974 -0.388769 3.70566 0
M  V30 1739 H 155.087 1.25698 4.62317 0
M  V30 1740 H 153.451 0.574383 2.48139 0
M  V30 1741 H 154.234 2.24157 2.60016 0
M  V30 1742 N 156.679 -1.44442 0.630414 0
M  V30 1743 C 157.627 -2.32437 -0.0871428 0
M  V30 1744 C 158.621 -1.47304 -0.836525 0
M  V30 1745 O 159.827 -1.63653 -0.749506 0
M  V30 1746 H 156.202 -0.750533 -0.0469495 0
M  V30 1747 H 158.173 -2.90709 0.673096 0
M  V30 1748 C 156.922 -3.31288 -1.05563 0
M  V30 1749 H 156.245 -3.96805 -0.488426 0
M  V30 1750 H 157.685 -3.9554 -1.52721 0
M  V30 1751 C 156.144 -2.6016 -2.14052 0
M  V30 1752 O 156.674 -2.39997 -3.22124 0
M  V30 1753 N 154.88 -2.19911 -1.89967 0
M  V30 1754 H 154.427 -2.36509 -1.02085 0
M  V30 1755 H 154.385 -1.72646 -2.62756 0
M  V30 1756 N 158.157 -0.370918 -1.53173 0
M  V30 1757 C 159.403 0.217423 -2.01631 0
M  V30 1758 C 159.736 1.47983 -1.25756 0
M  V30 1759 O 159.011 1.91274 -0.352764 0
M  V30 1760 C 159.294 0.503982 -3.56556 0
M  V30 1761 C 159.147 -0.77243 -4.43118 0
M  V30 1762 C 160.466 1.30234 -4.20389 0
M  V30 1763 H 157.585 0.0775486 -0.732909 0
M  V30 1764 H 160.227 -0.496863 -1.83388 0
M  V30 1765 H 158.377 1.11248 -3.72231 0
M  V30 1766 H 160.049 -1.4098 -4.39229 0
M  V30 1767 H 158.292 -1.39167 -4.10871 0
M  V30 1768 H 158.963 -0.526815 -5.4948 0
M  V30 1769 H 161.439 0.787546 -4.08579 0
M  V30 1770 H 160.315 1.47158 -5.28806 0
M  V30 1771 H 160.576 2.31237 -3.76805 0
M  V30 1772 N 159.635 1.57281 -0.100228 0
M  V30 1773 C 160.912 1.86014 0.604812 0
M  V30 1774 C 161.292 0.998025 1.86018 0
M  V30 1775 O 160.64 0.0718184 2.28387 0
M  V30 1776 C 160.85 3.36784 0.915278 0
M  V30 1777 C 162.198 4.04957 1.27651 0
M  V30 1778 O 163.222 3.41695 1.00613 0
M  V30 1779 O 162.081 5.16593 1.7831 0
M  V30 1780 H 159.175 0.76942 0.303185 0
M  V30 1781 H 161.721 1.69176 -0.133313 0
M  V30 1782 H 160.493 3.91292 0.0248896 0
M  V30 1783 H 160.116 3.58987 1.70921 0
M  V30 1784 N 161.113 -0.173488 1.56642 0
M  V30 1785 C 162.076 -1.19859 1.95362 0
M  V30 1786 C 163.076 -1.37296 0.83704 0
M  V30 1787 O 164.266 -1.34739 1.10413 0
M  V30 1788 C 161.398 -2.56405 2.24654 0
M  V30 1789 H 162.591 -0.867062 2.87092 0
M  V30 1790 H 160.144 -0.415853 1.50666 0
M  V30 1791 H 160.879 -2.94576 1.35631 0
M  V30 1792 H 160.664 -2.45115 3.06041 0
M  V30 1793 H 162.154 -3.30287 2.5554 0
M  V30 1794 N 162.591 -1.51276 -0.441967 0
M  V30 1795 C 164.007 -1.39349 -0.778083 0
M  V30 1796 C 164.207 -0.472212 -1.95889 0
M  V30 1797 O 163.263 0.0743551 -2.5239 0
M  V30 1798 C 164.576 -2.81292 -1.0628 0
M  V30 1799 C 166.124 -2.9041 -1.16751 0
M  V30 1800 C 166.599 -4.33251 -1.48519 0
M  V30 1801 N 168.09 -4.36336 -1.55453 0
M  V30 1802 C 168.825 -5.43885 -1.81596 0
M  V30 1803 N 168.321 -6.61601 -2.05562 0
M  V30 1804 N 170.114 -5.3136 -1.8334 0
M  V30 1805 H 162.265 -2.09729 0.335774 0
M  V30 1806 H 164.528 -0.943925 0.0878028 0
M  V30 1807 H 164.234 -3.50678 -0.267905 0
M  V30 1808 H 164.108 -3.20334 -1.99163 0
M  V30 1809 H 166.495 -2.21225 -1.95304 0
M  V30 1810 H 166.576 -2.54871 -0.217801 0
M  V30 1811 H 166.22 -5.02984 -0.704958 0
M  V30 1812 H 166.15 -4.66299 -2.44689 0
M  V30 1813 H 168.641 -3.51466 -1.38853 0
M  V30 1814 H 168.954 -7.39361 -2.24867 0
M  V30 1815 H 167.299 -6.64725 -2.02894 0
M  V30 1816 H 170.49 -4.38382 -1.64132 0
M  V30 1817 H 170.663 -6.15258 -2.03377 0
M  V30 1818 N 164.069 0.697108 -1.41344 0
M  V30 1819 C 164.999 1.82353 -1.45841 0
M  V30 1820 C 165.98 1.67115 -0.317247 0
M  V30 1821 O 167.165 1.86871 -0.528474 0
M  V30 1822 C 164.295 3.20476 -1.33838 0
M  V30 1823 C 163.249 3.50415 -2.4575 0
M  V30 1824 C 162.575 4.87878 -2.18813 0
M  V30 1825 C 163.875 3.49546 -3.88091 0
M  V30 1826 H 165.569 1.78846 -2.40113 0
M  V30 1827 H 163.115 0.859028 -1.15571 0
M  V30 1828 H 165.068 3.98988 -1.35596 0
M  V30 1829 H 163.792 3.24604 -0.360498 0
M  V30 1830 H 162.451 2.74253 -2.43271 0
M  V30 1831 H 162.099 4.8863 -1.19371 0
M  V30 1832 H 161.799 5.08875 -2.93803 0
M  V30 1833 H 163.323 5.68702 -2.22284 0
M  V30 1834 H 164.737 4.18066 -3.92293 0
M  V30 1835 H 163.134 3.82075 -4.62751 0
M  V30 1836 H 164.204 2.48552 -4.16353 0
M  V30 1837 N 165.547 1.27147 0.931209 0
M  V30 1838 C 166.794 1.13278 1.67852 0
M  V30 1839 C 167.122 -0.32204 1.91815 0
M  V30 1840 O 166.377 -1.25224 1.50391 0
M  V30 1841 C 166.676 1.8579 3.05314 0
M  V30 1842 C 166.342 3.35657 3.01073 0
M  V30 1843 C 165.004 3.76536 2.99623 0
M  V30 1844 C 167.356 4.31299 2.92627 0
M  V30 1845 C 164.684 5.11426 2.87506 0
M  V30 1846 C 167.036 5.66242 2.82051 0
M  V30 1847 C 165.7 6.06418 2.7895 0
M  V30 1848 H 164.97 0.414515 0.614214 0
M  V30 1849 H 167.617 1.57712 1.08624 0
M  V30 1850 H 165.922 1.33854 3.68226 0
M  V30 1851 H 167.619 1.72491 3.62005 0
M  V30 1852 H 164.209 3.03146 3.02986 0
M  V30 1853 H 168.393 4.00692 2.92848 0
M  V30 1854 H 163.649 5.41705 2.83489 0
M  V30 1855 H 167.823 6.40026 2.74481 0
M  V30 1856 H 165.45 7.10895 2.69318 0
M  V30 1857 N 167.025 -1.13721 1.09112 0
M  V30 1858 C 168.274 -1.84275 0.82009 0
M  V30 1859 C 168.587 -1.84253 -0.656509 0
M  V30 1860 O 169.793 -2.50668 -1.04296 0
M  V30 1861 C 168.249 -3.30825 1.41714 0
M  V30 1862 C 167.857 -3.39244 2.92605 0
M  V30 1863 C 169.601 -4.06443 1.22492 0
M  V30 1864 C 167.508 -4.80047 3.45411 0
M  V30 1865 H 166.438 -0.690387 0.30312 0
M  V30 1866 H 169.089 -1.28146 1.31343 0
M  V30 1867 H 167.471 -3.86737 0.851498 0
M  V30 1868 H 168.645 -2.93344 3.55367 0
M  V30 1869 H 166.96 -2.77088 3.10823 0
M  V30 1870 H 169.557 -5.10387 1.59402 0
M  V30 1871 H 169.9 -4.15972 0.165299 0
M  V30 1872 H 170.433 -3.56852 1.75788 0
M  V30 1873 H 167.172 -4.75709 4.50978 0
M  V30 1874 H 166.692 -5.26455 2.87411 0
M  V30 1875 H 168.371 -5.48957 3.42425 0
M  V30 1876 N 168.503 -0.877838 -1.30888 0
M  V30 1877 C 169.751 -0.491723 -1.96027 0
M  V30 1878 C 170.072 0.960827 -1.69685 0
M  V30 1879 O 169.342 1.67462 -1.01654 0
M  V30 1880 H 167.922 -0.17885 -0.725273 0
M  V30 1881 H 170.584 -1.11935 -1.59551 0
M  V30 1882 H 169.68 -0.656016 -3.05128 0
M  V30 1883 N 169.982 1.44106 -0.638065 0
M  V30 1884 C 171.23 2.01579 -0.145043 0
M  V30 1885 C 171.551 1.50496 1.24 0
M  V30 1886 O 170.821 0.711374 1.82527 0
M  V30 1887 H 169.401 0.745282 -0.05063 0
M  V30 1888 H 172.063 1.76516 -0.826327 0
M  V30 1889 H 171.159 3.11877 -0.118039 0
M  V30 1890 N 171.46 0.379036 1.52974 0
M  V30 1891 C 172.407 -0.461048 2.26148 0
M  V30 1892 C 173.377 -1.06637 1.27349 0
M  V30 1893 O 174.562 -1.09633 1.56157 0
M  V30 1894 C 171.702 -1.58782 3.06402 0
M  V30 1895 C 170.815 -1.00636 4.20115 0
M  V30 1896 C 169.95 -2.10334 4.87784 0
M  V30 1897 C 168.989 -1.49724 5.93506 0
M  V30 1898 N 168.126 -2.5331 6.54812 0
M  V30 1899 H 172.966 0.169429 2.97518 0
M  V30 1900 H 170.503 0.0953806 1.4679 0
M  V30 1901 H 172.461 -2.25174 3.51215 0
M  V30 1902 H 171.091 -2.18876 2.37261 0
M  V30 1903 H 170.143 -0.232332 3.7969 0
M  V30 1904 H 171.455 -0.523343 4.96047 0
M  V30 1905 H 170.609 -2.84519 5.35849 0
M  V30 1906 H 169.348 -2.61992 4.11353 0
M  V30 1907 H 168.353 -0.740598 5.44789 0
M  V30 1908 H 169.578 -0.988732 6.71864 0
M  V30 1909 H 167.524 -3.04156 5.81227 0
M  V30 1910 H 167.441 -2.09734 7.26325 0
M  V30 1911 H 168.709 -3.27155 7.07524 0
M  V30 1912 N 172.938 -1.57226 0.108567 0
M  V30 1913 C 173.885 -2.14756 -0.845481 0
M  V30 1914 C 174.855 -1.06971 -1.27068 0
M  V30 1915 O 176.04 -1.34827 -1.35005 0
M  V30 1916 C 173.18 -2.74298 -2.09415 0
M  V30 1917 C 172.293 -3.96358 -1.71826 0
M  V30 1918 C 171.428 -4.44021 -2.9158 0
M  V30 1919 C 170.467 -5.58637 -2.50181 0
M  V30 1920 N 169.604 -6.01091 -3.62814 0
M  V30 1921 H 174.444 -2.95961 -0.348035 0
M  V30 1922 H 171.981 -1.46226 -0.160106 0
M  V30 1923 H 173.939 -3.06945 -2.82561 0
M  V30 1924 H 172.569 -1.95801 -2.56636 0
M  V30 1925 H 171.621 -3.69939 -0.885947 0
M  V30 1926 H 172.933 -4.79504 -1.37394 0
M  V30 1927 H 172.087 -4.78522 -3.72963 0
M  V30 1928 H 170.826 -3.59803 -3.29231 0
M  V30 1929 H 169.831 -5.23751 -1.67228 0
M  V30 1930 H 171.056 -6.44613 -2.13659 0
M  V30 1931 H 169.002 -5.19817 -4.00158 0
M  V30 1932 H 168.919 -6.79066 -3.32273 0
M  V30 1933 H 170.187 -6.40227 -4.44668 0
M  V30 1934 N 174.416 0.165178 -1.56732 0
M  V30 1935 C 175.662 0.882112 -1.82611 0
M  V30 1936 C 175.995 1.81628 -0.687378 0
M  V30 1937 O 175.27 1.92009 0.310267 0
M  V30 1938 C 175.553 1.67245 -3.18906 0
M  V30 1939 C 175.406 0.760987 -4.43316 0
M  V30 1940 C 176.725 2.63884 -3.52212 0
M  V30 1941 H 173.844 0.319242 -0.664269 0
M  V30 1942 H 176.486 0.148052 -1.89422 0
M  V30 1943 H 174.636 2.29824 -3.1323 0
M  V30 1944 H 176.308 0.147596 -4.61064 0
M  V30 1945 H 174.551 0.0694102 -4.33744 0
M  V30 1946 H 175.222 1.34962 -5.35247 0
M  V30 1947 H 177.698 2.11429 -3.58381 0
M  V30 1948 H 176.574 3.16245 -4.48643 0
M  V30 1949 H 176.835 3.44377 -2.77231 0
M  V30 1950 N 175.894 1.51508 0.433938 0
M  V30 1951 C 177.142 1.6402 1.18075 0
M  V30 1952 C 177.463 0.360328 1.91642 0
M  V30 1953 O 176.733 -0.623945 1.85698 0
M  V30 1954 H 175.313 0.6045 0.43885 0
M  V30 1955 H 177.975 1.88452 0.497178 0
M  V30 1956 H 177.071 2.46949 1.90847 0
M  V30 1957 N 177.372 -0.689602 1.41712 0
M  V30 1958 C 178.621 -1.44534 1.40686 0
M  V30 1959 C 178.934 -1.95588 0.0213352 0
M  V30 1960 O 180.14 -2.71271 -0.111534 0
M  V30 1961 C 178.596 -2.61387 2.47396 0
M  V30 1962 C 178.204 -2.17094 3.91885 0
M  V30 1963 C 179.948 -3.38986 2.55517 0
M  V30 1964 C 177.855 -3.3094 4.90135 0
M  V30 1965 H 176.785 -0.542925 0.52321 0
M  V30 1966 H 179.436 -0.748054 1.6756 0
M  V30 1967 H 177.818 -3.33412 2.13664 0
M  V30 1968 H 178.992 -1.52318 4.34897 0
M  V30 1969 H 177.307 -1.52473 3.8748 0
M  V30 1970 H 179.904 -4.23747 3.26102 0
M  V30 1971 H 180.247 -3.84578 1.59391 0
M  V30 1972 H 180.78 -2.74021 2.8837 0
M  V30 1973 H 177.519 -2.90355 5.87685 0
M  V30 1974 H 177.039 -3.94546 4.51767 0
M  V30 1975 H 178.718 -3.9663 5.11169 0
M  V30 1976 N 178.85 -1.27639 -0.924453 0
M  V30 1977 C 179.798 -1.10485 -2.04685 0
M  V30 1978 C 180.792 -0.0270421 -1.69378 0
M  V30 1979 O 181.998 -0.185008 -1.79047 0
M  V30 1980 H 178.373 -0.340546 -0.670472 0
M  V30 1981 H 180.344 -2.05566 -2.16298 0
M  V30 1982 C 179.093 -0.772229 -3.39016 0
M  V30 1983 H 178.416 -1.59351 -3.66671 0
M  V30 1984 H 179.856 -0.692097 -4.18313 0
M  V30 1985 C 178.315 0.523554 -3.32807 0
M  V30 1986 O 178.845 1.55702 -3.70297 0
M  V30 1987 N 177.051 0.520363 -2.85903 0
M  V30 1988 H 176.598 -0.32107 -2.55591 0
M  V30 1989 H 176.556 1.38742 -2.82131 0
M  V30 1990 N 180.328 1.1314 -1.09713 0
M  V30 1991 C 181.739 1.66029 -0.853885 0
M  V30 1992 C 182.09 1.86241 0.617142 0
M  V30 1993 O 181.215 1.5834 1.47503 0
M  V30 1994 C 181.81 3.01599 -1.5435 0
M  V30 1995 C 180.369 3.51467 -1.34714 0
M  V30 1996 C 179.516 2.26648 -1.59769 0
M  V30 1997 H 182.467 0.970226 -1.25588 0
M  V30 1998 H 182.488 3.67709 -0.978267 0
M  V30 1999 H 182 2.86856 -2.6141 0
M  V30 2000 H 180.101 3.71408 -0.297838 0
M  V30 2001 H 180.214 4.314 -2.08401 0
M  V30 2002 H 178.578 2.33385 -1.01998 0
M  V30 2003 H 179.361 2.14467 -2.68065 0
M  V30 2004 N 181.806 0.884767 1.30421 0
M  V30 2005 C 182.753 0.349642 2.28136 0
M  V30 2006 C 183.723 -0.560061 1.56373 0
M  V30 2007 O 184.908 -0.488524 1.8444 0
M  V30 2008 C 182.048 -0.42999 3.42411 0
M  V30 2009 C 181.161 0.508907 4.28992 0
M  V30 2010 C 180.296 -0.286301 5.30428 0
M  V30 2011 C 179.335 0.648079 6.08659 0
M  V30 2012 N 178.472 -0.111792 7.02011 0
M  V30 2013 H 183.312 1.18807 2.73293 0
M  V30 2014 H 180.849 0.597231 1.3443 0
M  V30 2015 H 182.807 -0.897923 4.07423 0
M  V30 2016 H 181.437 -1.23299 2.98324 0
M  V30 2017 H 180.489 1.09533 3.64289 0
M  V30 2018 H 181.801 1.22475 4.8353 0
M  V30 2019 H 180.955 -0.816098 6.01186 0
M  V30 2020 H 179.694 -1.03536 4.76583 0
M  V30 2021 H 178.699 1.18951 5.36778 0
M  V30 2022 H 179.924 1.39623 6.64592 0
M  V30 2023 H 177.87 -0.843395 6.50556 0
M  V30 2024 H 177.787 0.544429 7.54037 0
M  V30 2025 H 179.055 -0.622339 7.77012 0
M  V30 2026 N 183.284 -1.43765 0.645699 0
M  V30 2027 C 184.533 -2.01116 0.153412 0
M  V30 2028 C 184.846 -1.51493 -1.23731 0
M  V30 2029 O 186.052 -2.01067 -1.8244 0
M  V30 2030 C 184.508 -3.59206 0.223473 0
M  V30 2031 C 184.116 -4.17823 1.61642 0
M  V30 2032 C 185.86 -4.23972 -0.211597 0
M  V30 2033 C 183.767 -5.68183 1.64081 0
M  V30 2034 H 182.697 -0.752093 0.0535891 0
M  V30 2035 H 185.348 -1.6482 0.806633 0
M  V30 2036 H 183.73 -3.92867 -0.497118 0
M  V30 2037 H 184.904 -3.95674 2.36176 0
M  V30 2038 H 183.219 -3.65399 1.99681 0
M  V30 2039 H 185.816 -5.34275 -0.213112 0
M  V30 2040 H 186.159 -3.97352 -1.24165 0
M  V30 2041 H 186.692 -3.95166 0.456988 0
M  V30 2042 H 183.431 -5.99559 2.64971 0
M  V30 2043 H 182.951 -5.9241 0.938611 0
M  V30 2044 H 184.63 -6.32085 1.3812 0
M  V30 2045 N 184.763 -0.387143 -1.52771 0
M  V30 2046 C 185.711 0.463953 -2.27926 0
M  V30 2047 C 186.705 1.06493 -1.31741 0
M  V30 2048 O 187.911 1.00565 -1.49287 0
M  V30 2049 H 184.286 0.16837 -0.732909 0
M  V30 2050 H 186.257 -0.19141 -2.97785 0
M  V30 2051 C 185.006 1.5803 -3.09713 0
M  V30 2052 H 184.329 1.12718 -3.83581 0
M  V30 2053 H 185.769 2.15008 -3.65442 0
M  V30 2054 C 184.228 2.53509 -2.2189 0
M  V30 2055 O 184.758 3.56863 -1.84422 0
M  V30 2056 N 182.964 2.23199 -1.86093 0
M  V30 2057 H 182.511 1.39185 -2.16761 0
M  V30 2058 H 182.469 2.87333 -1.27621 0
M  V30 2059 N 186.241 1.57166 -0.116904 0
M  V30 2060 C 187.189 2.16457 0.851418 0
M  V30 2061 C 188.183 1.11323 1.27686 0
M  V30 2062 O 189.389 1.2963 1.24884 0
M  V30 2063 H 185.764 0.69271 0.292672 0
M  V30 2064 H 187.735 2.96605 0.32685 0
M  V30 2065 C 186.484 2.77689 2.09246 0
M  V30 2066 H 185.807 3.58285 1.77402 0
M  V30 2067 H 187.247 3.22716 2.7501 0
M  V30 2068 C 185.706 1.74667 2.88085 0
M  V30 2069 O 186.236 1.19877 3.83396 0
M  V30 2070 N 184.442 1.44656 2.52038 0
M  V30 2071 H 183.989 1.89402 1.74599 0
M  V30 2072 H 183.947 0.759675 3.05084 0
M  V30 2073 N 187.719 -0.156864 1.56817 0
M  V30 2074 C 188.649 -1.19589 2.00551 0
M  V30 2075 C 189.63 -1.4536 0.883426 0
M  V30 2076 O 190.815 -1.56449 1.15054 0
M  V30 2077 C 187.945 -2.53143 2.37773 0
M  V30 2078 C 186.899 -2.41913 3.53075 0
M  V30 2079 C 186.225 -3.80088 3.76081 0
M  V30 2080 C 187.525 -1.91157 4.86062 0
M  V30 2081 H 189.219 -0.832293 2.87599 0
M  V30 2082 H 186.765 -0.398918 1.38364 0
M  V30 2083 H 188.718 -3.26047 2.66967 0
M  V30 2084 H 187.442 -2.91319 1.4765 0
M  V30 2085 H 186.101 -1.71462 3.24031 0
M  V30 2086 H 185.749 -4.15683 2.83225 0
M  V30 2087 H 185.449 -3.73439 4.53671 0
M  V30 2088 H 186.973 -4.54556 4.0769 0
M  V30 2089 H 188.387 -2.53846 5.14038 0
M  V30 2090 H 186.784 -1.95422 5.67389 0
M  V30 2091 H 187.854 -0.866673 4.77092 0
M  V30 2092 N 189.197 -1.51736 -0.425897 0
M  V30 2093 C 190.13 -1.68574 -1.53812 0
M  V30 2094 C 191.108 -0.53328 -1.53606 0
M  V30 2095 O 192.292 -0.758555 -1.72564 0
M  V30 2096 C 189.419 -1.70977 -2.92377 0
M  V30 2097 C 188.465 -2.92324 -3.10563 0
M  V30 2098 S 189.298 -4.52952 -2.85648 0
M  V30 2099 C 190.454 -4.58117 -4.26474 0
M  V30 2100 H 190.687 -2.62647 -1.39298 0
M  V30 2101 H 188.22 -1.41564 -0.616361 0
M  V30 2102 H 190.178 -1.73047 -3.72243 0
M  V30 2103 H 188.839 -0.78061 -3.04245 0
M  V30 2104 H 188.032 -2.90439 -4.11899 0
M  V30 2105 H 187.634 -2.88055 -2.38538 0
M  V30 2106 H 189.926 -4.34462 -5.19855 0
M  V30 2107 H 190.869 -5.59983 -4.33388 0
M  V30 2108 H 191.277 -3.8732 -4.10662 0
M  V30 2109 N 190.675 0.682077 -1.42076 0
M  V30 2110 C 192.086 1.26246 -1.37546 0
M  V30 2111 C 192.437 1.96092 -0.0651481 0
M  V30 2112 O 191.562 1.99587 0.836297 0
M  V30 2113 C 192.157 2.29594 -2.49143 0
M  V30 2114 C 190.716 2.83175 -2.47969 0
M  V30 2115 C 189.863 1.57395 -2.28303 0
M  V30 2116 H 192.814 0.475937 -1.51395 0
M  V30 2117 H 192.835 3.11175 -2.18976 0
M  V30 2118 H 192.347 1.78729 -3.44496 0
M  V30 2119 H 190.448 3.3818 -1.56413 0
M  V30 2120 H 190.561 3.32687 -3.44755 0
M  V30 2121 H 188.925 1.83699 -1.76428 0
M  V30 2122 H 189.708 1.08507 -3.25701 0
M  V30 2123 N 192.153 1.28127 0.917671 0
M  V30 2124 C 193.401 1.14825 1.66312 0
M  V30 2125 C 193.722 -0.304379 1.9261 0
M  V30 2126 O 192.992 -1.21149 1.53947 0
M  V30 2127 H 191.572 0.421953 0.616413 0
M  V30 2128 H 194.234 1.608 1.10134 0
M  V30 2129 H 193.33 1.68489 2.62712 0
M  V30 2130 N 193.631 -1.12557 1.10312 0
M  V30 2131 C 194.861 -1.87592 0.865617 0
M  V30 2132 C 195.269 -1.79851 -0.587389 0
M  V30 2133 O 194.612 -1.16949 -1.41664 0
M  V30 2134 C 194.674 -3.37665 1.23381 0
M  V30 2135 C 194.338 -3.69181 2.69359 0
M  V30 2136 C 195.335 -3.67652 3.67597 0
M  V30 2137 C 193.02 -3.98555 3.05711 0
M  V30 2138 C 195.014 -3.95053 5.00212 0
M  V30 2139 C 192.701 -4.25616 4.38514 0
M  V30 2140 C 193.699 -4.23851 5.35574 0
M  V30 2141 O 193.387 -4.50242 6.65986 0
M  V30 2142 H 193.119 -0.600442 0.310557 0
M  V30 2143 H 195.673 -1.4335 1.47105 0
M  V30 2144 H 193.903 -3.82454 0.571467 0
M  V30 2145 H 195.592 -3.94041 0.973994 0
M  V30 2146 H 196.358 -3.45024 3.40857 0
M  V30 2147 H 192.237 -3.99071 2.30789 0
M  V30 2148 H 195.781 -3.93591 5.75962 0
M  V30 2149 H 191.678 -4.47718 4.64994 0
M  V30 2150 H 192.446 -4.67867 6.71597 0
M  V30 2151 N 195.109 -0.891671 -1.2995 0
M  V30 2152 C 196.019 -0.367691 -2.31701 0
M  V30 2153 C 197.035 0.533486 -1.6562 0
M  V30 2154 O 198.211 0.424997 -1.96865 0
M  V30 2155 C 195.276 0.403406 -3.44345 0
M  V30 2156 C 194.337 -0.528328 -4.26037 0
M  V30 2157 C 193.57 0.206063 -5.33302 0
M  V30 2158 O 193.793 1.43119 -5.52153 0
M  V30 2159 O 192.727 -0.447281 -6.00236 0
M  V30 2160 H 196.553 -1.21163 -2.78484 0
M  V30 2161 H 194.138 -0.655725 -1.34241 0
M  V30 2162 H 196.02 0.839753 -4.12948 0
M  V30 2163 H 194.695 1.22354 -2.99685 0
M  V30 2164 H 193.602 -1.01362 -3.60106 0
M  V30 2165 H 194.935 -1.31465 -4.74318 0
M  V30 2166 N 196.587 1.43421 -0.653314 0
M  V30 2167 C 197.833 2.02111 -0.166992 0
M  V30 2168 C 198.166 1.51423 1.21592 0
M  V30 2169 O 197.441 0.707389 1.8118 0
M  V30 2170 C 197.724 3.5966 -0.177948 0
M  V30 2171 C 197.577 4.20579 -1.59478 0
M  V30 2172 C 198.896 4.37413 0.4856 0
M  V30 2173 H 196.015 0.734374 -0.0621557 0
M  V30 2174 H 198.657 1.70717 -0.834016 0
M  V30 2175 H 196.807 3.86537 0.390032 0
M  V30 2176 H 198.479 4.04732 -2.21336 0
M  V30 2177 H 196.722 3.77226 -2.14204 0
M  V30 2178 H 197.393 5.29665 -1.5543 0
M  V30 2179 H 199.869 4.161 0.00234528 0
M  V30 2180 H 198.745 5.47075 0.447207 0
M  V30 2181 H 199.006 4.13672 1.55974 0
M  V30 2182 N 198.065 0.39524 1.52563 0
M  V30 2183 C 199.028 -0.425001 2.25225 0
M  V30 2184 C 200.028 -0.985266 1.27079 0
M  V30 2185 O 201.218 -0.866332 1.5113 0
M  V30 2186 C 198.35 -1.59686 3.01186 0
M  V30 2187 H 199.543 0.211233 2.99155 0
M  V30 2188 H 197.096 0.147472 1.55603 0
M  V30 2189 H 197.831 -2.27035 2.31572 0
M  V30 2190 H 197.616 -1.20176 3.73229 0
M  V30 2191 H 199.106 -2.17743 3.5634 0
M  V30 2192 N 199.544 -1.57102 0.125237 0
M  V30 2193 C 200.491 -2.15641 -0.822655 0
M  V30 2194 C 201.461 -1.08313 -1.25927 0
M  V30 2195 O 202.646 -1.36251 -1.33567 0
M  V30 2196 C 199.786 -2.76504 -2.06494 0
M  V30 2197 C 198.899 -3.98158 -1.67612 0
M  V30 2198 C 198.034 -4.47088 -2.86854 0
M  V30 2199 C 197.073 -5.6126 -2.44242 0
M  V30 2200 N 196.21 -6.04905 -3.56419 0
M  V30 2201 H 201.05 -2.96313 -0.316625 0
M  V30 2202 H 198.587 -1.46388 -0.144588 0
M  V30 2203 H 200.545 -3.09925 -2.79289 0
M  V30 2204 H 199.175 -1.98512 -2.54545 0
M  V30 2205 H 198.227 -3.70858 -0.846661 0
M  V30 2206 H 199.539 -4.80934 -1.32301 0
M  V30 2207 H 198.693 -4.82451 -3.67867 0
M  V30 2208 H 197.432 -3.63275 -3.25396 0
M  V30 2209 H 196.437 -5.25495 -1.61663 0
M  V30 2210 H 197.662 -6.46843 -2.0681 0
M  V30 2211 H 195.608 -5.24032 -3.94623 0
M  V30 2212 H 195.525 -6.82552 -3.25051 0
M  V30 2213 H 196.793 -6.44907 -4.37853 0
M  V30 2214 N 201.022 0.148545 -1.56898 0
M  V30 2215 C 202.252 0.875118 -1.8715 0
M  V30 2216 C 202.66 1.75322 -0.711262 0
M  V30 2217 O 202.003 1.80745 0.328151 0
M  V30 2218 C 202.065 1.7844 -3.12089 0
M  V30 2219 C 201.729 1.08361 -4.43967 0
M  V30 2220 C 202.726 0.438247 -5.1805 0
M  V30 2221 C 200.411 1.07358 -4.90693 0
M  V30 2222 C 202.405 -0.20779 -6.37061 0
M  V30 2223 C 200.092 0.42373 -6.09629 0
M  V30 2224 C 201.09 -0.215829 -6.82659 0
M  V30 2225 O 200.778 -0.855378 -7.99336 0
M  V30 2226 H 200.51 0.258504 -0.624621 0
M  V30 2227 H 203.064 0.14652 -2.04877 0
M  V30 2228 H 201.294 2.55389 -2.90367 0
M  V30 2229 H 202.983 2.38279 -3.286 0
M  V30 2230 H 203.749 0.437817 -4.8302 0
M  V30 2231 H 199.628 1.5608 -4.33774 0
M  V30 2232 H 203.172 -0.70758 -6.94002 0
M  V30 2233 H 199.069 0.421822 -6.4412 0
M  V30 2234 H 199.837 -0.756892 -8.14993 0
M  V30 2235 N 202.5 1.5196 0.417844 0
M  V30 2236 C 203.777 1.56146 1.17803 0
M  V30 2237 C 204.157 0.337275 2.08388 0
M  V30 2238 O 203.505 -0.676447 2.18258 0
M  V30 2239 C 203.715 2.88566 1.96293 0
M  V30 2240 C 205.063 3.41244 2.52662 0
M  V30 2241 O 206.087 2.90247 2.06483 0
M  V30 2242 O 204.946 4.30273 3.36938 0
M  V30 2243 H 202.04 0.628598 0.537395 0
M  V30 2244 H 204.586 1.64283 0.425331 0
M  V30 2245 H 203.358 3.69116 1.2988 0
M  V30 2246 H 202.981 2.83681 2.78587 0
M  V30 2247 N 203.978 -0.674533 1.42435 0
M  V30 2248 C 204.908 -1.80009 1.48724 0
M  V30 2249 C 205.889 -1.6659 0.343793 0
M  V30 2250 O 207.074 -1.86007 0.558137 0
M  V30 2251 C 204.204 -3.18306 1.38919 0
M  V30 2252 C 203.158 -3.46461 2.51294 0
M  V30 2253 C 202.484 -4.84335 2.26547 0
M  V30 2254 C 203.784 -3.43328 3.93603 0
M  V30 2255 H 205.478 -1.75004 2.42928 0
M  V30 2256 H 203.024 -0.840533 1.16923 0
M  V30 2257 H 204.977 -3.9678 1.41927 0
M  V30 2258 H 203.701 -3.2399 0.412094 0
M  V30 2259 H 202.36 -2.70348 2.47604 0
M  V30 2260 H 202.008 -4.86669 1.2713 0
M  V30 2261 H 201.708 -5.04136 3.01861 0
M  V30 2262 H 203.232 -5.65094 2.31304 0
M  V30 2263 H 204.646 -4.11772 3.98894 0
M  V30 2264 H 203.043 -3.74664 4.68771 0
M  V30 2265 H 204.113 -2.41897 4.20255 0
M  V30 2266 N 205.456 -1.28612 -0.910864 0
M  V30 2267 C 206.705 -1.15311 -1.65488 0
M  V30 2268 C 207.018 0.296999 -1.93332 0
M  V30 2269 O 208.224 0.551168 -2.65847 0
M  V30 2270 C 206.68 -2.01599 -2.98137 0
M  V30 2271 C 206.288 -3.51367 -2.7793 0
M  V30 2272 C 208.032 -1.96993 -3.76024 0
M  V30 2273 C 205.939 -4.29797 -4.06237 0
M  V30 2274 H 204.869 -0.42796 -0.620779 0
M  V30 2275 H 207.52 -1.53166 -1.01057 0
M  V30 2276 H 205.902 -1.56603 -3.63719 0
M  V30 2277 H 207.076 -4.0434 -2.21011 0
M  V30 2278 H 205.391 -3.57529 -2.13452 0
M  V30 2279 H 207.988 -2.52856 -4.71135 0
M  V30 2280 H 208.331 -0.94733 -4.05378 0
M  V30 2281 H 208.864 -2.39973 -3.17266 0
M  V30 2282 H 205.603 -5.32648 -3.82055 0
M  V30 2283 H 205.123 -3.81596 -4.62757 0
M  V30 2284 H 206.802 -4.39869 -4.74473 0
M  V30 2285 N 206.934 1.1197 -1.10907 0
M  V30 2286 C 208.18 1.84059 -0.865674 0
M  V30 2287 C 208.535 1.82731 0.602254 0
M  V30 2288 O 207.828 1.26543 1.43866 0
M  V30 2289 C 208.022 3.30749 -1.35425 0
M  V30 2290 C 207.851 3.46363 -2.86815 0
M  V30 2291 C 206.621 3.59712 -3.54874 0
M  V30 2292 C 208.819 3.41116 -3.84895 0
M  V30 2293 N 206.801 3.63741 -4.94536 0
M  V30 2294 C 208.172 3.51698 -5.10596 0
M  V30 2295 C 210.227 3.24612 -3.77533 0
M  V30 2296 C 208.93 3.4748 -6.29802 0
M  V30 2297 C 210.956 3.21708 -4.96244 0
M  V30 2298 C 210.318 3.32856 -6.20795 0
M  V30 2299 H 206.417 0.689015 -0.369841 0
M  V30 2300 H 209.001 1.34016 -1.41237 0
M  V30 2301 H 207.172 3.79322 -0.834814 0
M  V30 2302 H 208.904 3.90718 -1.05458 0
M  V30 2303 H 205.659 3.62038 -3.05329 0
M  V30 2304 H 206.083 3.69408 -5.67333 0
M  V30 2305 H 210.725 3.14883 -2.8215 0
M  V30 2306 H 208.443 3.55978 -7.25469 0
M  V30 2307 H 212.029 3.10113 -4.92261 0
M  V30 2308 H 210.909 3.3059 -7.11112 0
M  V30 2309 N 208.412 0.89855 1.29475 0
M  V30 2310 C 209.661 0.519863 1.94885 0
M  V30 2311 C 209.974 -0.9383 1.71625 0
M  V30 2312 O 211.18 -1.42445 2.31131 0
M  V30 2313 C 209.636 0.878836 3.49005 0
M  V30 2314 C 209.244 2.35569 3.81066 0
M  V30 2315 C 210.988 0.570004 4.20656 0
M  V30 2316 C 208.895 2.65558 5.28425 0
M  V30 2317 H 207.825 0.190692 0.729488 0
M  V30 2318 H 210.476 1.09539 1.47219 0
M  V30 2319 H 208.858 0.232253 3.95318 0
M  V30 2320 H 210.032 3.04773 3.45616 0
M  V30 2321 H 208.347 2.63343 3.22552 0
M  V30 2322 H 210.944 0.770925 5.29113 0
M  V30 2323 H 211.287 -0.491404 4.1339 0
M  V30 2324 H 211.82 1.17438 3.8007 0
M  V30 2325 H 208.559 3.70493 5.40754 0
M  V30 2326 H 208.079 2.00977 5.65127 0
M  V30 2327 H 209.758 2.51765 5.96006 0
M  V30 2328 N 209.89 -1.43072 0.660911 0
M  V30 2329 C 211.13 -2.03596 0.181146 0
M  V30 2330 C 211.494 -1.51057 -1.18515 0
M  V30 2331 O 212.695 -2.03275 -1.75877 0
M  V30 2332 C 210.966 -3.56845 0.19911 0
M  V30 2333 S 212.525 -4.38289 -0.211684 0
M  V30 2334 H 209.343 -0.706954 0.0757479 0
M  V30 2335 H 211.945 -1.75027 0.870965 0
M  V30 2336 H 210.649 -3.92583 1.1961 0
M  V30 2337 H 210.18 -3.90067 -0.510996 0
M  V30 2338 H 212.195 -4.74583 -1.44863 0
M  V30 2339 N 211.368 -0.403325 -1.52352 0
M  V30 2340 C 212.645 0.232611 -1.94212 0
M  V30 2341 C 213.025 1.63133 -1.33981 0
M  V30 2342 O 212.373 2.22659 -0.513344 0
M  V30 2343 C 212.583 0.244811 -3.4814 0
M  V30 2344 C 213.931 0.46698 -4.22024 0
M  V30 2345 O 214.955 0.324419 -3.5472 0
M  V30 2346 O 213.814 0.74747 -5.41364 0
M  V30 2347 H 210.908 0.148223 -0.813609 0
M  V30 2348 H 213.454 -0.458848 -1.63379 0
M  V30 2349 H 212.226 -0.734378 -3.84347 0
M  V30 2350 H 211.849 0.980611 -3.85318 0
M  V30 2351 N 212.846 1.57033 -0.133567 0
M  V30 2352 C 214.071 2.00475 0.531477 0
M  V30 2353 C 214.496 1.01291 1.58499 0
M  V30 2354 O 213.854 -0.0133279 1.81295 0
M  V30 2355 C 213.902 3.42729 1.12113 0
M  V30 2356 O 213.006 3.46498 2.23636 0
M  V30 2357 H 212.347 0.650876 0.131362 0
M  V30 2358 H 214.877 2.03344 -0.22634 0
M  V30 2359 H 214.887 3.81246 1.4531 0
M  V30 2360 H 213.562 4.14428 0.349557 0
M  V30 2361 H 212.139 3.19811 1.91769 0
M  V30 2362 N 214.325 -0.140222 1.56975 0
M  V30 2363 C 215.573 -0.850005 1.83356 0
M  V30 2364 C 215.894 -1.81399 0.71551 0
M  V30 2365 O 215.164 -1.94136 -0.262294 0
M  V30 2366 H 213.744 -0.316886 0.676456 0
M  V30 2367 H 216.406 -0.132608 1.94448 0
M  V30 2368 H 215.502 -1.40814 2.78528 0
M  V30 2369 N 215.803 -1.52179 -0.40978 0
M  V30 2370 C 217.052 -1.65434 -1.15388 0
M  V30 2371 C 217.365 -0.390056 -1.91671 0
M  V30 2372 O 218.571 -0.402399 -2.68501 0
M  V30 2373 C 217.027 -2.92279 -2.10003 0
M  V30 2374 C 216.635 -4.25813 -1.39239 0
M  V30 2375 C 218.379 -3.14897 -2.84675 0
M  V30 2376 C 216.286 -5.43782 -2.32498 0
M  V30 2377 H 215.216 -0.616267 -0.434432 0
M  V30 2378 H 217.867 -1.78666 -0.418401 0
M  V30 2379 H 216.249 -2.72744 -2.871 0
M  V30 2380 H 217.423 -4.55828 -0.675099 0
M  V30 2381 H 215.738 -4.09292 -0.766097 0
M  V30 2382 H 218.335 -4.0021 -3.54593 0
M  V30 2383 H 218.678 -2.29103 -3.47588 0
M  V30 2384 H 219.211 -3.34901 -2.14677 0
M  V30 2385 H 215.95 -6.3192 -1.74233 0
M  V30 2386 H 215.47 -5.18106 -3.02201 0
M  V30 2387 H 217.149 -5.76834 -2.93038 0
M  V30 2388 N 217.281 0.66697 -1.42791 0
M  V30 2389 C 218.697 0.981027 -1.25889 0
M  V30 2390 C 218.897 2.00793 -0.168695 0
M  V30 2391 O 217.953 2.48321 0.45747 0
M  V30 2392 C 219.266 1.47838 -2.61848 0
M  V30 2393 C 220.814 1.59575 -2.69267 0
M  V30 2394 C 221.289 2.12704 -4.05612 0
M  V30 2395 N 222.78 2.20026 -4.07606 0
M  V30 2396 C 223.515 2.62227 -5.09926 0
M  V30 2397 N 223.011 3.03824 -6.22626 0
M  V30 2398 N 224.804 2.62045 -4.97281 0
M  V30 2399 H 216.955 -0.0127891 -2.12396 0
M  V30 2400 H 219.218 0.0568258 -0.946295 0
M  V30 2401 H 218.924 0.798299 -3.4252 0
M  V30 2402 H 218.798 2.45579 -2.86305 0
M  V30 2403 H 221.185 2.26687 -1.88936 0
M  V30 2404 H 221.266 0.60302 -2.48591 0
M  V30 2405 H 220.91 1.46198 -4.86404 0
M  V30 2406 H 220.84 3.12782 -4.23645 0
M  V30 2407 H 223.331 1.90708 -3.2625 0
M  V30 2408 H 223.644 3.34734 -6.96544 0
M  V30 2409 H 221.989 3.01662 -6.26119 0
M  V30 2410 H 225.18 2.28916 -4.08308 0
M  V30 2411 H 225.353 2.94613 -5.77154 0
M  V30 2412 N 218.759 1.29093 0.90403 0
M  V30 2413 C 220.005 1.16986 1.65656 0
M  V30 2414 C 220.338 -0.278925 1.92186 0
M  V30 2415 O 219.613 -1.2019 1.5292 0
M  V30 2416 C 219.896 1.97908 3.0084 0
M  V30 2417 C 219.749 3.50903 2.81403 0
M  V30 2418 C 221.068 1.80208 4.01513 0
M  V30 2419 H 218.187 0.426346 0.601164 0
M  V30 2420 H 220.829 1.58518 1.04747 0
M  V30 2421 H 218.979 1.62616 3.52829 0
M  V30 2422 H 220.651 3.96153 2.36348 0
M  V30 2423 H 218.894 3.76045 2.1627 0
M  V30 2424 H 219.565 4.02791 3.77443 0
M  V30 2425 H 222.041 2.11025 3.58619 0
M  V30 2426 H 220.917 2.39184 4.94047 0
M  V30 2427 H 221.178 0.756119 4.35586 0
M  V30 2428 N 220.237 -1.11381 1.11499 0
M  V30 2429 C 221.486 -1.82494 0.858993 0
M  V30 2430 C 221.799 -1.85605 -0.617278 0
M  V30 2431 O 223.005 -2.52824 -0.989552 0
M  V30 2432 C 221.461 -3.27745 1.48699 0
M  V30 2433 C 221.069 -3.32961 2.99735 0
M  V30 2434 C 222.813 -4.03754 1.31085 0
M  V30 2435 C 220.72 -4.72612 3.55516 0
M  V30 2436 H 219.65 -0.683802 0.317696 0
M  V30 2437 H 222.301 -1.25331 1.34031 0
M  V30 2438 H 220.683 -3.84844 0.933339 0
M  V30 2439 H 221.857 -2.85741 3.61509 0
M  V30 2440 H 220.172 -2.70433 3.16631 0
M  V30 2441 H 222.769 -5.06891 1.70192 0
M  V30 2442 H 223.112 -4.15527 0.253496 0
M  V30 2443 H 223.645 -3.53043 1.83318 0
M  V30 2444 H 220.384 -4.66036 4.60967 0
M  V30 2445 H 219.904 -5.2024 2.98513 0
M  V30 2446 H 221.583 -5.4157 3.53992 0
M  V30 2447 N 221.715 -0.905404 -1.28997 0
M  V30 2448 C 223.126 -0.581953 -1.77398 0
M  V30 2449 C 223.477 0.902552 -1.74208 0
M  V30 2450 O 222.602 1.70584 -1.33154 0
M  V30 2451 C 223.197 -1.04961 -3.22131 0
M  V30 2452 C 221.756 -0.777229 -3.68288 0
M  V30 2453 C 220.903 -1.22109 -2.48967 0
M  V30 2454 H 223.854 -1.08754 -1.15578 0
M  V30 2455 H 223.875 -0.387387 -3.78523 0
M  V30 2456 H 223.387 -2.13008 -3.24421 0
M  V30 2457 H 221.488 0.290383 -3.71467 0
M  V30 2458 H 221.601 -1.37911 -4.58822 0
M  V30 2459 H 219.965 -0.639971 -2.46529 0
M  V30 2460 H 220.748 -2.30972 -2.53982 0
M  V30 2461 N 223.193 1.4272 -0.668489 0
M  V30 2462 C 224.47 1.95248 -0.117373 0
M  V30 2463 C 224.85 1.60919 1.36632 0
M  V30 2464 O 224.198 0.902095 2.09939 0
M  V30 2465 C 224.408 3.46927 -0.379806 0
M  V30 2466 C 225.756 4.23588 -0.292923 0
M  V30 2467 O 226.78 3.5482 -0.313204 0
M  V30 2468 O 225.639 5.46017 -0.229697 0
M  V30 2469 H 222.733 0.827 0.00079152 0
M  V30 2470 H 225.279 1.52581 -0.742783 0
M  V30 2471 H 224.051 3.65096 -1.40786 0
M  V30 2472 H 223.674 3.96627 0.277923 0
M  V30 2473 N 224.671 0.411399 1.52136 0
M  V30 2474 C 225.899 -0.163076 2.06256 0
M  V30 2475 C 226.314 -1.3867 1.28125 0
M  V30 2476 O 225.671 -1.79423 0.333721 0
M  V30 2477 C 225.722 -0.511252 3.57867 0
M  V30 2478 O 225.443 0.66378 4.33042 0
M  V30 2479 C 226.944 -1.13921 4.28412 0
M  V30 2480 H 224.164 -0.0193897 0.67072 0
M  V30 2481 H 226.708 0.583007 1.96013 0
M  V30 2482 H 224.863 -1.20723 3.6811 0
M  V30 2483 H 225.277 0.372601 5.23175 0
M  V30 2484 H 226.751 -1.33302 5.35663 0
M  V30 2485 H 227.228 -2.11296 3.85033 0
M  V30 2486 H 227.834 -0.483373 4.22544 0
M  V30 2487 N 226.149 -1.5696 0.141893 0
M  V30 2488 C 227.079 -2.19516 -0.795936 0
M  V30 2489 C 228.06 -1.14187 -1.26077 0
M  V30 2490 O 229.245 -1.42511 -1.31925 0
M  V30 2491 C 226.375 -2.81272 -2.03723 0
M  V30 2492 C 225.329 -3.92384 -1.70936 0
M  V30 2493 C 224.655 -4.41052 -3.02287 0
M  V30 2494 C 225.955 -5.13403 -0.959954 0
M  V30 2495 H 227.649 -2.98138 -0.274596 0
M  V30 2496 H 225.195 -1.43406 -0.130636 0
M  V30 2497 H 227.148 -3.237 -2.69808 0
M  V30 2498 H 225.872 -1.99973 -2.58221 0
M  V30 2499 H 224.531 -3.50566 -1.07232 0
M  V30 2500 H 224.179 -3.56582 -3.54765 0
M  V30 2501 H 223.879 -5.15993 -2.81114 0
M  V30 2502 H 225.403 -4.86146 -3.69451 0
M  V30 2503 H 226.817 -5.52706 -1.52279 0
M  V30 2504 H 225.214 -5.94073 -0.848357 0
M  V30 2505 H 226.284 -4.84875 0.0492434 0
M  V30 2506 N 227.627 0.131896 -1.57047 0
M  V30 2507 C 228.855 0.856461 -1.88341 0
M  V30 2508 C 229.27 1.74042 -0.731757 0
M  V30 2509 O 228.627 1.80051 0.297945 0
M  V30 2510 C 228.678 1.70064 -3.18999 0
M  V30 2511 O 228.399 0.852278 -4.2973 0
M  V30 2512 C 229.9 2.53148 -3.63911 0
M  V30 2513 H 227.12 0.246885 -0.62393 0
M  V30 2514 H 229.664 0.120152 -2.04147 0
M  V30 2515 H 227.819 2.38984 -3.04902 0
M  V30 2516 H 228.233 1.43329 -5.04537 0
M  V30 2517 H 229.707 3.07931 -4.58129 0
M  V30 2518 H 230.184 3.29901 -2.89935 0
M  V30 2519 H 230.79 1.89492 -3.80753 0
M  V30 2520 N 229.106 1.52395 0.401703 0
M  V30 2521 C 230.383 1.57387 1.16141 0
M  V30 2522 C 230.763 0.359359 2.08019 0
M  V30 2523 O 230.111 -0.65326 2.18963 0
M  V30 2524 C 230.321 2.90631 1.93221 0
M  V30 2525 C 231.669 3.43904 2.49028 0
M  V30 2526 O 232.693 2.92421 2.03393 0
M  V30 2527 O 231.552 4.33823 3.32356 0
M  V30 2528 H 228.646 0.634262 0.530698 0
M  V30 2529 H 231.192 1.64725 0.407883 0
M  V30 2530 H 229.964 3.70473 1.25958 0
M  V30 2531 H 229.587 2.8662 2.75563 0
M  V30 2532 N 230.584 -0.659388 1.43143 0
M  V30 2533 C 231.517 -1.78425 1.42267 0
M  V30 2534 C 232.495 -1.60085 0.284894 0
M  V30 2535 O 233.679 -1.82351 0.477527 0
M  V30 2536 C 230.806 -3.15642 1.22833 0
M  V30 2537 C 229.852 -3.52698 2.39806 0
M  V30 2538 S 230.685 -3.53372 4.02353 0
M  V30 2539 C 231.841 -4.93256 3.85291 0
M  V30 2540 H 232.074 -1.78897 2.37452 0
M  V30 2541 H 229.607 -0.831469 1.301 0
M  V30 2542 H 231.565 -3.94838 1.12308 0
M  V30 2543 H 230.226 -3.12739 0.29207 0
M  V30 2544 H 229.419 -4.52475 2.21996 0
M  V30 2545 H 229.021 -2.80899 2.46925 0
M  V30 2546 H 231.313 -5.81751 3.47235 0
M  V30 2547 H 232.256 -5.16115 4.84799 0
M  V30 2548 H 232.664 -4.665 3.17865 0
M  V30 2549 N 232.062 -1.29571 -0.897171 0
M  V30 2550 C 233.308 -1.17863 -1.65034 0
M  V30 2551 C 233.641 0.268729 -1.92332 0
M  V30 2552 O 232.916 1.19378 -1.53555 0
M  V30 2553 C 233.199 -1.995 -2.99786 0
M  V30 2554 C 233.052 -3.5239 -2.79538 0
M  V30 2555 C 234.371 -1.82335 -4.00552 0
M  V30 2556 H 231.49 -0.429528 -0.598895 0
M  V30 2557 H 234.132 -1.59072 -1.03905 0
M  V30 2558 H 232.282 -1.64485 -3.51962 0
M  V30 2559 H 233.954 -3.97401 -2.34244 0
M  V30 2560 H 232.197 -3.77187 -2.14273 0
M  V30 2561 H 232.868 -4.04787 -3.75302 0
M  V30 2562 H 235.344 -2.12924 -3.57495 0
M  V30 2563 H 234.22 -2.41801 -4.92771 0
M  V30 2564 H 234.481 -0.779209 -4.35179 0
M  V30 2565 N 233.54 1.10788 -1.12088 0
M  V30 2566 C 234.488 2.19111 -0.780587 0
M  V30 2567 C 235.482 1.67818 0.230961 0
M  V30 2568 O 236.688 1.79777 0.0895427 0
M  V30 2569 H 233.063 0.714477 -0.234578 0
M  V30 2570 H 235.034 2.45055 -1.70266 0
M  V30 2571 C 233.783 3.46818 -0.24747 0
M  V30 2572 H 233.106 3.86646 -1.01712 0
M  V30 2573 H 234.546 4.23973 -0.0476291 0
M  V30 2574 C 233.005 3.20968 1.02378 0
M  V30 2575 O 233.535 3.42298 2.10226 0
M  V30 2576 N 231.741 2.74658 0.949271 0
M  V30 2577 H 231.288 2.57501 0.0715173 0
M  V30 2578 H 231.246 2.57739 1.80049 0
M  V30 2579 N 235.018 0.912232 1.28515 0
M  V30 2580 C 235.95 0.35676 2.26406 0
M  V30 2581 C 236.963 -0.503933 1.54804 0
M  V30 2582 O 238.152 -0.319059 1.75625 0
M  V30 2583 C 235.252 -0.508825 3.35058 0
M  V30 2584 C 234.425 0.329007 4.36161 0
M  V30 2585 C 233.484 -0.471422 5.24084 0
M  V30 2586 O 232.51 0.115482 5.69083 0
M  V30 2587 N 233.712 -1.77479 5.52704 0
M  V30 2588 H 236.477 1.19818 2.74707 0
M  V30 2589 H 234.038 0.778022 1.4198 0
M  V30 2590 H 236.03 -1.051 3.90815 0
M  V30 2591 H 234.6 -1.25095 2.86478 0
M  V30 2592 H 233.82 1.05256 3.79888 0
M  V30 2593 H 235.108 0.90234 5.00735 0
M  V30 2594 H 234.506 -2.27417 5.17975 0
M  V30 2595 H 233.063 -2.26382 6.11224 0
M  V30 2596 N 236.496 -1.42363 0.676048 0
M  V30 2597 C 237.429 -2.28141 -0.0516916 0
M  V30 2598 C 238.407 -1.41135 -0.807439 0
M  V30 2599 O 239.591 -1.70573 -0.802305 0
M  V30 2600 C 236.718 -3.21007 -1.08039 0
M  V30 2601 C 235.764 -4.24426 -0.420076 0
M  V30 2602 S 236.597 -5.29134 0.823246 0
M  V30 2603 C 237.753 -6.25566 -0.204344 0
M  V30 2604 H 237.986 -2.89515 0.675884 0
M  V30 2605 H 235.519 -1.47211 0.465635 0
M  V30 2606 H 237.477 -3.75048 -1.66881 0
M  V30 2607 H 236.138 -2.58766 -1.78042 0
M  V30 2608 H 235.331 -4.89596 -1.19633 0
M  V30 2609 H 234.933 -3.7388 0.0947845 0
M  V30 2610 H 237.225 -6.69098 -1.06369 0
M  V30 2611 H 238.168 -7.06895 0.412915 0
M  V30 2612 H 238.576 -5.61811 -0.55038 0
M  V30 2613 N 237.974 -0.419461 -1.51915 0
M  V30 2614 C 239.202 0.152136 -2.0634 0
M  V30 2615 C 239.617 1.37988 -1.28859 0
M  V30 2616 O 238.974 1.79243 -0.343232 0
M  V30 2617 C 239.025 0.492266 -3.58133 0
M  V30 2618 O 238.746 -0.686736 -4.32684 0
M  V30 2619 C 240.247 1.11648 -4.2901 0
M  V30 2620 H 237.467 0.0158325 -0.670813 0
M  V30 2621 H 240.011 -0.593394 -1.95702 0
M  V30 2622 H 238.166 1.18769 -3.68745 0
M  V30 2623 H 238.58 -0.400341 -5.2297 0
M  V30 2624 H 240.054 1.3046 -5.36362 0
M  V30 2625 H 240.531 2.09251 -3.86148 0
M  V30 2626 H 241.137 0.460958 -4.22795 0
M  V30 2627 N 239.452 1.56882 -0.150215 0
M  V30 2628 C 240.362 2.20494 0.801222 0
M  V30 2629 C 241.378 1.19019 1.26927 0
M  V30 2630 O 242.554 1.51607 1.32579 0
M  V30 2631 C 239.619 2.81659 2.02161 0
M  V30 2632 C 238.68 3.9827 1.60249 0
M  V30 2633 C 237.913 4.56508 2.7647 0
M  V30 2634 O 238.136 4.13627 3.92771 0
M  V30 2635 O 237.07 5.46719 2.51757 0
M  V30 2636 H 240.896 3.02315 0.289717 0
M  V30 2637 H 238.481 1.49202 0.0769684 0
M  V30 2638 H 240.363 3.20522 2.73576 0
M  V30 2639 H 239.038 2.02849 2.52258 0
M  V30 2640 H 237.945 3.64117 0.858477 0
M  V30 2641 H 239.278 4.78609 1.14864 0
M  V30 2642 N 240.93 -0.123565 1.57115 0
M  V30 2643 C 241.877 -1.15177 2.00007 0
M  V30 2644 C 242.847 -1.41403 0.871454 0
M  V30 2645 O 244.032 -1.53346 1.13533 0
M  V30 2646 C 241.172 -2.47436 2.40561 0
M  V30 2647 C 240.285 -2.28184 3.66819 0
M  V30 2648 C 239.42 -3.53641 3.96373 0
M  V30 2649 C 238.459 -3.29528 5.15827 0
M  V30 2650 N 237.596 -4.47175 5.41275 0
M  V30 2651 H 242.436 -0.779008 2.87638 0
M  V30 2652 H 239.973 -0.373166 1.42288 0
M  V30 2653 H 241.931 -3.24584 2.62109 0
M  V30 2654 H 240.561 -2.82614 1.55978 0
M  V30 2655 H 239.613 -1.41976 3.52912 0
M  V30 2656 H 240.925 -2.0634 4.5412 0
M  V30 2657 H 240.079 -4.39209 4.18545 0
M  V30 2658 H 238.818 -3.78512 3.07538 0
M  V30 2659 H 237.823 -2.42349 4.93505 0
M  V30 2660 H 239.048 -3.06031 6.06236 0
M  V30 2661 H 236.994 -4.72175 4.55397 0
M  V30 2662 H 236.911 -4.28419 6.22891 0
M  V30 2663 H 238.179 -5.3389 5.67963 0
M  V30 2664 N 242.408 -1.52605 -0.393616 0
M  V30 2665 C 243.654 -1.67672 -1.14079 0
M  V30 2666 C 243.987 -0.413121 -1.89755 0
M  V30 2667 O 243.262 0.588952 -1.85369 0
M  V30 2668 C 243.545 -2.9088 -2.12276 0
M  V30 2669 C 243.398 -4.27329 -1.40394 0
M  V30 2670 C 244.717 -3.09628 -3.12759 0
M  V30 2671 H 241.836 -0.610168 -0.413356 0
M  V30 2672 H 244.478 -1.85193 -0.424696 0
M  V30 2673 H 242.628 -2.76073 -2.73342 0
M  V30 2674 H 244.3 -4.53894 -0.82327 0
M  V30 2675 H 242.543 -4.2802 -0.705801 0
M  V30 2676 H 243.214 -5.09615 -2.12123 0
M  V30 2677 H 245.69 -3.23436 -2.61779 0
M  V30 2678 H 244.566 -3.97322 -3.78717 0
M  V30 2679 H 244.827 -2.23637 -3.81365 0
M  V30 2680 N 243.887 0.651787 -1.4349 0
M  V30 2681 C 245.135 1.40888 -1.44897 0
M  V30 2682 C 245.456 1.94856 -0.0749086 0
M  V30 2683 O 244.726 1.74518 0.889956 0
M  V30 2684 H 243.306 0.522887 -0.533478 0
M  V30 2685 H 245.968 0.768609 -1.79104 0
M  V30 2686 H 245.064 2.25052 -2.16236 0
M  V30 2687 N 245.365 1.30045 0.890287 0
M  V30 2688 C 246.295 1.18541 2.01172 0
M  V30 2689 C 247.276 0.0773356 1.69924 0
M  V30 2690 O 248.461 0.25845 1.92473 0
M  V30 2691 C 245.591 0.870941 3.36202 0
M  V30 2692 C 244.545 1.93637 3.81692 0
M  V30 2693 C 243.871 1.475 5.13953 0
M  V30 2694 C 245.171 3.34666 4.00994 0
M  V30 2695 H 246.865 2.12359 2.11054 0
M  V30 2696 H 244.411 1.02238 1.01407 0
M  V30 2697 H 246.364 0.777141 4.14172 0
M  V30 2698 H 245.088 -0.102926 3.26438 0
M  V30 2699 H 243.747 2.01972 3.05946 0
M  V30 2700 H 243.395 0.489551 5.00612 0
M  V30 2701 H 243.095 2.1876 5.4536 0
M  V30 2702 H 244.619 1.39489 5.94454 0
M  V30 2703 H 246.033 3.2912 4.69417 0
M  V30 2704 H 244.43 4.03966 4.43769 0
M  V30 2705 H 245.5 3.76949 3.05021 0
M  V30 2706 N 246.843 -1.10192 1.12674 0
M  V30 2707 C 248.089 -1.82475 0.884915 0
M  V30 2708 C 248.422 -1.85093 -0.58773 0
M  V30 2709 O 247.697 -1.3134 -1.43457 0
M  V30 2710 C 247.98 -3.29018 1.46353 0
M  V30 2711 C 247.833 -3.34718 3.00473 0
M  V30 2712 C 249.152 -4.25473 1.12519 0
M  V30 2713 H 246.271 -0.662492 0.322915 0
M  V30 2714 H 248.913 -1.2913 1.39375 0
M  V30 2715 H 247.063 -3.74576 1.03077 0
M  V30 2716 H 248.735 -2.97622 3.52447 0
M  V30 2717 H 246.978 -2.74541 3.35872 0
M  V30 2718 H 247.649 -4.37918 3.36053 0
M  V30 2719 H 250.125 -3.88161 1.499 0
M  V30 2720 H 249.001 -5.26365 1.55663 0
M  V30 2721 H 249.262 -4.42084 0.0377407 0
M  V30 2722 N 248.321 -0.919034 -1.28029 0
M  V30 2723 C 249.271 -0.382574 -2.24767 0
M  V30 2724 C 250.255 0.508286 -1.52661 0
M  V30 2725 O 251.447 0.347145 -1.73562 0
M  V30 2726 C 248.576 0.371432 -3.41285 0
M  V30 2727 C 247.662 -0.535449 -4.20706 0
M  V30 2728 N 248.053 -1.65141 -4.78082 0
M  V30 2729 C 246.351 -0.336824 -4.44726 0
M  V30 2730 C 247.052 -2.21475 -5.37888 0
M  V30 2731 N 246.028 -1.50537 -5.22341 0
M  V30 2732 H 249.83 -1.23477 -2.66703 0
M  V30 2733 H 247.344 -0.772299 -1.42861 0
M  V30 2734 H 249.341 0.772638 -4.09678 0
M  V30 2735 H 248.001 1.22066 -3.00882 0
M  V30 2736 H 249.012 -2.03392 -4.7629 0
M  V30 2737 H 245.689 0.47246 -4.14818 0
M  V30 2738 H 247.079 -3.15379 -5.93284 0
M  V30 2739 N 249.799 1.42003 -0.683588 0
M  V30 2740 C 251.047 2.01015 -0.209101 0
M  V30 2741 C 251.368 1.54365 1.19149 0
M  V30 2742 O 250.638 0.769083 1.80172 0
M  V30 2743 H 249.218 0.743294 -0.074315 0
M  V30 2744 H 251.88 1.73798 -0.882066 0
M  V30 2745 H 250.976 3.11343 -0.2172 0
M  V30 2746 N 251.277 0.427512 1.51691 0
M  V30 2747 C 252.207 -0.3796 2.30394 0
M  V30 2748 C 253.188 -1.02982 1.35384 0
M  V30 2749 O 254.373 -1.03534 1.643 0
M  V30 2750 C 251.503 -1.48649 3.1388 0
M  V30 2751 C 250.457 -0.960294 4.17088 0
M  V30 2752 C 249.783 -2.16219 4.89033 0
M  V30 2753 C 251.083 -0.00153679 5.223 0
M  V30 2754 H 252.777 0.277164 2.98114 0
M  V30 2755 H 250.323 0.134739 1.43368 0
M  V30 2756 H 252.276 -2.05826 3.67714 0
M  V30 2757 H 251 -2.1714 2.43962 0
M  V30 2758 H 249.659 -0.410806 3.64291 0
M  V30 2759 H 249.307 -2.83307 4.15628 0
M  V30 2760 H 249.007 -1.81654 5.58816 0
M  V30 2761 H 250.531 -2.73968 5.45687 0
M  V30 2762 H 251.945 -0.482687 5.71264 0
M  V30 2763 H 250.342 0.256199 5.99553 0
M  V30 2764 H 251.412 0.938174 4.75738 0
M  V30 2765 N 252.755 -1.56801 0.158532 0
M  V30 2766 C 254.166 -1.83189 -0.360366 0
M  V30 2767 C 254.517 -1.07778 -1.63946 0
M  V30 2768 O 253.642 -0.326718 -2.13919 0
M  V30 2769 C 254.237 -3.32297 -0.660595 0
M  V30 2770 C 252.796 -3.59227 -1.12398 0
M  V30 2771 C 251.943 -2.76877 -0.153097 0
M  V30 2772 H 254.894 -1.54008 0.383031 0
M  V30 2773 H 254.915 -3.4908 -1.51405 0
M  V30 2774 H 254.427 -3.87156 0.270527 0
M  V30 2775 H 252.528 -3.09766 -2.07064 0
M  V30 2776 H 252.641 -4.67632 -1.04197 0
M  V30 2777 H 251.005 -2.46319 -0.647983 0
M  V30 2778 H 251.788 -3.34511 0.77182 0
M  V30 2779 N 254.233 0.115231 -1.57178 0
M  V30 2780 C 255.463 0.835224 -1.88964 0
M  V30 2781 C 255.871 1.73774 -0.74829 0
M  V30 2782 O 255.214 1.81401 0.289739 0
M  V30 2783 C 255.276 1.7178 -3.15804 0
M  V30 2784 C 254.94 0.989198 -4.46166 0
M  V30 2785 C 255.937 0.328263 -5.18863 0
M  V30 2786 C 253.622 0.969256 -4.9286 0
M  V30 2787 C 255.616 -0.342873 -6.36477 0
M  V30 2788 C 253.303 0.294324 -6.10391 0
M  V30 2789 C 254.301 -0.360582 -6.82048 0
M  V30 2790 O 253.989 -1.02474 -7.97342 0
M  V30 2791 H 253.721 0.245197 -0.629964 0
M  V30 2792 H 256.275 0.10303 -2.05141 0
M  V30 2793 H 254.505 2.49173 -2.95719 0
M  V30 2794 H 256.194 2.31255 -3.33581 0
M  V30 2795 H 256.96 0.335263 -4.8384 0
M  V30 2796 H 252.839 1.46844 -4.36987 0
M  V30 2797 H 256.383 -0.854629 -6.92345 0
M  V30 2798 H 252.28 0.285099 -6.4487 0
M  V30 2799 H 253.048 -0.929594 -8.13204 0
M  V30 2800 N 255.711 1.52812 0.385517 0
M  V30 2801 C 256.957 1.68275 1.13188 0
M  V30 2802 C 257.29 0.423179 1.89533 0
M  V30 2803 O 256.565 -0.579113 1.85679 0
M  V30 2804 C 256.848 2.92001 2.1073 0
M  V30 2805 C 256.701 4.28067 1.38125 0
M  V30 2806 C 258.02 3.11283 3.11113 0
M  V30 2807 H 255.139 0.612352 0.410115 0
M  V30 2808 H 257.781 1.85415 0.414869 0
M  V30 2809 H 255.931 2.77519 2.71874 0
M  V30 2810 H 257.603 4.54324 0.799187 0
M  V30 2811 H 255.846 4.28388 0.683092 0
M  V30 2812 H 256.517 5.10733 2.09417 0
M  V30 2813 H 258.993 3.2482 2.6006 0
M  V30 2814 H 257.869 3.99325 3.76605 0
M  V30 2815 H 258.13 2.25656 3.80173 0
M  V30 2816 N 257.189 -0.644168 1.43834 0
M  V30 2817 C 258.152 -1.73857 1.49353 0
M  V30 2818 C 259.152 -1.56315 0.377112 0
M  V30 2819 O 260.342 -1.62048 0.639226 0
M  V30 2820 C 257.474 -3.12819 1.35488 0
M  V30 2821 H 258.667 -1.70342 2.46827 0
M  V30 2822 H 256.22 -0.856652 1.30733 0
M  V30 2823 H 256.955 -3.2194 0.390569 0
M  V30 2824 H 256.74 -3.26958 2.16428 0
M  V30 2825 H 258.23 -3.92606 1.42302 0
M  V30 2826 N 258.668 -1.30515 -0.883378 0
M  V30 2827 C 259.945 -1.10086 -1.6168 0
M  V30 2828 C 260.325 0.349269 -2.08191 0
M  V30 2829 O 259.673 1.34105 -1.85008 0
M  V30 2830 C 259.883 -2.10315 -2.78511 0
M  V30 2831 C 261.231 -2.42119 -3.48803 0
M  V30 2832 O 262.255 -2.08638 -2.88702 0
M  V30 2833 O 261.114 -2.99396 -4.57192 0
M  V30 2834 H 258.208 -0.422907 -0.710689 0
M  V30 2835 H 260.754 -1.41947 -0.930015 0
M  V30 2836 H 259.526 -3.07917 -2.41459 0
M  V30 2837 H 259.149 -1.79282 -3.54886 0
M  V30 2838 N 260.146 1.09593 -1.13257 0
M  V30 2839 C 261.562 1.33775 -0.870423 0
M  V30 2840 C 261.762 1.95327 0.494926 0
M  V30 2841 O 260.818 2.19853 1.2418 0
M  V30 2842 C 262.131 2.25106 -1.99369 0
M  V30 2843 C 263.679 2.3862 -2.02558 0
M  V30 2844 C 264.154 3.33285 -3.14142 0
M  V30 2845 N 265.645 3.40857 -3.13641 0
M  V30 2846 C 266.38 4.14101 -3.96621 0
M  V30 2847 N 265.876 4.90157 -4.8961 0
M  V30 2848 N 267.669 4.09808 -3.84726 0
M  V30 2849 H 259.82 0.680136 -2.01216 0
M  V30 2850 H 262.083 0.362133 -0.876107 0
M  V30 2851 H 261.789 1.87103 -2.97801 0
M  V30 2852 H 261.663 3.25481 -1.90635 0
M  V30 2853 H 264.05 2.75887 -1.0474 0
M  V30 2854 H 264.131 1.38028 -2.15364 0
M  V30 2855 H 263.775 2.96741 -4.12198 0
M  V30 2856 H 263.705 4.33776 -2.98574 0
M  V30 2857 H 266.196 2.86624 -2.46282 0
M  V30 2858 H 266.509 5.4347 -5.49418 0
M  V30 2859 H 264.854 4.89251 -4.93617 0
M  V30 2860 H 268.045 3.4949 -3.11408 0
M  V30 2861 H 268.218 4.66629 -4.49623 0
M  V30 2862 N 261.624 0.925811 1.2754 0
M  V30 2863 C 262.556 0.380753 2.26015 0
M  V30 2864 C 263.569 -0.487485 1.5533 0
M  V30 2865 O 264.758 -0.300413 1.75954 0
M  V30 2866 C 261.858 -0.473259 3.35579 0
M  V30 2867 C 261.031 0.375249 4.35787 0
M  V30 2868 C 260.09 -0.415809 5.24555 0
M  V30 2869 O 259.116 0.175834 5.68928 0
M  V30 2870 N 260.318 -1.71607 5.54555 0
M  V30 2871 H 263.083 1.22725 2.73421 0
M  V30 2872 H 260.644 0.793037 1.41147 0
M  V30 2873 H 262.636 -1.00949 3.91907 0
M  V30 2874 H 261.206 -1.2205 2.87789 0
M  V30 2875 H 260.426 1.09279 3.7875 0
M  V30 2876 H 261.714 0.955399 4.99749 0
M  V30 2877 H 261.112 -2.2191 5.20358 0
M  V30 2878 H 259.669 -2.19887 6.1359 0
M  V30 2879 N 263.102 -1.41638 0.69111 0
M  V30 2880 C 264.35 -2.00902 0.219758 0
M  V30 2881 C 264.671 -1.54994 -1.18329 0
M  V30 2882 O 263.941 -0.778628 -1.79762 0
M  V30 2883 H 262.521 -0.74289 0.0782558 0
M  V30 2884 H 265.183 -1.73327 0.891271 0
M  V30 2885 H 264.279 -3.11224 0.233708 0
M  V30 2886 N 264.58 -0.43555 -1.51462 0
M  V30 2887 C 265.827 0.131514 -2.02072 0
M  V30 2888 C 266.155 1.42868 -1.31981 0
M  V30 2889 O 265.41 1.91076 -0.422883 0
M  V30 2890 C 265.709 0.39942 -3.55161 0
M  V30 2891 C 265.375 -0.81172 -4.43533 0
M  V30 2892 C 264.037 -1.14387 -4.67407 0
M  V30 2893 C 266.389 -1.61976 -4.95392 0
M  V30 2894 C 263.717 -2.28477 -5.40384 0
M  V30 2895 C 266.069 -2.75164 -5.6962 0
M  V30 2896 C 264.733 -3.08835 -5.91758 0
M  V30 2897 H 264.003 0.0481244 -0.739436 0
M  V30 2898 H 266.65 -0.58238 -1.8243 0
M  V30 2899 H 264.955 1.19519 -3.73125 0
M  V30 2900 H 266.652 0.85157 -3.91854 0
M  V30 2901 H 263.242 -0.542898 -4.25148 0
M  V30 2902 H 267.426 -1.37637 -4.76833 0
M  V30 2903 H 262.682 -2.5488 -5.55739 0
M  V30 2904 H 266.856 -3.38147 -6.08793 0
M  V30 2905 H 264.483 -3.97353 -6.48086 0
M  V30 2906 N 266.058 1.56714 -0.166846 0
M  V30 2907 C 267.021 2.16539 0.751232 0
M  V30 2908 C 268.021 1.11228 1.16125 0
M  V30 2909 O 269.211 1.36765 1.07894 0
M  V30 2910 C 266.343 2.74462 2.02196 0
M  V30 2911 H 267.536 2.99013 0.230499 0
M  V30 2912 H 265.089 1.56081 0.0826982 0
M  V30 2913 H 265.824 1.95709 2.58589 0
M  V30 2914 H 265.609 3.51527 1.73698 0
M  V30 2915 H 267.099 3.20489 2.67725 0
M  V30 2916 N 267.536 -0.106894 1.57237 0
M  V30 2917 C 268.499 -1.11466 2.0027 0
M  V30 2918 C 269.499 -1.33623 0.894519 0
M  V30 2919 O 270.689 -1.29935 1.16028 0
M  V30 2920 C 267.821 -2.46646 2.35327 0
M  V30 2921 H 269.014 -0.744516 2.90512 0
M  V30 2922 H 266.567 -0.351576 1.52295 0
M  V30 2923 H 267.302 -2.88558 1.48003 0
M  V30 2924 H 267.087 -2.31915 3.16161 0
M  V30 2925 H 268.577 -3.19151 2.69318 0
M  V30 2926 N 269.014 -1.53014 -0.377408 0
M  V30 2927 C 270.242 -1.72515 -1.14219 0
M  V30 2928 C 270.657 -0.448735 -1.8339 0
M  V30 2929 O 270.014 0.577592 -1.73119 0
M  V30 2930 C 270.065 -2.8826 -2.18148 0
M  V30 2931 O 269.786 -4.10962 -1.51795 0
M  V30 2932 C 271.287 -3.19536 -3.07264 0
M  V30 2933 H 268.507 -0.577301 -0.342001 0
M  V30 2934 H 271.051 -1.99712 -0.439935 0
M  V30 2935 H 269.206 -2.63492 -2.83991 0
M  V30 2936 H 269.62 -4.75693 -2.20945 0
M  V30 2937 H 271.094 -4.03959 -3.76193 0
M  V30 2938 H 271.571 -2.34403 -3.71419 0
M  V30 2939 H 272.177 -3.46186 -2.47053 0
M  V30 2940 N 270.492 0.636531 -1.44174 0
M  V30 2941 C 271.422 1.76003 -1.53444 0
M  V30 2942 C 272.403 1.65619 -0.387841 0
M  V30 2943 O 273.588 1.84461 -0.607257 0
M  V30 2944 C 270.718 3.14511 -1.4731 0
M  V30 2945 C 269.672 3.39677 -2.60391 0
M  V30 2946 C 268.998 4.78159 -2.39308 0
M  V30 2947 C 270.298 3.32772 -4.02567 0
M  V30 2948 H 271.992 1.68501 -2.47483 0
M  V30 2949 H 269.538 0.809237 -1.19111 0
M  V30 2950 H 271.491 3.92878 -1.52397 0
M  V30 2951 H 270.215 3.22783 -0.49785 0
M  V30 2952 H 268.874 2.63688 -2.54684 0
M  V30 2953 H 268.522 4.83128 -1.39988 0
M  V30 2954 H 268.222 4.95956 -3.15122 0
M  V30 2955 H 269.746 5.58762 -2.46205 0
M  V30 2956 H 271.16 4.01051 -4.09672 0
M  V30 2957 H 269.557 3.62104 -4.7854 0
M  V30 2958 H 270.627 2.30669 -4.2652 0
M  V30 2959 N 271.97 1.30982 0.876444 0
M  V30 2960 C 272.88 1.2003 2.01569 0
M  V30 2961 C 273.896 0.11838 1.73597 0
M  V30 2962 O 275.072 0.33495 1.98595 0
M  V30 2963 C 272.137 0.901637 3.34771 0
M  V30 2964 C 271.198 2.06979 3.76109 0
M  V30 2965 C 270.431 1.78529 5.02954 0
M  V30 2966 O 270.654 0.717296 5.65872 0
M  V30 2967 O 269.588 2.64019 5.40905 0
M  V30 2968 H 273.414 2.15753 2.13739 0
M  V30 2969 H 270.999 1.10658 1.00375 0
M  V30 2970 H 272.881 0.750645 4.1466 0
M  V30 2971 H 271.556 -0.0256141 3.2369 0
M  V30 2972 H 270.463 2.27616 2.96887 0
M  V30 2973 H 271.796 2.97907 3.91807 0
M  V30 2974 N 273.449 -1.08991 1.13837 0
M  V30 2975 C 274.381 -2.15606 0.777612 0
M  V30 2976 C 275.394 -1.61533 -0.202739 0
M  V30 2977 O 276.583 -1.78491 0.0181055 0
M  V30 2978 C 273.683 -3.3864 0.132623 0
M  V30 2979 C 272.856 -4.22115 1.1462 0
M  V30 2980 C 271.915 -5.23564 0.526074 0
M  V30 2981 O 270.941 -5.56678 1.18735 0
M  V30 2982 N 272.143 -5.76266 -0.699866 0
M  V30 2983 H 274.908 -2.47159 1.69506 0
M  V30 2984 H 272.469 -1.24747 1.03198 0
M  V30 2985 H 274.461 -4.03626 -0.29459 0
M  V30 2986 H 273.031 -3.04938 -0.687849 0
M  V30 2987 H 272.251 -3.53199 1.75055 0
M  V30 2988 H 273.539 -4.74709 1.83109 0
M  V30 2989 H 272.937 -5.51585 -1.25581 0
M  V30 2990 H 271.494 -6.42963 -1.06968 0
M  V30 2991 N 274.927 -0.932562 -1.27047 0
M  V30 2992 C 276.173 -0.576412 -1.94436 0
M  V30 2993 C 276.506 0.880891 -1.73072 0
M  V30 2994 O 275.781 1.62905 -1.06264 0
M  V30 2995 C 276.064 -0.909031 -3.48437 0
M  V30 2996 C 275.917 -2.42044 -3.79123 0
M  V30 2997 C 277.236 -0.418341 -4.38107 0
M  V30 2998 H 274.355 -0.210888 -0.706184 0
M  V30 2999 H 276.997 -1.16522 -1.50075 0
M  V30 3000 H 275.147 -0.407947 -3.86352 0
M  V30 3001 H 276.819 -2.99359 -3.50973 0
M  V30 3002 H 275.062 -2.86758 -3.25503 0
M  V30 3003 H 275.733 -2.6037 -4.86736 0
M  V30 3004 H 278.209 -0.847856 -4.0737 0
M  V30 3005 H 277.085 -0.679981 -5.44672 0
M  V30 3006 H 277.346 0.681642 -4.36814 0
M  V30 3007 N 276.405 1.4127 -0.698611 0
M  V30 3008 C 277.635 2.05205 -0.239644 0
M  V30 3009 C 278.043 1.52684 1.11733 0
M  V30 3010 O 277.386 0.671222 1.70998 0
M  V30 3011 C 277.448 3.59289 -0.123126 0
M  V30 3012 C 277.112 4.34619 -1.41263 0
M  V30 3013 C 278.109 4.63701 -2.35111 0
M  V30 3014 C 275.794 4.73837 -1.66684 0
M  V30 3015 C 277.788 5.30966 -3.52639 0
M  V30 3016 C 275.475 5.40837 -2.84498 0
M  V30 3017 C 276.473 5.69329 -3.77298 0
M  V30 3018 O 276.161 6.34949 -4.93047 0
M  V30 3019 H 275.893 0.66723 -0.108537 0
M  V30 3020 H 278.447 1.81974 -0.952602 0
M  V30 3021 H 276.677 3.81272 0.645628 0
M  V30 3022 H 278.366 4.04797 0.299056 0
M  V30 3023 H 279.132 4.33882 -2.16729 0
M  V30 3024 H 275.011 4.51039 -0.953135 0
M  V30 3025 H 278.555 5.53121 -4.25091 0
M  V30 3026 H 274.452 5.70075 -3.02795 0
M  V30 3027 H 275.22 6.53445 -4.92902 0
M  V30 3028 N 277.883 0.443576 1.51229 0
M  V30 3029 C 279.13 -0.120796 2.02139 0
M  V30 3030 C 279.458 -1.42166 1.32736 0
M  V30 3031 O 278.713 -1.90849 0.43301 0
M  V30 3032 C 279.012 -0.380579 3.55368 0
M  V30 3033 C 278.678 0.83523 4.43097 0
M  V30 3034 C 277.34 1.16864 4.66794 0
M  V30 3035 C 279.692 1.64601 4.94526 0
M  V30 3036 C 277.02 2.31339 5.39165 0
M  V30 3037 C 279.372 2.78181 5.68153 0
M  V30 3038 C 278.036 3.11969 5.90112 0
M  V30 3039 H 277.306 -0.0442023 0.73968 0
M  V30 3040 H 279.953 0.592046 1.82118 0
M  V30 3041 H 278.258 -1.17538 3.73754 0
M  V30 3042 H 279.955 -0.830777 3.923 0
M  V30 3043 H 276.545 0.565437 4.24854 0
M  V30 3044 H 280.729 1.40163 4.76097 0
M  V30 3045 H 275.985 2.57823 5.5438 0
M  V30 3046 H 280.159 3.41371 6.06992 0
M  V30 3047 H 277.786 4.00784 6.45969 0
M  V30 3048 N 279.361 -1.56624 0.175154 0
M  V30 3049 C 280.609 -1.96609 -0.467885 0
M  V30 3050 C 280.93 -1.06238 -1.63519 0
M  V30 3051 O 280.2 -0.129523 -1.95471 0
M  V30 3052 H 278.78 -0.726008 -0.175845 0
M  V30 3053 H 281.442 -1.93195 0.257234 0
M  V30 3054 H 280.538 -3.00989 -0.825342 0
M  V30 3055 N 280.839 0.0985539 -1.57292 0
M  V30 3056 C 282.067 0.816318 -1.90115 0
M  V30 3057 C 282.482 1.72451 -0.768509 0
M  V30 3058 O 281.839 1.80643 0.259687 0
M  V30 3059 C 281.89 1.63259 -3.22535 0
M  V30 3060 O 281.611 0.760934 -4.31441 0
M  V30 3061 C 283.112 2.45372 -3.69199 0
M  V30 3062 H 280.332 0.233595 -0.629027 0
M  V30 3063 H 282.876 0.0768229 -2.04356 0
M  V30 3064 H 281.031 2.32463 -3.09903 0
M  V30 3065 H 281.445 1.32595 -5.07463 0
M  V30 3066 H 282.919 2.98144 -4.64558 0
M  V30 3067 H 283.396 3.23677 -2.96867 0
M  V30 3068 H 284.002 1.81373 -3.84687 0
M  V30 3069 N 282.317 1.53212 0.369288 0
M  V30 3070 C 283.542 1.73423 1.1375 0
M  V30 3071 C 283.967 0.460404 1.82378 0
M  V30 3072 O 283.325 -0.585298 1.71592 0
M  V30 3073 C 283.373 2.89769 2.1463 0
M  V30 3074 O 282.477 2.58119 3.21634 0
M  V30 3075 H 281.818 0.576061 0.330227 0
M  V30 3076 H 284.348 2.00083 0.427547 0
M  V30 3077 H 284.358 3.15829 2.58294 0
M  V30 3078 H 283.033 3.8217 1.64071 0
M  V30 3079 H 281.61 2.42864 2.82969 0
M  V30 3080 N 283.795 -0.628877 1.44509 0
M  V30 3081 C 284.745 -1.7345 1.47983 0
M  V30 3082 C 285.729 -1.5715 0.345373 0
M  V30 3083 O 286.921 -1.66848 0.590829 0
M  V30 3084 C 284.05 -3.12143 1.42904 0
M  V30 3085 C 283.136 -3.33906 2.61472 0
M  V30 3086 N 283.527 -3.26024 3.86706 0
M  V30 3087 C 281.825 -3.64709 2.56716 0
M  V30 3088 C 282.526 -3.48536 4.65722 0
M  V30 3089 N 281.502 -3.71517 3.96832 0
M  V30 3090 H 285.304 -1.65818 2.42655 0
M  V30 3091 H 282.818 -0.831419 1.39503 0
M  V30 3092 H 284.815 -3.91433 1.43476 0
M  V30 3093 H 283.475 -3.2094 0.492717 0
M  V30 3094 H 284.486 -3.04893 4.18641 0
M  V30 3095 H 281.163 -3.80473 1.71891 0
M  V30 3096 H 282.553 -3.48016 5.74747 0
M  V30 3097 N 285.273 -1.31445 -0.869486 0
M  V30 3098 C 286.684 -1.19042 -1.43826 0
M  V30 3099 C 287.035 0.202919 -1.95148 0
M  V30 3100 O 286.16 1.10071 -1.86315 0
M  V30 3101 C 286.755 -2.15499 -2.6143 0
M  V30 3102 C 285.314 -2.07028 -3.14351 0
M  V30 3103 C 284.461 -2.04701 -1.87063 0
M  V30 3104 H 287.412 -1.43489 -0.677984 0
M  V30 3105 H 287.433 -1.74488 -3.38134 0
M  V30 3106 H 286.945 -3.16899 -2.24046 0
M  V30 3107 H 285.046 -1.08825 -3.56354 0
M  V30 3108 H 285.159 -2.96157 -3.766 0
M  V30 3109 H 283.523 -1.49724 -2.06046 0
M  V30 3110 H 284.306 -3.07857 -1.51917 0
M  V30 3111 N 286.751 1.08385 -1.14413 0
M  V30 3112 C 288.167 1.32844 -0.884563 0
M  V30 3113 C 288.367 1.95841 0.474181 0
M  V30 3114 O 287.423 2.21158 1.21842 0
M  V30 3115 C 288.736 2.22978 -2.01745 0
M  V30 3116 C 290.284 2.36458 -2.05077 0
M  V30 3117 C 290.759 3.29934 -3.1766 0
M  V30 3118 N 292.25 3.37511 -3.17239 0
M  V30 3119 C 292.985 4.09871 -4.0099 0
M  V30 3120 N 292.481 4.84936 -4.94781 0
M  V30 3121 N 294.274 4.05704 -3.89051 0
M  V30 3122 H 286.425 0.658756 -2.01926 0
M  V30 3123 H 288.688 0.352821 -0.879899 0
M  V30 3124 H 288.394 1.83934 -2.99769 0
M  V30 3125 H 288.268 3.23441 -1.94077 0
M  V30 3126 H 290.655 2.7476 -1.0766 0
M  V30 3127 H 290.736 1.35736 -2.16816 0
M  V30 3128 H 290.38 2.92352 -4.15322 0
M  V30 3129 H 290.31 4.30584 -3.03158 0
M  V30 3130 H 292.801 2.83996 -2.49308 0
M  V30 3131 H 293.114 5.37612 -5.55151 0
M  V30 3132 H 291.459 4.83988 -4.98779 0
M  V30 3133 H 294.65 3.46167 -3.15097 0
M  V30 3134 H 294.823 4.61834 -4.54547 0
M  V30 3135 N 288.23 0.939286 1.26551 0
M  V30 3136 C 289.46 0.601663 1.97645 0
M  V30 3137 C 289.868 -0.827206 1.70159 0
M  V30 3138 O 289.211 -1.56291 0.965338 0
M  V30 3139 C 289.273 0.761725 3.51337 0
M  V30 3140 C 288.937 2.16487 4.0247 0
M  V30 3141 C 289.934 3.14016 4.14355 0
M  V30 3142 C 287.619 2.48494 4.36527 0
M  V30 3143 C 289.613 4.41654 4.59587 0
M  V30 3144 C 287.3 3.76364 4.81449 0
M  V30 3145 C 288.298 4.72758 4.92939 0
M  V30 3146 O 287.986 5.98352 5.36871 0
M  V30 3147 H 287.718 0.225758 0.637189 0
M  V30 3148 H 290.272 1.26178 1.62075 0
M  V30 3149 H 288.502 0.0444808 3.86674 0
M  V30 3150 H 290.191 0.427442 4.03643 0
M  V30 3151 H 290.957 2.90613 3.8829 0
M  V30 3152 H 286.836 1.74202 4.26819 0
M  V30 3153 H 290.38 5.16896 4.68471 0
M  V30 3154 H 286.277 3.99582 5.06956 0
M  V30 3155 H 287.045 6.01507 5.55096 0
M  V30 3156 N 289.708 -1.40897 0.706093 0
M  V30 3157 C 290.938 -2.05075 0.250523 0
M  V30 3158 C 291.346 -1.53275 -1.10921 0
M  V30 3159 O 290.689 -0.680281 -1.7064 0
M  V30 3160 C 290.751 -3.59219 0.142178 0
M  V30 3161 C 290.415 -4.33864 1.43566 0
M  V30 3162 C 291.412 -4.62448 2.37566 0
M  V30 3163 C 289.097 -4.72946 1.69195 0
M  V30 3164 C 291.091 -5.29088 3.5545 0
M  V30 3165 C 288.778 -5.3932 2.87362 0
M  V30 3166 C 289.776 -5.6732 3.80312 0
M  V30 3167 O 289.464 -6.32325 4.96408 0
M  V30 3168 H 289.196 -0.666645 0.112074 0
M  V30 3169 H 291.75 -1.81467 0.962239 0
M  V30 3170 H 289.98 -3.81609 -0.6254 0
M  V30 3171 H 291.669 -4.0495 -0.277584 0
M  V30 3172 H 292.435 -4.32727 2.19027 0
M  V30 3173 H 288.314 -4.50527 0.977042 0
M  V30 3174 H 291.858 -5.50859 4.28018 0
M  V30 3175 H 287.755 -5.68461 3.05814 0
M  V30 3176 H 288.523 -6.50821 4.9636 0
M  V30 3177 N 291.186 -0.45159 -1.50991 0
M  V30 3178 C 292.435 0.111653 -2.01391 0
M  V30 3179 C 292.748 1.42529 -1.33959 0
M  V30 3180 O 293.954 2.07232 -1.75405 0
M  V30 3181 C 292.41 0.249514 -3.59034 0
M  V30 3182 C 292.018 -1.05453 -4.35412 0
M  V30 3183 C 293.762 0.765762 -4.17536 0
M  V30 3184 C 291.669 -0.881529 -5.84793 0
M  V30 3185 H 290.599 0.0455022 -0.752626 0
M  V30 3186 H 293.25 -0.583524 -1.73975 0
M  V30 3187 H 291.632 1.00803 -3.82955 0
M  V30 3188 H 292.806 -1.82248 -4.23229 0
M  V30 3189 H 291.121 -1.50039 -3.88429 0
M  V30 3190 H 293.718 0.911913 -5.26866 0
M  V30 3191 H 294.061 1.75201 -3.77638 0
M  V30 3192 H 294.594 0.0651744 -3.97747 0
M  V30 3193 H 291.333 -1.84057 -6.29129 0
M  V30 3194 H 290.853 -0.153625 -5.99603 0
M  V30 3195 H 292.532 -0.540363 -6.4474 0
M  V30 3196 N 292.664 1.56529 -0.183458 0
M  V30 3197 C 293.889 2.02064 0.467428 0
M  V30 3198 C 294.314 1.06282 1.55196 0
M  V30 3199 O 293.672 0.0443565 1.81246 0
M  V30 3200 C 293.72 3.46122 1.01153 0
M  V30 3201 O 292.824 3.53437 2.12499 0
M  V30 3202 H 292.165 0.654726 0.110588 0
M  V30 3203 H 294.695 2.02521 -0.290917 0
M  V30 3204 H 294.705 3.85676 1.33108 0
M  V30 3205 H 293.38 4.15331 0.217533 0
M  V30 3206 H 291.957 3.2575 1.81497 0
M  V30 3207 N 294.142 -0.090211 1.57342 0
M  V30 3208 C 295.105 -1.09335 2.01441 0
M  V30 3209 C 296.105 -1.32666 0.908641 0
M  V30 3210 O 297.295 -1.28697 1.174 0
M  V30 3211 C 294.427 -2.44136 2.3793 0
M  V30 3212 H 295.62 -0.713662 2.91285 0
M  V30 3213 H 293.173 -0.335404 1.52659 0
M  V30 3214 H 293.908 -2.86972 1.51055 0
M  V30 3215 H 293.693 -2.28548 3.18603 0
M  V30 3216 H 295.183 -3.16277 2.72688 0
M  V30 3217 N 295.62 -1.53406 -0.361157 0
M  V30 3218 C 296.568 -1.80832 -1.46296 0
M  V30 3219 C 297.562 -0.677699 -1.55253 0
M  V30 3220 O 298.768 -0.860723 -1.58087 0
M  V30 3221 H 295.143 -0.572627 -0.487445 0
M  V30 3222 H 297.114 -2.73045 -1.20371 0
M  V30 3223 C 295.863 -2.01907 -2.8307 0
M  V30 3224 H 295.186 -2.88349 -2.76938 0
M  V30 3225 H 296.626 -2.25072 -3.59331 0
M  V30 3226 C 295.085 -0.799449 -3.27277 0
M  V30 3227 O 295.615 0.00971761 -4.01699 0
M  V30 3228 N 293.821 -0.621637 -2.83873 0
M  V30 3229 H 293.368 -1.28126 -2.23476 0
M  V30 3230 H 293.326 0.19298 -3.13807 0
M  V30 3231 N 297.098 0.621204 -1.44841 0
M  V30 3232 C 298.344 1.3826 -1.48365 0
M  V30 3233 C 298.677 1.93831 -0.119624 0
M  V30 3234 O 297.952 1.74251 0.864111 0
M  V30 3235 C 298.235 2.54058 -2.55199 0
M  V30 3236 C 298.088 2.03772 -4.00995 0
M  V30 3237 C 299.407 3.56225 -2.58442 0
M  V30 3238 H 296.526 0.501374 -0.540179 0
M  V30 3239 H 299.168 0.7015 -1.76576 0
M  V30 3240 H 297.318 3.12162 -2.31274 0
M  V30 3241 H 298.99 1.50423 -4.36086 0
M  V30 3242 H 297.233 1.34876 -4.12299 0
M  V30 3243 H 297.904 2.87185 -4.71411 0
M  V30 3244 H 300.38 3.07939 -2.79844 0
M  V30 3245 H 299.256 4.34756 -3.3508 0
M  V30 3246 H 299.517 4.10949 -1.63013 0
M  V30 3247 N 298.576 1.31904 0.862503 0
M  V30 3248 C 299.804 1.24998 1.64873 0
M  V30 3249 C 300.219 -0.183425 1.87907 0
M  V30 3250 O 299.576 -1.11794 1.44251 0
M  V30 3251 C 299.627 1.99829 3.01248 0
M  V30 3252 O 299.348 3.37575 2.79239 0
M  V30 3253 C 300.849 1.99852 3.95694 0
M  V30 3254 H 298.069 0.431599 0.513773 0
M  V30 3255 H 300.613 1.73901 1.07604 0
M  V30 3256 H 298.768 1.54668 3.55185 0
M  V30 3257 H 299.182 3.75776 3.65914 0
M  V30 3258 H 300.656 2.56709 4.88676 0
M  V30 3259 H 301.133 0.982852 4.28062 0
M  V30 3260 H 301.739 2.44926 3.47694 0
M  V30 3261 N 300.054 -1.07777 1.14986 0
M  V30 3262 C 301.302 -1.79934 0.920235 0
M  V30 3263 C 301.623 -1.86955 -0.554336 0
M  V30 3264 O 300.893 -1.36731 -1.40291 0
M  V30 3265 H 299.473 -0.666424 0.337473 0
M  V30 3266 H 302.135 -1.3027 1.44968 0
M  V30 3267 H 301.231 -2.82539 1.32583 0
M  V30 3268 N 301.532 -0.945985 -1.26051 0
M  V30 3269 C 302.779 -0.596118 -1.93527 0
M  V30 3270 C 303.107 0.865559 -1.74179 0
M  V30 3271 O 302.362 1.63524 -1.0751 0
M  V30 3272 C 302.661 -0.890475 -3.46129 0
M  V30 3273 C 302.327 -2.3368 -3.85622 0
M  V30 3274 C 300.989 -2.73216 -3.96114 0
M  V30 3275 C 303.341 -3.27648 -4.05334 0
M  V30 3276 C 300.669 -4.05806 -4.2372 0
M  V30 3277 C 303.021 -4.59841 -4.3443 0
M  V30 3278 C 301.685 -4.99185 -4.43137 0
M  V30 3279 H 300.955 -0.218135 -0.708165 0
M  V30 3280 H 303.602 -1.1934 -1.49768 0
M  V30 3281 H 301.907 -0.210711 -3.91233 0
M  V30 3282 H 303.604 -0.598478 -3.96509 0
M  V30 3283 H 300.194 -2.02015 -3.78005 0
M  V30 3284 H 304.378 -2.98298 -3.96651 0
M  V30 3285 H 299.634 -4.35945 -4.28675 0
M  V30 3286 H 303.808 -5.32641 -4.48628 0
M  V30 3287 H 301.435 -6.01952 -4.64282 0
M  V30 3288 N 303.011 1.40521 -0.713556 0
M  V30 3289 C 303.958 2.30723 -0.059684 0
M  V30 3290 C 304.928 1.48079 0.752448 0
M  V30 3291 O 306.113 1.76823 0.71681 0
M  V30 3292 C 303.253 3.34274 0.857594 0
M  V30 3293 C 302.366 4.31986 0.0351536 0
M  V30 3294 C 301.501 5.22605 0.951724 0
M  V30 3295 C 300.54 6.11976 0.123253 0
M  V30 3296 N 299.677 6.9502 0.99459 0
M  V30 3297 H 304.517 2.86074 -0.834596 0
M  V30 3298 H 302.054 1.40879 -0.42326 0
M  V30 3299 H 304.012 3.92879 1.40364 0
M  V30 3300 H 302.642 2.8043 1.59871 0
M  V30 3301 H 301.694 3.7518 -0.628052 0
M  V30 3302 H 303.006 4.95101 -0.606347 0
M  V30 3303 H 302.16 5.86131 1.56638 0
M  V30 3304 H 300.899 4.59759 1.62705 0
M  V30 3305 H 299.904 5.47482 -0.50435 0
M  V30 3306 H 301.129 6.76881 -0.548539 0
M  V30 3307 H 299.075 6.34764 1.6556 0
M  V30 3308 H 298.992 7.54892 0.40908 0
M  V30 3309 H 300.26 7.62997 1.59549 0
M  V30 3310 N 304.489 0.459591 1.5075 0
M  V30 3311 C 305.729 -0.09824 2.04164 0
M  V30 3312 C 306.093 -1.3801 1.33481 0
M  V30 3313 O 307.294 -2.01959 1.77387 0
M  V30 3314 C 305.565 -0.289467 3.56226 0
M  V30 3315 S 307.124 -0.807507 4.31306 0
M  V30 3316 H 303.942 -0.0213845 0.710678 0
M  V30 3317 H 306.544 0.624098 1.85271 0
M  V30 3318 H 305.248 0.649461 4.05229 0
M  V30 3319 H 304.779 -1.03825 3.79452 0
M  V30 3320 H 306.794 -2.0824 4.50389 0
M  V30 3321 N 305.967 -1.56429 0.191757 0
M  V30 3322 C 307.213 -1.97777 -0.448554 0
M  V30 3323 C 307.546 -1.07847 -1.61501 0
M  V30 3324 O 306.821 -0.129774 -1.94067 0
M  V30 3325 C 307.104 -3.48362 -0.911906 0
M  V30 3326 C 306.957 -4.4907 0.256136 0
M  V30 3327 C 308.276 -4.02561 -1.77857 0
M  V30 3328 H 305.395 -0.719071 -0.161572 0
M  V30 3329 H 308.037 -1.87896 0.282007 0
M  V30 3330 H 306.187 -3.56914 -1.53442 0
M  V30 3331 H 307.859 -4.5256 0.893733 0
M  V30 3332 H 306.102 -4.24181 0.908436 0
M  V30 3333 H 306.773 -5.51889 -0.11053 0
M  V30 3334 H 309.249 -3.96767 -1.25359 0
M  V30 3335 H 308.125 -5.08301 -2.07174 0
M  V30 3336 H 308.386 -3.47616 -2.73158 0
M  V30 3337 N 307.445 0.0818655 -1.57387 0
M  V30 3338 C 308.673 0.796108 -1.9097 0
M  V30 3339 C 309.088 1.71626 -0.786757 0
M  V30 3340 O 308.445 1.80908 0.240513 0
M  V30 3341 C 308.496 1.59829 -3.24248 0
M  V30 3342 O 308.217 0.715131 -4.32224 0
M  V30 3343 C 309.718 2.41442 -3.7178 0
M  V30 3344 H 306.938 0.22691 -0.631469 0
M  V30 3345 H 309.482 0.0551439 -2.04426 0
M  V30 3346 H 307.637 2.29163 -3.12351 0
M  V30 3347 H 308.051 1.27205 -5.08841 0
M  V30 3348 H 309.525 2.932 -4.67694 0
M  V30 3349 H 310.002 3.2051 -3.00283 0
M  V30 3350 H 310.608 1.77283 -3.86589 0
M  V30 3351 N 308.923 1.53595 0.353017 0
M  V30 3352 C 310.171 1.70049 1.09215 0
M  V30 3353 C 310.492 0.461406 1.89463 0
M  V30 3354 O 309.762 -0.524633 1.88744 0
M  V30 3355 H 308.342 0.626912 0.40619 0
M  V30 3356 H 311.004 1.90822 0.396585 0
M  V30 3357 H 310.1 2.56718 1.77488 0
M  V30 3358 N 310.401 -0.613514 1.45168 0
M  V30 3359 C 311.334 -1.73809 1.47871 0
M  V30 3360 C 312.312 -1.59097 0.33568 0
M  V30 3361 O 313.496 -1.8074 0.535299 0
M  V30 3362 C 310.623 -3.11574 1.32813 0
M  V30 3363 C 309.669 -3.4489 2.50905 0
M  V30 3364 S 310.502 -3.40393 4.13392 0
M  V30 3365 C 311.658 -4.80749 4.00789 0
M  V30 3366 H 311.891 -1.71252 2.43023 0
M  V30 3367 H 309.424 -0.789658 1.32679 0
M  V30 3368 H 311.382 -3.91065 1.24812 0
M  V30 3369 H 310.043 -3.11652 0.391418 0
M  V30 3370 H 309.236 -4.45183 2.36279 0
M  V30 3371 H 308.838 -2.72901 2.55736 0
M  V30 3372 H 311.13 -5.7041 3.65567 0
M  V30 3373 H 312.073 -5.00431 5.00974 0
M  V30 3374 H 312.481 -4.56151 3.32545 0
M  V30 3375 N 311.879 -1.3236 -0.855495 0
M  V30 3376 C 313.104 -1.2601 -1.64731 0
M  V30 3377 C 313.529 0.169068 -1.87339 0
M  V30 3378 O 312.887 1.12016 -1.42556 0
M  V30 3379 C 312.935 -2.02417 -2.98429 0
M  V30 3380 O 312.039 -1.3714 -3.8893 0
M  V30 3381 H 311.38 -0.434325 -0.502253 0
M  V30 3382 H 313.91 -1.74661 -1.06558 0
M  V30 3383 H 313.92 -2.12559 -3.48257 0
M  V30 3384 H 312.595 -3.06343 -2.81295 0
M  V30 3385 H 311.172 -1.3554 -3.47395 0
M  V30 3386 N 313.357 1.07166 -1.15556 0
M  V30 3387 C 314.597 1.81391 -0.94216 0
M  V30 3388 C 314.961 1.84788 0.521272 0
M  V30 3389 O 316.162 2.54904 0.85307 0
M  V30 3390 C 314.433 3.22431 -1.54185 0
M  V30 3391 S 315.992 4.13379 -1.47183 0
M  V30 3392 H 312.81 0.624963 -0.339031 0
M  V30 3393 H 315.412 1.28725 -1.4714 0
M  V30 3394 H 314.116 3.17548 -2.59984 0
M  V30 3395 H 313.647 3.80172 -1.01156 0
M  V30 3396 H 315.662 4.94007 -0.466004 0
M  V30 3397 N 314.835 0.952656 1.25548 0
M  V30 3398 C 315.765 0.489287 2.28316 0
M  V30 3399 C 316.746 -0.463359 1.63667 0
M  V30 3400 O 317.931 -0.36274 1.90782 0
M  V30 3401 C 315.061 -0.235603 3.465 0
M  V30 3402 C 314.015 0.631593 4.23314 0
M  V30 3403 C 313.341 -0.223923 5.34231 0
M  V30 3404 C 314.641 1.90871 4.86174 0
M  V30 3405 H 316.335 1.34822 2.67326 0
M  V30 3406 H 313.881 0.649728 1.28509 0
M  V30 3407 H 315.834 -0.570882 4.17515 0
M  V30 3408 H 314.558 -1.12877 3.06474 0
M  V30 3409 H 313.217 0.949929 3.54079 0
M  V30 3410 H 312.865 -1.11678 4.90446 0
M  V30 3411 H 312.565 0.35299 5.86539 0
M  V30 3412 H 314.089 -0.554214 6.0808 0
M  V30 3413 H 315.503 1.63997 5.49343 0
M  V30 3414 H 313.9 2.43112 5.4865 0
M  V30 3415 H 314.97 2.61304 4.08471 0
M  V30 3416 N 316.313 -1.40141 0.720998 0
M  V30 3417 C 317.246 -2.2819 0.020916 0
M  V30 3418 C 318.224 -1.43633 -0.762129 0
M  V30 3419 O 319.408 -1.7304 -0.747633 0
M  V30 3420 C 316.535 -3.24281 -0.977715 0
M  V30 3421 C 315.581 -4.25548 -0.284836 0
M  V30 3422 S 316.414 -5.26247 0.991169 0
M  V30 3423 C 317.57 -6.259 -0.0052214 0
M  V30 3424 H 317.803 -2.87218 0.767649 0
M  V30 3425 H 315.336 -1.45656 0.512233 0
M  V30 3426 H 317.294 -3.80167 -1.54865 0
M  V30 3427 H 315.955 -2.643 -1.69719 0
M  V30 3428 H 315.148 -4.93154 -1.03996 0
M  V30 3429 H 314.75 -3.73389 0.213684 0
M  V30 3430 H 317.042 -6.72143 -0.850279 0
M  V30 3431 H 317.985 -7.05224 0.637599 0
M  V30 3432 H 318.393 -5.63277 -0.371366 0
M  V30 3433 N 317.792 -0.46758 -1.50504 0
M  V30 3434 C 319.208 -0.121533 -1.59137 0
M  V30 3435 C 319.408 1.3717 -1.47603 0
M  V30 3436 O 318.464 2.14464 -1.33272 0
M  V30 3437 C 319.777 -0.6686 -2.93173 0
M  V30 3438 C 321.325 -0.631716 -3.06559 0
M  V30 3439 C 321.8 -1.15627 -4.43164 0
M  V30 3440 N 323.291 -1.11553 -4.49567 0
M  V30 3441 C 324.026 -1.49195 -5.5365 0
M  V30 3442 N 323.522 -1.94269 -6.65005 0
M  V30 3443 N 325.315 -1.4082 -5.44175 0
M  V30 3444 H 317.466 -1.4388 -1.56245 0
M  V30 3445 H 319.729 -0.594784 -0.738198 0
M  V30 3446 H 319.435 -1.71453 -3.07078 0
M  V30 3447 H 319.309 -0.11021 -3.77039 0
M  V30 3448 H 321.696 0.405297 -2.92304 0
M  V30 3449 H 321.777 -1.22687 -2.24458 0
M  V30 3450 H 321.421 -2.1919 -4.58168 0
M  V30 3451 H 321.351 -0.537365 -5.23851 0
M  V30 3452 H 323.842 -0.784895 -3.69659 0
M  V30 3453 H 324.155 -2.21148 -7.40482 0
M  V30 3454 H 322.5 -1.98219 -6.66134 0
M  V30 3455 H 325.691 -1.0545 -4.56068 0
M  V30 3456 H 325.864 -1.70481 -6.25172 0
M  V30 3457 N 319.27 1.56325 -0.20005 0
M  V30 3458 C 320.217 2.1932 0.718833 0
M  V30 3459 C 321.187 1.14198 1.20615 0
M  V30 3460 O 322.372 1.42469 1.26914 0
M  V30 3461 C 319.512 2.86041 1.93066 0
M  V30 3462 C 318.625 4.05702 1.48425 0
M  V30 3463 C 317.76 4.60266 2.65196 0
M  V30 3464 C 316.799 5.72273 2.17185 0
M  V30 3465 N 315.936 6.21221 3.27152 0
M  V30 3466 H 320.776 2.97486 0.17489 0
M  V30 3467 H 318.313 1.46911 0.0745794 0
M  V30 3468 H 320.271 3.22897 2.64184 0
M  V30 3469 H 318.901 2.1043 2.44783 0
M  V30 3470 H 317.953 3.74475 0.668755 0
M  V30 3471 H 319.265 4.86699 1.09204 0
M  V30 3472 H 318.419 4.99453 3.4443 0
M  V30 3473 H 317.158 3.78386 3.07693 0
M  V30 3474 H 316.163 5.3261 1.36407 0
M  V30 3475 H 317.388 6.55974 1.75713 0
M  V30 3476 H 315.334 5.42263 3.69171 0
M  V30 3477 H 315.251 6.97284 2.92116 0
M  V30 3478 H 316.519 6.65063 4.06585 0
M  V30 3479 N 320.748 -0.0735177 1.57428 0
M  V30 3480 C 322.025 -0.805903 1.78226 0
M  V30 3481 C 322.405 -1.95874 0.787189 0
M  V30 3482 O 321.753 -2.2779 -0.180029 0
M  V30 3483 C 321.963 -1.28045 3.24662 0
M  V30 3484 C 323.311 -1.71453 3.88444 0
M  V30 3485 O 324.335 -1.37616 3.28543 0
M  V30 3486 O 323.194 -2.34093 4.93825 0
M  V30 3487 H 320.288 -0.386041 0.73137 0
M  V30 3488 H 322.834 -0.0537269 1.69615 0
M  V30 3489 H 321.606 -0.455476 3.8864 0
M  V30 3490 H 321.229 -2.094 3.37991 0
M  V30 3491 N 322.226 -1.5378 -0.344866 0
M  V30 3492 C 323.472 -1.71216 -1.08687 0
M  V30 3493 C 323.805 -0.473281 -1.88345 0
M  V30 3494 O 323.08 0.52968 -1.87149 0
M  V30 3495 C 323.363 -2.97486 -2.02914 0
M  V30 3496 C 323.216 -4.31579 -1.26727 0
M  V30 3497 C 324.535 -3.19422 -3.0275 0
M  V30 3498 H 321.654 -0.62301 -0.393735 0
M  V30 3499 H 324.296 -1.8645 -0.365563 0
M  V30 3500 H 322.446 -2.84629 -2.64421 0
M  V30 3501 H 324.118 -4.56284 -0.67845 0
M  V30 3502 H 322.361 -4.30049 -0.569273 0
M  V30 3503 H 323.032 -5.16106 -1.95803 0
M  V30 3504 H 325.508 -3.316 -2.51357 0
M  V30 3505 H 324.384 -4.09169 -3.65885 0
M  V30 3506 H 324.645 -2.35656 -3.74057 0
M  V30 3507 N 323.704 0.605807 -1.45491 0
M  V30 3508 C 324.634 1.72709 -1.57143 0
M  V30 3509 C 325.615 1.6476 -0.422884 0
M  V30 3510 O 326.8 1.83132 -0.646247 0
M  V30 3511 C 323.93 3.11316 -1.53948 0
M  V30 3512 C 322.884 3.34077 -2.67537 0
M  V30 3513 C 322.21 4.72975 -2.49397 0
M  V30 3514 C 323.51 3.24158 -4.09535 0
M  V30 3515 H 325.204 1.63214 -2.51001 0
M  V30 3516 H 322.75 0.78379 -1.208 0
M  V30 3517 H 324.703 3.89557 -1.60696 0
M  V30 3518 H 323.427 3.21655 -0.566205 0
M  V30 3519 H 322.086 2.58227 -2.6022 0
M  V30 3520 H 321.734 4.8005 -1.50205 0
M  V30 3521 H 321.434 4.8916 -3.25571 0
M  V30 3522 H 322.958 5.53414 -2.58002 0
M  V30 3523 H 324.372 3.92271 -4.18086 0
M  V30 3524 H 322.769 3.51872 -4.86113 0
M  V30 3525 H 323.839 2.2157 -4.31317 0
M  V30 3526 N 325.182 1.32811 0.848464 0
M  V30 3527 C 326.459 1.14334 1.58704 0
M  V30 3528 C 326.839 -0.293948 2.09043 0
M  V30 3529 O 326.187 -1.29153 1.88499 0
M  V30 3530 C 326.397 2.17626 2.72837 0
M  V30 3531 C 327.745 2.51282 3.42261 0
M  V30 3532 O 328.769 2.16219 2.83068 0
M  V30 3533 O 327.628 3.11413 4.49093 0
M  V30 3534 H 324.722 0.441601 0.699226 0
M  V30 3535 H 327.268 1.44362 0.892053 0
M  V30 3536 H 326.04 3.14211 2.3321 0
M  V30 3537 H 325.663 1.88628 3.50008 0
M  V30 3538 N 326.66 -1.06551 1.16123 0
M  V30 3539 C 327.592 -2.13908 0.823171 0
M  V30 3540 C 328.605 -1.61926 -0.16843 0
M  V30 3541 O 329.794 -1.78412 0.055962 0
M  V30 3542 C 326.894 -3.38283 0.204424 0
M  V30 3543 C 326.067 -4.19589 1.23548 0
M  V30 3544 C 325.126 -5.2233 0.637011 0
M  V30 3545 O 324.152 -5.54034 1.30516 0
M  V30 3546 N 325.354 -5.77621 -0.577474 0
M  V30 3547 H 328.119 -2.43508 1.74711 0
M  V30 3548 H 325.68 -1.2253 1.05821 0
M  V30 3549 H 327.672 -4.0416 -0.208909 0
M  V30 3550 H 326.242 -3.06329 -0.623012 0
M  V30 3551 H 325.462 -3.49406 1.82507 0
M  V30 3552 H 326.75 -4.70718 1.93137 0
M  V30 3553 H 326.148 -5.54125 -1.13853 0
M  V30 3554 H 324.705 -6.45087 -0.933053 0
M  V30 3555 N 328.138 -0.959301 -1.25041 0
M  V30 3556 C 329.101 -0.487677 -2.23952 0
M  V30 3557 C 330.101 0.41119 -1.55454 0
M  V30 3558 O 331.291 0.207825 -1.72956 0
M  V30 3559 C 328.423 0.294807 -3.39623 0
M  V30 3560 H 329.616 -1.36198 -2.67189 0
M  V30 3561 H 327.169 -0.743042 -1.37508 0
M  V30 3562 H 327.904 1.18658 -3.01813 0
M  V30 3563 H 327.689 -0.35012 -3.90534 0
M  V30 3564 H 329.179 0.614089 -4.1306 0
M  V30 3565 N 329.616 1.39756 -0.72842 0
M  V30 3566 C 330.864 2.00248 -0.272946 0
M  V30 3567 C 331.185 1.58077 1.14178 0
M  V30 3568 O 330.455 0.826014 1.77634 0
M  V30 3569 H 329.035 0.740554 -0.0979247 0
M  V30 3570 H 331.697 1.70903 -0.936912 0
M  V30 3571 H 330.793 3.10495 -0.316142 0
M  V30 3572 N 331.094 0.475555 1.50254 0
M  V30 3573 C 332.342 -0.077738 2.0195 0
M  V30 3574 C 332.663 -1.39813 1.35931 0
M  V30 3575 O 331.933 -1.89249 0.506123 0
M  V30 3576 H 330.513 -0.031719 0.746326 0
M  V30 3577 H 333.175 0.626995 1.84539 0
M  V30 3578 H 332.271 -0.225995 3.11281 0
M  V30 3579 N 332.573 -1.56217 0.208337 0
M  V30 3580 C 333.503 -2.22694 -0.702116 0
M  V30 3581 C 334.484 -1.19432 -1.2112 0
M  V30 3582 O 335.669 -1.47978 -1.25762 0
M  V30 3583 C 332.799 -2.8966 -1.9161 0
M  V30 3584 C 331.753 -3.9928 -1.5414 0
M  V30 3585 C 331.079 -4.53476 -2.83308 0
M  V30 3586 C 332.379 -5.17012 -0.741339 0
M  V30 3587 H 334.073 -2.99034 -0.147898 0
M  V30 3588 H 331.619 -1.43831 -0.0696951 0
M  V30 3589 H 333.572 -3.34852 -2.55836 0
M  V30 3590 H 332.296 -2.10746 -2.49507 0
M  V30 3591 H 330.955 -3.54799 -0.922668 0
M  V30 3592 H 330.603 -3.71308 -3.39322 0
M  V30 3593 H 330.303 -5.27451 -2.58976 0
M  V30 3594 H 331.827 -5.01378 -3.485 0
M  V30 3595 H 333.241 -5.58667 -1.28699 0
M  V30 3596 H 331.638 -5.97137 -0.595627 0
M  V30 3597 H 332.708 -4.8423 0.254851 0
M  V30 3598 N 334.051 0.0651679 -1.57465 0
M  V30 3599 C 335.3 0.761916 -1.86756 0
M  V30 3600 C 335.613 1.78406 -0.801925 0
M  V30 3601 O 336.819 2.53084 -0.982885 0
M  V30 3602 C 335.275 1.40603 -3.31299 0
M  V30 3603 C 334.883 0.422115 -4.46007 0
M  V30 3604 C 336.627 2.08476 -3.69781 0
M  V30 3605 C 334.534 1.07252 -5.81593 0
M  V30 3606 H 333.464 0.288308 -0.696702 0
M  V30 3607 H 336.115 0.015344 -1.83494 0
M  V30 3608 H 334.497 2.20109 -3.29193 0
M  V30 3609 H 335.671 -0.343613 -4.59517 0
M  V30 3610 H 333.986 -0.152527 -4.16121 0
M  V30 3611 H 336.583 2.57925 -4.68379 0
M  V30 3612 H 336.926 2.88712 -2.99919 0
M  V30 3613 H 337.459 1.35792 -3.73905 0
M  V30 3614 H 334.198 0.310342 -6.54765 0
M  V30 3615 H 333.718 1.80895 -5.71872 0
M  V30 3616 H 335.397 1.59043 -6.27148 0
M  V30 3617 N 335.529 1.53961 0.336706 0
M  V30 3618 C 336.492 1.81724 1.39675 0
M  V30 3619 C 337.492 0.688532 1.45313 0
M  V30 3620 O 338.682 0.956829 1.45569 0
M  V30 3621 C 335.814 1.96543 2.78538 0
M  V30 3622 H 337.007 2.76424 1.16318 0
M  V30 3623 H 334.56 1.45478 0.571474 0
M  V30 3624 H 335.295 1.0401 3.07168 0
M  V30 3625 H 335.08 2.78665 2.75841 0
M  V30 3626 H 336.57 2.19516 3.5525 0
M  V30 3627 N 337.007 -0.598083 1.45811 0
M  V30 3628 C 338.254 -1.35681 1.50323 0
M  V30 3629 C 338.582 -1.9393 0.148739 0
M  V30 3630 O 337.837 -1.76094 -0.853787 0
M  V30 3631 C 338.136 -2.51669 2.53766 0
M  V30 3632 C 337.802 -2.11508 3.98215 0
M  V30 3633 C 336.464 -2.0027 4.37545 0
M  V30 3634 C 338.816 -1.80308 4.89018 0
M  V30 3635 C 336.144 -1.56067 5.65562 0
M  V30 3636 C 338.496 -1.37589 6.17456 0
M  V30 3637 C 337.16 -1.24916 6.55708 0
M  V30 3638 H 336.43 -0.496492 0.550069 0
M  V30 3639 H 339.077 -0.675052 1.79207 0
M  V30 3640 H 337.382 -3.25225 2.18486 0
M  V30 3641 H 339.079 -3.09895 2.54492 0
M  V30 3642 H 335.669 -2.21185 3.67117 0
M  V30 3643 H 339.853 -1.87884 4.59362 0
M  V30 3644 H 335.109 -1.44886 5.93985 0
M  V30 3645 H 339.283 -1.12495 6.87254 0
M  V30 3646 H 336.91 -0.904386 7.54801 0
M  V30 3647 N 338.485 -1.33259 -0.841409 0
M  V30 3648 C 339.448 -1.23221 -1.9326 0
M  V30 3649 C 340.448 -0.151895 -1.60081 0
M  V30 3650 O 341.638 -0.403246 -1.69468 0
M  V30 3651 C 338.77 -0.898123 -3.28856 0
M  V30 3652 H 339.963 -2.2021 -2.03587 0
M  V30 3653 H 337.516 -1.17281 -1.03319 0
M  V30 3654 H 338.251 0.0693841 -3.24226 0
M  V30 3655 H 338.036 -1.67934 -3.54317 0
M  V30 3656 H 339.526 -0.852563 -4.08805 0
M  V30 3657 N 339.963 1.05934 -1.16686 0
M  V30 3658 C 340.895 2.13468 -0.834503 0
M  V30 3659 C 341.908 1.62013 0.15984 0
M  V30 3660 O 343.097 1.7838 -0.0654228 0
M  V30 3661 C 340.197 3.3817 -0.222361 0
M  V30 3662 C 339.37 4.18928 -1.25771 0
M  V30 3663 C 338.429 5.21985 -0.664703 0
M  V30 3664 O 337.455 5.53334 -1.33453 0
M  V30 3665 N 338.657 5.77919 0.546834 0
M  V30 3666 H 341.422 2.42578 -1.75999 0
M  V30 3667 H 338.983 1.21967 -1.06469 0
M  V30 3668 H 340.975 4.04266 0.187472 0
M  V30 3669 H 339.545 3.06655 0.606758 0
M  V30 3670 H 338.765 3.48433 -1.84358 0
M  V30 3671 H 340.053 4.69687 -1.95631 0
M  V30 3672 H 339.451 5.54721 1.10912 0
M  V30 3673 H 338.008 6.45573 0.898829 0
M  V30 3674 N 341.441 0.965919 1.2453 0
M  V30 3675 C 342.671 0.643451 1.96324 0
M  V30 3676 C 343.079 -0.790927 1.71875 0
M  V30 3677 O 342.422 -1.54208 0.998273 0
M  V30 3678 C 342.484 0.836078 3.49643 0
M  V30 3679 C 342.148 2.24975 3.97788 0
M  V30 3680 C 343.145 3.22735 4.07601 0
M  V30 3681 C 340.83 2.57697 4.31158 0
M  V30 3682 C 342.824 4.51303 4.50116 0
M  V30 3683 C 340.511 3.86492 4.73357 0
M  V30 3684 C 341.509 4.83107 4.828 0
M  V30 3685 O 341.197 6.09605 5.24058 0
M  V30 3686 H 340.929 0.239223 0.632257 0
M  V30 3687 H 343.483 1.29587 1.59362 0
M  V30 3688 H 341.713 0.12649 3.86493 0
M  V30 3689 H 343.402 0.512965 4.02646 0
M  V30 3690 H 344.168 2.98783 3.82039 0
M  V30 3691 H 340.047 1.83216 4.23028 0
M  V30 3692 H 343.591 5.26716 4.57401 0
M  V30 3693 H 339.488 4.10245 4.98366 0
M  V30 3694 H 340.256 6.13146 5.42213 0
M  V30 3695 N 342.919 -1.39368 0.735821 0
M  V30 3696 C 344.168 -1.99733 0.281004 0
M  V30 3697 C 344.481 -1.59055 -1.13846 0
M  V30 3698 O 345.687 -2.12262 -1.69284 0
M  V30 3699 C 344.143 -3.57057 0.451462 0
M  V30 3700 C 343.751 -4.06697 1.87886 0
M  V30 3701 C 345.495 -4.2446 0.0584616 0
M  V30 3702 C 343.402 -5.56598 1.99883 0
M  V30 3703 H 342.332 -0.747163 0.101311 0
M  V30 3704 H 344.983 -1.59357 0.909819 0
M  V30 3705 H 343.365 -3.95234 -0.246263 0
M  V30 3706 H 344.539 -3.79853 2.60861 0
M  V30 3707 H 342.854 -3.5196 2.22515 0
M  V30 3708 H 345.451 -5.34549 0.127099 0
M  V30 3709 H 345.794 -4.04444 -0.986433 0
M  V30 3710 H 346.327 -3.9146 0.707374 0
M  V30 3711 H 343.066 -5.81494 3.02564 0
M  V30 3712 H 342.586 -5.85242 1.31346 0
M  V30 3713 H 344.265 -6.22022 1.78039 0
M  V30 3714 N 344.397 -0.483516 -1.5 0
M  V30 3715 C 345.36 0.292965 -2.2732 0
M  V30 3716 C 346.36 0.909499 -1.32608 0
M  V30 3717 O 347.55 0.776745 -1.55924 0
M  V30 3718 C 344.682 1.41854 -3.09984 0
M  V30 3719 H 345.875 -0.385289 -2.97415 0
M  V30 3720 H 343.428 -0.237942 -1.54478 0
M  V30 3721 H 344.163 2.13148 -2.44414 0
M  V30 3722 H 343.948 0.982114 -3.79601 0
M  V30 3723 H 345.438 1.96597 -3.68429 0
M  V30 3724 N 345.875 1.56104 -0.216619 0
M  V30 3725 C 346.785 2.23694 0.706982 0
M  V30 3726 C 347.801 1.24295 1.21765 0
M  V30 3727 O 348.977 1.57094 1.2603 0
M  V30 3728 C 346.042 2.8998 1.90033 0
M  V30 3729 C 345.103 4.04708 1.43213 0
M  V30 3730 C 344.336 4.67824 2.56859 0
M  V30 3731 O 344.559 4.29913 3.74874 0
M  V30 3732 O 343.493 5.56905 2.28343 0
M  V30 3733 H 347.319 3.03272 0.161235 0
M  V30 3734 H 344.904 1.49394 0.0136177 0
M  V30 3735 H 346.786 3.31837 2.59735 0
M  V30 3736 H 345.461 2.13365 2.43428 0
M  V30 3737 H 344.368 3.6743 0.70327 0
M  V30 3738 H 345.701 4.83051 0.944615 0
M  V30 3739 N 347.353 -0.0568162 1.57498 0
M  V30 3740 C 348.63 -0.786954 1.79071 0
M  V30 3741 C 349.01 -1.95028 0.80792 0
M  V30 3742 O 348.358 -2.27968 -0.155858 0
M  V30 3743 C 348.568 -1.24594 3.26002 0
M  V30 3744 C 349.916 -1.67323 3.90241 0
M  V30 3745 O 350.94 -1.34124 3.29984 0
M  V30 3746 O 349.799 -2.28842 4.9628 0
M  V30 3747 H 346.893 -0.378262 0.735423 0
M  V30 3748 H 349.439 -0.035734 1.69662 0
M  V30 3749 H 348.211 -0.41423 3.89101 0
M  V30 3750 H 347.834 -2.05803 3.40192 0
M  V30 3751 N 348.832 -1.54138 -0.328536 0
M  V30 3752 C 350.062 -1.75807 -1.08516 0
M  V30 3753 C 350.47 -0.50428 -1.82356 0
M  V30 3754 O 349.813 0.534451 -1.75754 0
M  V30 3755 C 349.875 -2.89423 -2.13248 0
M  V30 3756 C 349.539 -4.28504 -1.5885 0
M  V30 3757 C 350.536 -5.09536 -1.03289 0
M  V30 3758 C 348.221 -4.75034 -1.63243 0
M  V30 3759 C 350.215 -6.35206 -0.52845 0
M  V30 3760 C 347.902 -6.00672 -1.12411 0
M  V30 3761 C 348.9 -6.80592 -0.573062 0
M  V30 3762 O 348.588 -8.03867 -0.0723692 0
M  V30 3763 H 348.32 -0.590633 -0.328829 0
M  V30 3764 H 350.874 -2.01819 -0.381868 0
M  V30 3765 H 349.104 -2.5897 -2.87178 0
M  V30 3766 H 350.793 -2.98921 -2.74592 0
M  V30 3767 H 351.559 -4.74745 -0.99206 0
M  V30 3768 H 347.438 -4.12875 -2.05074 0
M  V30 3769 H 350.982 -6.97532 -0.0976774 0
M  V30 3770 H 346.879 -6.34955 -1.162 0
M  V30 3771 H 347.647 -8.18283 -0.188258 0
M  V30 3772 N 350.31 0.590341 -1.46126 0
M  V30 3773 C 351.557 1.34882 -1.5104 0
M  V30 3774 C 351.885 1.93849 -0.159021 0
M  V30 3775 O 351.14 1.76544 0.844436 0
M  V30 3776 C 351.439 2.5032 -2.55097 0
M  V30 3777 C 351.105 2.09394 -3.99331 0
M  V30 3778 C 349.767 1.97947 -4.38601 0
M  V30 3779 C 352.119 1.77712 -4.89967 0
M  V30 3780 C 349.447 1.53065 -5.66381 0
M  V30 3781 C 351.799 1.34312 -6.18177 0
M  V30 3782 C 350.463 1.21436 -6.56361 0
M  V30 3783 H 349.733 0.493568 -0.552695 0
M  V30 3784 H 352.38 0.665539 -1.79563 0
M  V30 3785 H 350.685 3.24062 -2.20207 0
M  V30 3786 H 352.382 3.08541 -2.56132 0
M  V30 3787 H 348.972 2.19235 -3.68285 0
M  V30 3788 H 353.156 1.85445 -4.60352 0
M  V30 3789 H 348.412 1.41733 -5.94745 0
M  V30 3790 H 352.586 1.08849 -6.87841 0
M  V30 3791 H 350.213 0.864345 -7.5527 0
M  V30 3792 N 351.788 1.33704 0.83433 0
M  V30 3793 C 352.721 1.18675 1.94914 0
M  V30 3794 C 353.699 0.0811145 1.62398 0
M  V30 3795 O 354.883 0.244186 1.86912 0
M  V30 3796 C 352.01 0.821231 3.28593 0
M  V30 3797 C 351.056 1.93501 3.80079 0
M  V30 3798 S 351.889 3.54671 4.01209 0
M  V30 3799 C 353.045 3.20136 5.37833 0
M  V30 3800 H 353.278 2.13043 2.07364 0
M  V30 3801 H 350.811 1.18598 0.988624 0
M  V30 3802 H 352.769 0.617123 4.05835 0
M  V30 3803 H 351.43 -0.103927 3.13928 0
M  V30 3804 H 350.623 1.63273 4.76821 0
M  V30 3805 H 350.225 2.09601 3.09747 0
M  V30 3806 H 352.517 2.71242 6.20833 0
M  V30 3807 H 353.46 4.15975 5.73036 0
M  V30 3808 H 353.868 2.56613 5.02802 0
M  V30 3809 N 353.266 -1.05314 1.17247 0
M  V30 3810 C 354.229 -2.112 0.890357 0
M  V30 3811 C 355.229 -1.60359 -0.118943 0
M  V30 3812 O 356.419 -1.73833 0.113086 0
M  V30 3813 C 353.551 -3.39266 0.333422 0
M  V30 3814 H 354.744 -2.37659 1.82916 0
M  V30 3815 H 352.297 -1.21538 0.982758 0
M  V30 3816 H 353.032 -3.18462 -0.612587 0
M  V30 3817 H 352.817 -3.77477 1.06082 0
M  V30 3818 H 354.307 -4.17315 0.154322 0
M  V30 3819 N 354.744 -0.972509 -1.24016 0
M  V30 3820 C 355.691 -0.505969 -2.25186 0
M  V30 3821 C 356.661 0.451009 -1.5986 0
M  V30 3822 O 357.846 0.360307 -1.87367 0
M  V30 3823 C 354.986 0.193089 -3.44559 0
M  V30 3824 C 354.099 -0.803222 -4.24467 0
M  V30 3825 C 353.234 -0.0797793 -5.3114 0
M  V30 3826 C 352.273 -1.06583 -6.02749 0
M  V30 3827 N 351.41 -0.372074 -7.01113 0
M  V30 3828 H 356.25 -1.37351 -2.64459 0
M  V30 3829 H 353.787 -0.688419 -1.29997 0
M  V30 3830 H 355.745 0.615125 -4.1264 0
M  V30 3831 H 354.375 1.02455 -3.06109 0
M  V30 3832 H 353.427 -1.34368 -3.55878 0
M  V30 3833 H 354.739 -1.55494 -4.73944 0
M  V30 3834 H 353.893 0.400015 -6.0538 0
M  V30 3835 H 352.632 0.704597 -4.82583 0
M  V30 3836 H 351.637 -1.55645 -5.27309 0
M  V30 3837 H 352.862 -1.85074 -6.53395 0
M  V30 3838 H 350.808 0.393238 -6.5482 0
M  V30 3839 H 350.725 -1.06258 -7.48495 0
M  V30 3840 H 351.993 0.0855932 -7.79453 0
M  V30 3841 N 356.222 1.38976 -0.743202 0
M  V30 3842 C 357.185 2.28901 -0.117014 0
M  V30 3843 C 358.185 1.46698 0.658503 0
M  V30 3844 O 359.375 1.67274 0.486305 0
M  V30 3845 C 356.507 3.30309 0.84315 0
M  V30 3846 H 357.7 2.8578 -0.909373 0
M  V30 3847 H 355.253 1.47761 -0.509547 0
M  V30 3848 H 355.988 2.785 1.66157 0
M  V30 3849 H 355.773 3.91029 0.289594 0
M  V30 3850 H 357.263 3.97577 1.2776 0
M  V30 3851 N 357.7 0.491464 1.49741 0
M  V30 3852 C 358.949 -0.0582189 2.01616 0
M  V30 3853 C 359.262 -1.38927 1.3769 0
M  V30 3854 O 360.468 -2.02509 1.80838 0
M  V30 3855 C 358.924 -0.154235 3.59569 0
M  V30 3856 C 358.532 1.1696 4.32463 0
M  V30 3857 C 360.276 -0.65479 4.1942 0
M  V30 3858 C 358.183 1.03627 5.8225 0
M  V30 3859 H 357.113 -0.0255317 0.753568 0
M  V30 3860 H 359.764 0.629445 1.72367 0
M  V30 3861 H 358.146 -0.906138 3.85493 0
M  V30 3862 H 359.32 1.93405 4.18248 0
M  V30 3863 H 357.635 1.60285 3.84315 0
M  V30 3864 H 360.232 -0.771903 5.29099 0
M  V30 3865 H 360.575 -1.65127 3.8215 0
M  V30 3866 H 361.108 0.040304 3.9778 0
M  V30 3867 H 357.847 2.00672 6.24028 0
M  V30 3868 H 357.367 0.312546 5.98985 0
M  V30 3869 H 359.046 0.711114 6.4308 0
M  V30 3870 N 359.178 -1.55987 0.224894 0
M  V30 3871 C 360.141 -2.19178 -0.670348 0
M  V30 3872 C 361.141 -1.15461 -1.11917 0
M  V30 3873 O 362.331 -1.40675 -1.02743 0
M  V30 3874 C 359.463 -2.81777 -1.9187 0
M  V30 3875 H 360.656 -2.99662 -0.119364 0
M  V30 3876 H 358.209 -1.5628 -0.0247128 0
M  V30 3877 H 358.944 -2.05172 -2.51147 0
M  V30 3878 H 358.729 -3.57732 -1.60531 0
M  V30 3879 H 360.219 -3.30205 -2.55645 0
M  V30 3880 N 360.656 0.0484629 -1.57525 0
M  V30 3881 C 361.933 0.777447 -1.79486 0
M  V30 3882 C 362.313 1.94597 -0.818251 0
M  V30 3883 O 361.661 2.28047 0.143767 0
M  V30 3884 C 361.871 1.22864 -3.26658 0
M  V30 3885 C 363.219 1.65251 -3.91123 0
M  V30 3886 O 364.243 1.32372 -3.3069 0
M  V30 3887 O 363.102 2.26207 -4.97486 0
M  V30 3888 H 360.196 0.374357 -0.737419 0
M  V30 3889 H 362.742 0.0267359 -1.69679 0
M  V30 3890 H 361.514 0.393589 -3.89316 0
M  V30 3891 H 361.137 2.03996 -3.41279 0
M  V30 3892 N 362.134 1.5431 0.320358 0
M  V30 3893 C 363.55 1.45091 0.664889 0
M  V30 3894 C 363.75 0.626382 1.91517 0
M  V30 3895 O 362.806 0.126443 2.52183 0
M  V30 3896 C 364.119 2.88848 0.83591 0
M  V30 3897 C 365.667 2.9877 0.933046 0
M  V30 3898 C 366.142 4.43683 1.13621 0
M  V30 3899 N 367.633 4.47309 1.20287 0
M  V30 3900 C 368.368 5.56595 1.37801 0
M  V30 3901 N 367.864 6.75844 1.52338 0
M  V30 3902 N 369.657 5.44248 1.40535 0
M  V30 3903 H 361.808 2.06398 -0.501374 0
M  V30 3904 H 364.071 0.933963 -0.162534 0
M  V30 3905 H 363.777 3.51698 -0.0116092 0
M  V30 3906 H 363.651 3.35148 1.73078 0
M  V30 3907 H 366.038 2.36045 1.77107 0
M  V30 3908 H 366.119 2.55796 0.0145782 0
M  V30 3909 H 365.763 5.06995 0.303032 0
M  V30 3910 H 365.693 4.84269 2.0686 0
M  V30 3911 H 368.184 3.61388 1.10485 0
M  V30 3912 H 368.497 7.54892 1.65403 0
M  V30 3913 H 366.842 6.78746 1.4943 0
M  V30 3914 H 370.033 4.50038 1.28777 0
M  V30 3915 H 370.206 6.29473 1.53842 0
M  V30 3916 N 363.613 -0.582584 1.46437 0
M  V30 3917 C 364.861 -1.33814 1.51453 0
M  V30 3918 C 365.182 -1.94277 0.167792 0
M  V30 3919 O 364.452 -1.78566 -0.805677 0
M  V30 3920 H 363.032 -0.496838 0.557818 0
M  V30 3921 H 365.694 -0.682281 1.82568 0
M  V30 3922 H 364.79 -2.14479 2.26728 0
M  V30 3923 N 365.091 -1.34144 -0.827227 0
M  V30 3924 C 366.337 -1.27455 -1.58515 0
M  V30 3925 C 366.692 0.155271 -1.91772 0
M  V30 3926 O 365.985 1.10042 -1.56848 0
M  V30 3927 C 366.179 -2.09464 -2.89585 0
M  V30 3928 C 366.008 -3.60276 -2.69131 0
M  V30 3929 C 364.778 -4.29565 -2.66087 0
M  V30 3930 C 366.976 -4.54367 -2.40947 0
M  V30 3931 N 364.958 -5.66252 -2.37132 0
M  V30 3932 C 366.329 -5.79027 -2.21648 0
M  V30 3933 C 368.384 -4.43327 -2.26639 0
M  V30 3934 C 367.087 -6.93891 -1.89492 0
M  V30 3935 C 369.113 -5.58019 -1.95878 0
M  V30 3936 C 368.475 -6.81695 -1.774 0
M  V30 3937 H 364.574 -0.521614 -0.582617 0
M  V30 3938 H 367.158 -1.68811 -0.970105 0
M  V30 3939 H 365.329 -1.70411 -3.49019 0
M  V30 3940 H 367.061 -1.94453 -3.54923 0
M  V30 3941 H 363.816 -3.81959 -2.80008 0
M  V30 3942 H 364.24 -6.38338 -2.25507 0
M  V30 3943 H 368.882 -3.48333 -2.39633 0
M  V30 3944 H 366.6 -7.88871 -1.75236 0
M  V30 3945 H 370.186 -5.5142 -1.85546 0
M  V30 3946 H 369.066 -7.68942 -1.53941 0
M  V30 3947 N 366.569 1.04691 -1.17803 0
M  V30 3948 C 367.985 1.29963 -0.926379 0
M  V30 3949 C 368.185 1.97251 0.411635 0
M  V30 3950 O 367.241 2.24922 1.14744 0
M  V30 3951 C 368.554 2.16447 -2.08737 0
M  V30 3952 C 370.102 2.29814 -2.12496 0
M  V30 3953 C 370.577 3.19661 -3.27995 0
M  V30 3954 N 372.068 3.27247 -3.27816 0
M  V30 3955 C 372.803 3.96906 -4.13827 0
M  V30 3956 N 372.299 4.6895 -5.09959 0
M  V30 3957 N 374.092 3.93122 -4.01761 0
M  V30 3958 H 366.243 0.594182 -2.0392 0
M  V30 3959 H 368.506 0.324649 -0.890678 0
M  V30 3960 H 368.212 1.74304 -3.05469 0
M  V30 3961 H 368.086 3.17103 -2.04268 0
M  V30 3962 H 370.473 2.71196 -1.16347 0
M  V30 3963 H 370.554 1.2877 -2.21025 0
M  V30 3964 H 370.198 2.78991 -4.24413 0
M  V30 3965 H 370.128 4.20722 -3.16703 0
M  V30 3966 H 372.619 2.75921 -2.58217 0
M  V30 3967 H 372.932 5.19679 -5.71974 0
M  V30 3968 H 371.277 4.67875 -5.13924 0
M  V30 3969 H 374.468 3.35967 -3.2595 0
M  V30 3970 H 374.641 4.47139 -4.6901 0
M  V30 3971 N 368.047 0.979072 1.23499 0
M  V30 3972 C 369.294 0.647219 1.91878 0
M  V30 3973 C 369.622 -0.819074 1.76413 0
M  V30 3974 O 368.877 -1.60616 1.11808 0
M  V30 3975 C 369.176 0.981932 3.43646 0
M  V30 3976 C 368.842 2.43822 3.79291 0
M  V30 3977 C 367.504 2.83622 3.88731 0
M  V30 3978 C 369.856 3.3828 3.96505 0
M  V30 3979 C 367.184 4.16897 4.12812 0
M  V30 3980 C 369.536 4.71197 4.22085 0
M  V30 3981 C 368.2 5.10758 4.29747 0
M  V30 3982 H 367.47 0.236834 0.702133 0
M  V30 3983 H 370.117 1.23268 1.46551 0
M  V30 3984 H 368.422 0.314365 3.90537 0
M  V30 3985 H 370.119 0.703395 3.94783 0
M  V30 3986 H 366.709 2.11966 3.72516 0
M  V30 3987 H 370.893 3.0871 3.88603 0
M  V30 3988 H 366.149 4.47157 4.16966 0
M  V30 3989 H 370.323 5.44348 4.34348 0
M  V30 3990 H 367.95 6.1405 4.48159 0
M  V30 3991 N 369.525 -1.3858 0.750561 0
M  V30 3992 C 370.488 -2.28836 0.129152 0
M  V30 3993 C 371.488 -1.47045 -0.650714 0
M  V30 3994 O 372.678 -1.6753 -0.477428 0
M  V30 3995 C 369.81 -3.30751 -0.825622 0
M  V30 3996 H 371.003 -2.85294 0.924516 0
M  V30 3997 H 368.556 -1.47489 0.517376 0
M  V30 3998 H 369.291 -2.79378 -1.64677 0
M  V30 3999 H 369.076 -3.91177 -0.268852 0
M  V30 4000 H 370.566 -3.98249 -1.2565 0
M  V30 4001 N 371.003 -0.499398 -1.49478 0
M  V30 4002 C 371.936 0.326491 -2.25852 0
M  V30 4003 C 372.914 0.971776 -1.30366 0
M  V30 4004 O 374.098 1.00219 -1.59651 0
M  V30 4005 C 371.225 1.45969 -3.05632 0
M  V30 4006 C 370.271 0.928938 -4.16261 0
M  V30 4007 S 371.104 -0.179012 -5.35201 0
M  V30 4008 C 372.26 0.957389 -6.18534 0
M  V30 4009 H 372.493 -0.321746 -2.95554 0
M  V30 4010 H 370.026 -0.284674 -1.51753 0
M  V30 4011 H 371.984 2.109 -3.52181 0
M  V30 4012 H 370.645 2.07953 -2.35402 0
M  V30 4013 H 369.838 1.77813 -4.71592 0
M  V30 4014 H 369.44 0.356869 -3.72293 0
M  V30 4015 H 371.732 1.86296 -6.51383 0
M  V30 4016 H 372.675 0.442733 -7.06715 0
M  V30 4017 H 373.083 1.224 -5.5107 0
M  V30 4018 N 372.481 1.55866 -0.233164 0
M  V30 4019 C 373.706 2.03449 0.402906 0
M  V30 4020 C 374.131 1.11166 1.51736 0
M  V30 4021 O 373.489 0.101996 1.81013 0
M  V30 4022 C 373.537 3.49165 0.9009 0
M  V30 4023 O 372.641 3.60019 2.01147 0
M  V30 4024 H 371.982 0.657913 0.0897025 0
M  V30 4025 H 374.512 2.01493 -0.355201 0
M  V30 4026 H 374.522 3.89716 1.2077 0
M  V30 4027 H 373.197 4.15813 0.0852889 0
M  V30 4028 H 371.774 3.3136 1.71042 0
M  V30 4029 N 373.959 -0.0401083 1.57549 0
M  V30 4030 C 375.187 -0.745196 1.93014 0
M  V30 4031 C 375.602 -1.6948 0.831984 0
M  V30 4032 O 374.959 -1.81482 -0.192463 0
M  V30 4033 C 375.01 -1.51176 3.28372 0
M  V30 4034 O 374.731 -0.600284 4.33968 0
M  V30 4035 C 376.232 -2.315 3.78051 0
M  V30 4036 H 373.452 -0.210088 0.637263 0
M  V30 4037 H 375.996 -0.000924689 2.045 0
M  V30 4038 H 374.151 -2.20801 3.18317 0
M  V30 4039 H 374.565 -1.13669 5.12035 0
M  V30 4040 H 376.039 -2.80697 4.75303 0
M  V30 4041 H 376.516 -3.12436 3.08675 0
M  V30 4042 H 377.122 -1.66971 3.91153 0
M  V30 4043 N 375.437 -1.54477 -0.31217 0
M  V30 4044 C 376.369 -1.81011 -1.40598 0
M  V30 4045 C 377.382 -0.692546 -1.47335 0
M  V30 4046 O 378.571 -0.969847 -1.49854 0
M  V30 4047 C 375.671 -1.92307 -2.79054 0
M  V30 4048 C 374.844 -3.22594 -2.95384 0
M  V30 4049 C 373.903 -3.24448 -4.1427 0
M  V30 4050 O 372.929 -3.98035 -4.06887 0
M  V30 4051 N 374.131 -2.49042 -5.24365 0
M  V30 4052 H 376.896 -2.75408 -1.18196 0
M  V30 4053 H 374.457 -1.53914 -0.502202 0
M  V30 4054 H 376.449 -1.90962 -3.56813 0
M  V30 4055 H 375.019 -1.04955 -2.94454 0
M  V30 4056 H 374.239 -3.36806 -2.04831 0
M  V30 4057 H 375.527 -4.08593 -3.03198 0
M  V30 4058 H 374.925 -1.88867 -5.33241 0
M  V30 4059 H 373.482 -2.53463 -6.005 0
M  V30 4060 N 376.915 0.57481 -1.46744 0
M  V30 4061 C 378.161 1.3347 -1.52688 0
M  V30 4062 C 378.494 1.93353 -0.181229 0
M  V30 4063 O 377.769 1.76912 0.808237 0
M  V30 4064 C 378.052 2.45811 -2.63152 0
M  V30 4065 C 377.905 1.90912 -4.07275 0
M  V30 4066 C 379.224 3.47822 -2.69644 0
M  V30 4067 H 376.343 0.483935 -0.555856 0
M  V30 4068 H 378.985 0.644968 -1.78718 0
M  V30 4069 H 377.135 3.04646 -2.41088 0
M  V30 4070 H 378.807 1.36473 -4.4065 0
M  V30 4071 H 377.05 1.21691 -4.16382 0
M  V30 4072 H 377.721 2.72042 -4.80309 0
M  V30 4073 H 380.197 2.9888 -2.895 0
M  V30 4074 H 379.073 4.23876 -3.48742 0
M  V30 4075 H 379.334 4.05555 -1.76005 0
M  V30 4076 N 378.394 1.34581 0.820102 0
M  V30 4077 C 379.357 1.2628 1.91275 0
M  V30 4078 C 380.357 0.177344 1.59819 0
M  V30 4079 O 381.547 0.430156 1.68806 0
M  V30 4080 C 378.679 0.950327 3.27386 0
M  V30 4081 H 379.872 2.23421 2.00057 0
M  V30 4082 H 377.425 1.1891 1.0144 0
M  V30 4083 H 378.16 -0.0177938 3.24295 0
M  V30 4084 H 377.945 1.73549 3.51601 0
M  V30 4085 H 379.435 0.917492 4.07396 0
M  V30 4086 N 379.872 -1.04064 1.18357 0
M  V30 4087 C 380.805 -2.11618 0.854 0
M  V30 4088 C 381.783 -1.61555 -0.184043 0
M  V30 4089 O 382.967 -1.88395 -0.0630048 0
M  V30 4090 C 380.094 -3.37574 0.27597 0
M  V30 4091 C 379.14 -4.06485 1.2912 0
M  V30 4092 S 379.973 -4.53543 2.84709 0
M  V30 4093 C 381.129 -5.82732 2.28417 0
M  V30 4094 H 381.362 -2.39247 1.76488 0
M  V30 4095 H 378.895 -1.16832 1.00944 0
M  V30 4096 H 380.853 -4.10468 -0.051026 0
M  V30 4097 H 379.514 -3.0806 -0.613028 0
M  V30 4098 H 378.707 -4.97024 0.835633 0
M  V30 4099 H 378.309 -3.39708 1.56443 0
M  V30 4100 H 380.601 -6.56677 1.66677 0
M  V30 4101 H 381.544 -6.33052 3.17256 0
M  V30 4102 H 381.952 -5.37838 1.71436 0
M  V30 4103 N 381.35 -0.985608 -1.22978 0
M  V30 4104 C 382.282 -0.488154 -2.23941 0
M  V30 4105 C 383.295 0.41282 -1.57479 0
M  V30 4106 O 384.484 0.216121 -1.77187 0
M  V30 4107 C 381.584 0.312611 -3.37455 0
M  V30 4108 C 380.757 -0.582741 -4.33501 0
M  V30 4109 C 379.816 0.165064 -5.25941 0
M  V30 4110 O 378.842 -0.447077 -5.67442 0
M  V30 4111 N 380.044 1.44953 -5.62111 0
M  V30 4112 H 382.809 -1.3563 -2.67254 0
M  V30 4113 H 380.37 -0.859477 -1.37203 0
M  V30 4114 H 382.362 0.821357 -3.96277 0
M  V30 4115 H 380.932 1.0818 -2.93285 0
M  V30 4116 H 380.152 -1.27225 -3.73105 0
M  V30 4117 H 381.44 -1.19275 -4.94622 0
M  V30 4118 H 380.838 1.9683 -5.30353 0
M  V30 4119 H 379.395 1.90361 -6.23383 0
M  V30 4120 N 382.828 1.3818 -0.7579 0
M  V30 4121 C 383.776 2.32277 -0.122482 0
M  V30 4122 C 384.77 1.54238 0.700505 0
M  V30 4123 O 385.976 1.69737 0.599119 0
M  V30 4124 H 382.351 0.751712 -0.0208143 0
M  V30 4125 H 384.322 2.83469 -0.932099 0
M  V30 4126 C 383.071 3.39447 0.753076 0
M  V30 4127 H 382.394 3.99591 0.129184 0
M  V30 4128 H 383.834 4.07684 1.16489 0
M  V30 4129 C 382.293 2.78375 1.8976 0
M  V30 4130 O 382.823 2.68025 2.99208 0
M  V30 4131 N 381.029 2.36121 1.69397 0
M  V30 4132 H 380.576 2.4474 0.803762 0
M  V30 4133 H 380.534 1.95602 2.46145 0
M  V30 4134 N 384.306 0.507319 1.49211 0
M  V30 4135 C 385.531 -0.033725 2.07373 0
M  V30 4136 C 385.956 -1.29485 1.36437 0
M  V30 4137 O 385.314 -1.76294 0.423087 0
M  V30 4138 C 385.362 -0.263945 3.59633 0
M  V30 4139 O 384.466 -1.33737 3.90113 0
M  V30 4140 H 383.807 0.0290331 0.663365 0
M  V30 4141 H 386.337 0.708749 1.91932 0
M  V30 4142 H 386.347 -0.493536 4.05004 0
M  V30 4143 H 385.022 0.657424 4.10671 0
M  V30 4144 H 383.599 -1.09224 3.56545 0
M  V30 4145 N 385.784 -1.5574 0.241426 0
M  V30 4146 C 387.032 -1.98417 -0.384075 0
M  V30 4147 C 387.353 -1.13078 -1.58866 0
M  V30 4148 O 386.623 -0.212312 -1.94746 0
M  V30 4149 H 385.203 -0.732813 -0.144894 0
M  V30 4150 H 387.865 -1.9193 0.338943 0
M  V30 4151 H 386.961 -3.04219 -0.696939 0
M  V30 4152 N 387.262 0.0317525 -1.57568 0
M  V30 4153 C 388.487 0.738664 -1.938 0
M  V30 4154 C 388.912 1.68242 -0.841208 0
M  V30 4155 O 388.27 1.80157 0.203267 0
M  V30 4156 C 388.318 1.47417 -3.29091 0
M  V30 4157 O 387.422 2.5872 -3.2115 0
M  V30 4158 H 386.763 0.198856 -0.633524 0
M  V30 4159 H 389.293 -0.0119713 -2.04596 0
M  V30 4160 H 389.303 1.84468 -3.63917 0
M  V30 4161 H 387.978 0.781988 -4.08482 0
M  V30 4162 H 386.555 2.24231 -2.97951 0
M  V30 4163 N 388.74 1.54641 0.303973 0
M  V30 4164 C 389.97 1.77511 1.05705 0
M  V30 4165 C 390.378 0.533228 1.81531 0
M  V30 4166 O 389.721 -0.506423 1.76582 0
M  V30 4167 C 389.783 2.92779 2.08617 0
M  V30 4168 C 389.447 4.30977 1.52013 0
M  V30 4169 C 390.444 5.11115 0.9517 0
M  V30 4170 C 388.129 4.77571 1.55665 0
M  V30 4171 C 390.123 6.35966 0.427327 0
M  V30 4172 C 387.81 6.02384 1.02841 0
M  V30 4173 C 388.808 6.81417 0.464713 0
M  V30 4174 O 388.496 8.03881 -0.0555283 0
M  V30 4175 H 388.228 0.59579 0.319391 0
M  V30 4176 H 390.782 2.02401 0.349712 0
M  V30 4177 H 389.012 2.63506 2.83022 0
M  V30 4178 H 390.701 3.03252 2.69802 0
M  V30 4179 H 391.467 4.76264 0.916407 0
M  V30 4180 H 387.346 4.16085 1.9848 0
M  V30 4181 H 390.89 6.97599 -0.0133062 0
M  V30 4182 H 386.787 6.36723 1.06084 0
M  V30 4183 H 387.555 8.18479 0.0580522 0
M  V30 4184 N 390.218 -0.567019 1.47046 0
M  V30 4185 C 391.443 -1.3551 1.57009 0
M  V30 4186 C 391.868 -1.86841 0.217259 0
M  V30 4187 O 391.226 -1.62435 -0.805268 0
M  V30 4188 C 391.274 -2.50777 2.5912 0
M  V30 4189 O 390.378 -3.52706 2.13711 0
M  V30 4190 H 389.719 -0.402919 0.52778 0
M  V30 4191 H 392.249 -0.686241 1.92748 0
M  V30 4192 H 392.259 -2.97481 2.79229 0
M  V30 4193 H 390.934 -2.12771 3.57353 0
M  V30 4194 H 389.511 -3.12374 2.03659 0
M  V30 4195 N 391.696 -1.35014 -0.812953 0
M  V30 4196 C 392.945 -1.27269 -1.56479 0
M  V30 4197 C 393.258 0.152771 -1.95002 0
M  V30 4198 O 394.464 0.352451 -2.69203 0
M  V30 4199 C 392.92 -2.23159 -2.82362 0
M  V30 4200 C 392.528 -3.71016 -2.511 0
M  V30 4201 C 394.272 -2.24342 -3.60376 0
M  V30 4202 C 392.179 -4.58746 -3.73237 0
M  V30 4203 H 391.109 -0.472829 -0.587324 0
M  V30 4204 H 393.76 -1.6024 -0.894171 0
M  V30 4205 H 392.142 -1.83151 -3.51101 0
M  V30 4206 H 393.316 -4.1962 -1.90409 0
M  V30 4207 H 391.631 -3.72378 -1.86343 0
M  V30 4208 H 394.228 -2.87107 -4.51081 0
M  V30 4209 H 394.571 -1.24542 -3.97234 0
M  V30 4210 H 395.104 -2.62846 -2.98591 0
M  V30 4211 H 391.843 -5.59521 -3.41492 0
M  V30 4212 H 391.363 -4.14871 -4.33176 0
M  V30 4213 H 393.042 -4.73852 -4.40537 0
M  V30 4214 N 393.175 1.03435 -1.18907 0
M  V30 4215 C 394.4 1.80919 -1.01406 0
M  V30 4216 C 394.825 1.83055 0.432721 0
M  V30 4217 O 394.183 1.25252 1.31079 0
M  V30 4218 C 394.231 3.24091 -1.58105 0
M  V30 4219 O 393.335 4.04434 -0.806669 0
M  V30 4220 H 392.676 0.558709 -0.358803 0
M  V30 4221 H 395.206 1.30223 -1.57807 0
M  V30 4222 H 395.216 3.74853 -1.61087 0
M  V30 4223 H 393.891 3.21851 -2.6341 0
M  V30 4224 H 392.468 3.63091 -0.849666 0
M  V30 4225 N 394.653 0.992116 1.22453 0
M  V30 4226 C 395.585 0.500024 2.23679 0
M  V30 4227 C 396.598 -0.404463 1.57696 0
M  V30 4228 O 397.787 -0.206722 1.77299 0
M  V30 4229 C 394.887 -0.294711 3.37616 0
M  V30 4230 C 394.06 0.605723 4.33186 0
M  V30 4231 C 393.119 -0.13717 5.26021 0
M  V30 4232 O 392.145 0.477164 5.67196 0
M  V30 4233 N 393.347 -1.4197 5.62872 0
M  V30 4234 H 396.112 1.37045 2.66531 0
M  V30 4235 H 393.673 0.866741 1.36745 0
M  V30 4236 H 395.665 -0.800329 3.96707 0
M  V30 4237 H 394.235 -1.06623 2.93854 0
M  V30 4238 H 393.455 1.29202 3.72425 0
M  V30 4239 H 394.743 1.21896 4.93983 0
M  V30 4240 H 394.141 -1.94015 5.31389 0
M  V30 4241 H 392.698 -1.87052 6.24383 0
M  V30 4242 N 396.131 -1.37776 0.765217 0
M  V30 4243 C 397.378 -1.99849 0.326588 0
M  V30 4244 C 397.706 -1.60746 -1.09504 0
M  V30 4245 O 396.961 -0.84202 -1.76659 0
M  V30 4246 C 397.26 -3.5504 0.410053 0
M  V30 4247 C 396.926 -4.13891 1.78899 0
M  V30 4248 C 395.588 -4.29678 2.16635 0
M  V30 4249 C 397.94 -4.46236 2.69301 0
M  V30 4250 C 395.268 -4.7511 3.44221 0
M  V30 4251 C 397.62 -4.93089 3.9629 0
M  V30 4252 C 396.284 -5.07082 4.34078 0
M  V30 4253 H 395.554 -0.7313 0.119507 0
M  V30 4254 H 398.201 -1.64645 0.977968 0
M  V30 4255 H 396.506 -3.90451 -0.324878 0
M  V30 4256 H 398.203 -4.00966 0.0520699 0
M  V30 4257 H 394.793 -4.02026 1.48569 0
M  V30 4258 H 398.977 -4.3363 2.41409 0
M  V30 4259 H 394.233 -4.84129 3.73402 0
M  V30 4260 H 398.407 -5.17084 4.66472 0
M  V30 4261 H 396.034 -5.42046 5.33001 0
M  V30 4262 N 397.609 -0.515225 -1.4894 0
M  V30 4263 C 398.541 0.292481 -2.27326 0
M  V30 4264 C 399.554 0.917838 -1.3446 0
M  V30 4265 O 400.743 0.798772 -1.5963 0
M  V30 4266 C 397.843 1.42803 -3.07344 0
M  V30 4267 C 397.016 0.907347 -4.27885 0
M  V30 4268 C 396.075 1.92222 -4.89834 0
M  V30 4269 O 395.101 1.48506 -5.49486 0
M  V30 4270 N 396.303 3.25355 -4.80754 0
M  V30 4271 H 399.068 -0.379721 -2.97285 0
M  V30 4272 H 396.629 -0.348638 -1.58102 0
M  V30 4273 H 398.621 2.10481 -3.45658 0
M  V30 4274 H 397.191 2.00414 -2.39902 0
M  V30 4275 H 396.411 0.0550218 -3.94162 0
M  V30 4276 H 397.699 0.538108 -5.05946 0
M  V30 4277 H 397.097 3.6355 -4.33414 0
M  V30 4278 H 395.654 3.88707 -5.23211 0
M  V30 4279 N 399.087 1.5561 -0.249682 0
M  V30 4280 C 400.312 2.03865 0.381305 0
M  V30 4281 C 400.737 1.12769 1.50548 0
M  V30 4282 O 400.095 0.121189 1.80895 0
M  V30 4283 C 400.143 3.50101 0.863816 0
M  V30 4284 O 399.247 3.62132 1.97318 0
M  V30 4285 H 398.588 0.658827 0.0827194 0
M  V30 4286 H 401.118 2.01105 -0.376552 0
M  V30 4287 H 401.128 3.90975 1.1663 0
M  V30 4288 H 399.803 4.1588 0.0411816 0
M  V30 4289 H 398.38 3.33155 1.67517 0
M  V30 4290 N 400.565 -0.0233959 1.57583 0
M  V30 4291 C 401.981 -0.379134 1.55031 0
M  V30 4292 C 402.181 -1.76255 0.976548 0
M  V30 4293 O 401.237 -2.45266 0.600078 0
M  V30 4294 C 402.55 -0.275792 2.99433 0
M  V30 4295 C 404.098 -0.352458 3.11009 0
M  V30 4296 C 404.573 -0.278501 4.57152 0
M  V30 4297 N 406.064 -0.337123 4.61972 0
M  V30 4298 C 406.799 -0.302876 5.726 0
M  V30 4299 N 406.295 -0.220589 6.92449 0
M  V30 4300 N 408.088 -0.353023 5.6099 0
M  V30 4301 H 400.239 0.881869 1.93227 0
M  V30 4302 H 402.502 0.335867 0.886509 0
M  V30 4303 H 402.208 0.675108 3.4516 0
M  V30 4304 H 402.082 -1.06721 3.61788 0
M  V30 4305 H 404.469 -1.29379 2.65226 0
M  V30 4306 H 404.55 0.468409 2.51475 0
M  V30 4307 H 404.194 0.659189 5.03604 0
M  V30 4308 H 404.124 -1.11755 5.14605 0
M  V30 4309 H 406.615 -0.403002 3.75745 0
M  V30 4310 H 406.928 -0.199713 7.72542 0
M  V30 4311 H 405.273 -0.186555 6.9475 0
M  V30 4312 H 408.464 -0.415339 4.66254 0
M  V30 4313 H 408.637 -0.322866 6.47195 0
M  V30 4314 N 402.043 -1.548 -0.295768 0
M  V30 4315 C 402.976 -1.81003 -1.38972 0
M  V30 4316 C 403.954 -0.661544 -1.48534 0
M  V30 4317 O 405.138 -0.902074 -1.65514 0
M  V30 4318 C 402.265 -1.95141 -2.76835 0
M  V30 4319 C 401.311 -3.17592 -2.84671 0
M  V30 4320 S 402.144 -4.75531 -2.46232 0
M  V30 4321 C 403.3 -4.92613 -3.86114 0
M  V30 4322 H 403.533 -2.73507 -1.16537 0
M  V30 4323 H 401.066 -1.46278 -0.494168 0
M  V30 4324 H 403.024 -2.03972 -3.56238 0
M  V30 4325 H 401.685 -1.03565 -2.96535 0
M  V30 4326 H 400.878 -3.24303 -3.85803 0
M  V30 4327 H 400.48 -3.07235 -2.13267 0
M  V30 4328 H 402.772 -4.76957 -4.81164 0
M  V30 4329 H 403.715 -5.94698 -3.8437 0
M  V30 4330 H 404.123 -4.2073 -3.76359 0
M  V30 4331 N 403.521 0.559213 -1.47345 0
M  V30 4332 C 404.77 1.31281 -1.53128 0
M  V30 4333 C 405.083 1.94602 -0.197344 0
M  V30 4334 O 406.289 2.71173 -0.133154 0
M  V30 4335 C 404.745 2.38051 -2.69925 0
M  V30 4336 C 404.353 1.8093 -4.0984 0
M  V30 4337 C 406.097 3.14604 -2.84999 0
M  V30 4338 C 404.004 2.85468 -5.1794 0
M  V30 4339 H 402.934 0.493614 -0.569966 0
M  V30 4340 H 405.585 0.594155 -1.73615 0
M  V30 4341 H 403.967 3.12822 -2.42814 0
M  V30 4342 H 405.141 1.12544 -4.46845 0
M  V30 4343 H 403.456 1.16967 -3.99634 0
M  V30 4344 H 406.053 3.92666 -3.62929 0
M  V30 4345 H 406.396 3.68665 -1.93369 0
M  V30 4346 H 406.929 2.46945 -3.1187 0
M  V30 4347 H 403.668 2.36264 -6.1144 0
M  V30 4348 H 403.188 3.52269 -4.85455 0
M  V30 4349 H 404.867 3.48996 -5.44803 0
M  V30 4350 N 404.999 1.35443 0.805782 0
M  V30 4351 C 406.415 1.15499 1.10146 0
M  V30 4352 C 406.615 -0.0319975 2.01475 0
M  V30 4353 O 405.671 -0.70236 2.42535 0
M  V30 4354 C 406.984 2.45833 1.73166 0
M  V30 4355 C 408.532 2.52047 1.85583 0
M  V30 4356 C 409.007 3.82427 2.52019 0
M  V30 4357 N 410.498 3.83682 2.59504 0
M  V30 4358 C 411.233 4.81294 3.11679 0
M  V30 4359 N 410.729 5.89294 3.64287 0
M  V30 4360 N 412.522 4.6873 3.1024 0
M  V30 4361 H 404.673 2.11469 0.198678 0
M  V30 4362 H 406.936 0.93594 0.150731 0
M  V30 4363 H 406.642 3.32874 1.13526 0
M  V30 4364 H 406.516 2.6044 2.72857 0
M  V30 4365 H 408.903 1.65435 2.44367 0
M  V30 4366 H 408.984 2.41354 0.847455 0
M  V30 4367 H 408.628 4.69437 1.93885 0
M  V30 4368 H 408.558 3.90409 3.53395 0
M  V30 4369 H 411.049 3.05648 2.22234 0
M  V30 4370 H 411.362 6.59768 4.02401 0
M  V30 4371 H 409.707 5.92985 3.62483 0
M  V30 4372 H 412.898 3.83496 2.68419 0
M  V30 4373 H 413.071 5.44965 3.50596 0
M  V30 4374 N 406.477 -1.02803 1.19454 0
M  V30 4375 C 407.723 -1.76598 1.0092 0
M  V30 4376 C 408.078 -1.86939 -0.455142 0
M  V30 4377 O 407.371 -1.37575 -1.33355 0
M  V30 4378 C 407.565 -3.18941 1.6128 0
M  V30 4379 C 407.394 -3.22476 3.13431 0
M  V30 4380 C 406.164 -3.30375 3.82336 0
M  V30 4381 C 408.362 -3.09451 4.10785 0
M  V30 4382 N 406.344 -3.23292 5.21877 0
M  V30 4383 C 407.715 -3.10012 5.36929 0
M  V30 4384 C 409.77 -2.93585 4.02135 0
M  V30 4385 C 408.473 -2.96334 6.55423 0
M  V30 4386 C 410.499 -2.81256 5.20239 0
M  V30 4387 C 409.861 -2.82472 6.45282 0
M  V30 4388 H 405.96 -0.657447 0.423424 0
M  V30 4389 H 408.544 -1.22369 1.5144 0
M  V30 4390 H 406.715 -3.71489 1.1336 0
M  V30 4391 H 408.447 -3.81102 1.36173 0
M  V30 4392 H 405.202 -3.3663 3.33132 0
M  V30 4393 H 405.626 -3.23156 5.94894 0
M  V30 4394 H 410.268 -2.91466 3.0628 0
M  V30 4395 H 407.986 -2.97203 7.51463 0
M  V30 4396 H 411.572 -2.70014 5.15348 0
M  V30 4397 H 410.452 -2.73036 7.35133 0
M  V30 4398 N 407.956 -0.998596 -1.21925 0
M  V30 4399 C 409.184 -0.696286 -1.94832 0
M  V30 4400 C 409.599 0.740032 -1.73692 0
M  V30 4401 O 408.956 1.5 -1.03953 0
M  V30 4402 C 409.007 -0.999833 -3.47398 0
M  V30 4403 O 408.728 -2.37972 -3.67833 0
M  V30 4404 C 410.229 -0.716025 -4.37479 0
M  V30 4405 H 407.449 -0.257111 -0.619786 0
M  V30 4406 H 409.993 -1.33491 -1.54921 0
M  V30 4407 H 408.148 -0.406918 -3.85257 0
M  V30 4408 H 408.562 -2.48338 -4.61983 0
M  V30 4409 H 410.036 -0.978642 -5.43256 0
M  V30 4410 H 410.513 0.349968 -4.37803 0
M  V30 4411 H 411.119 -1.29025 -4.05256 0
M  V30 4412 N 409.434 1.37368 -0.772513 0
M  V30 4413 C 410.381 2.30262 -0.157488 0
M  V30 4414 C 411.351 1.51137 0.688965 0
M  V30 4415 O 412.536 1.79704 0.641168 0
M  V30 4416 C 409.676 3.37611 0.715045 0
M  V30 4417 C 408.789 4.31746 -0.148098 0
M  V30 4418 C 407.924 5.26171 0.729213 0
M  V30 4419 C 406.963 6.11948 -0.136418 0
M  V30 4420 N 406.1 6.98613 0.698914 0
M  V30 4421 H 410.94 2.82277 -0.955179 0
M  V30 4422 H 408.477 1.38957 -0.482631 0
M  V30 4423 H 410.435 3.98479 1.23575 0
M  V30 4424 H 409.065 2.86959 1.47833 0
M  V30 4425 H 408.117 3.72178 -0.786613 0
M  V30 4426 H 409.429 4.92084 -0.81579 0
M  V30 4427 H 408.583 5.92247 1.31637 0
M  V30 4428 H 407.322 4.66246 1.43059 0
M  V30 4429 H 406.327 5.4485 -0.736102 0
M  V30 4430 H 407.552 6.73945 -0.835134 0
M  V30 4431 H 405.498 6.41215 1.38489 0
M  V30 4432 H 405.415 7.55948 0.0885358 0
M  V30 4433 H 406.683 7.69077 1.27044 0
M  V30 4434 N 410.912 0.523116 1.48665 0
M  V30 4435 C 411.842 -0.23231 2.32342 0
M  V30 4436 C 412.823 -0.941637 1.41659 0
M  V30 4437 O 414.008 -0.928751 1.70552 0
M  V30 4438 C 411.138 -1.28387 3.22698 0
M  V30 4439 C 410.092 -0.693098 4.22351 0
M  V30 4440 C 409.418 -1.8468 5.01794 0
M  V30 4441 C 410.718 0.33063 5.21252 0
M  V30 4442 H 412.412 0.466192 2.95748 0
M  V30 4443 H 409.958 0.225643 1.42221 0
M  V30 4444 H 411.911 -1.82024 3.80059 0
M  V30 4445 H 410.635 -2.01186 2.57278 0
M  V30 4446 H 409.294 -0.178299 3.66166 0
M  V30 4447 H 408.942 -2.56301 4.32804 0
M  V30 4448 H 408.642 -1.45747 5.69238 0
M  V30 4449 H 410.166 -2.38709 5.62006 0
M  V30 4450 H 411.58 -0.118407 5.73178 0
M  V30 4451 H 409.977 0.636974 5.9671 0
M  V30 4452 H 411.047 1.23883 4.68808 0
M  V30 4453 N 412.39 -1.55475 0.257931 0
M  V30 4454 C 413.806 -1.59307 -0.0966563 0
M  V30 4455 C 414.006 -1.27514 -1.5602 0
M  V30 4456 O 413.062 -1.02774 -2.30637 0
M  V30 4457 C 414.375 -2.99552 0.262481 0
M  V30 4458 C 415.923 -3.1231 0.207683 0
M  V30 4459 C 416.398 -4.54793 0.541012 0
M  V30 4460 N 417.889 -4.6058 0.491921 0
M  V30 4461 C 418.624 -5.68825 0.722857 0
M  V30 4462 N 418.12 -6.85287 1.0175 0
M  V30 4463 N 419.913 -5.58296 0.652815 0
M  V30 4464 H 412.064 -1.74409 1.21224 0
M  V30 4465 H 414.327 -0.812424 0.48854 0
M  V30 4466 H 414.033 -3.27593 1.27967 0
M  V30 4467 H 413.907 -3.75019 -0.40508 0
M  V30 4468 H 416.294 -2.84044 -0.800195 0
M  V30 4469 H 416.375 -2.39095 0.909255 0
M  V30 4470 H 416.019 -4.83783 1.5465 0
M  V30 4471 H 415.949 -5.26285 -0.18216 0
M  V30 4472 H 418.44 -3.7691 0.273366 0
M  V30 4473 H 418.753 -7.63725 1.18084 0
M  V30 4474 H 417.098 -6.86945 1.05509 0
M  V30 4475 H 420.289 -4.66189 0.422592 0
M  V30 4476 H 420.462 -6.42582 0.836182 0
M  V30 4477 N 413.868 0.0150385 -1.57593 0
M  V30 4478 C 415.117 0.702115 -1.89085 0
M  V30 4479 C 415.43 1.75764 -0.858277 0
M  V30 4480 O 416.636 2.49829 -1.0629 0
M  V30 4481 C 415.092 1.29992 -3.35604 0
M  V30 4482 C 414.7 0.280007 -4.47124 0
M  V30 4483 C 416.444 1.96606 -3.76227 0
M  V30 4484 C 414.351 0.886949 -5.84711 0
M  V30 4485 H 413.281 0.265997 -0.705522 0
M  V30 4486 H 415.932 -0.0430408 -1.8345 0
M  V30 4487 H 414.314 2.09525 -3.36029 0
M  V30 4488 H 415.488 -0.489631 -4.58191 0
M  V30 4489 H 413.803 -0.284835 -4.15425 0
M  V30 4490 H 416.4 2.42893 -4.76347 0
M  V30 4491 H 416.743 2.79024 -3.08952 0
M  V30 4492 H 417.276 1.23828 -3.78036 0
M  V30 4493 H 414.015 0.101876 -6.55421 0
M  V30 4494 H 413.535 1.6261 -5.77337 0
M  V30 4495 H 415.214 1.39011 -6.3189 0
M  V30 4496 N 415.346 1.54954 0.287554 0
M  V30 4497 C 416.294 1.87606 1.37502 0
M  V30 4498 C 417.288 0.751001 1.51843 0
M  V30 4499 O 418.494 0.935169 1.53801 0
M  V30 4500 H 414.869 0.595231 0.459569 0
M  V30 4501 H 416.84 2.78477 1.07206 0
M  V30 4502 C 415.589 2.15183 2.73115 0
M  V30 4503 H 414.912 3.01234 2.62866 0
M  V30 4504 H 416.352 2.4196 3.48183 0
M  V30 4505 C 414.811 0.954686 3.2309 0
M  V30 4506 O 415.341 0.181949 4.01288 0
M  V30 4507 N 413.547 0.756368 2.80584 0
M  V30 4508 H 413.094 1.38643 2.17108 0
M  V30 4509 H 413.052 -0.0430391 3.14371 0
M  V30 4510 N 416.824 -0.551391 1.4764 0
M  V30 4511 C 417.757 -1.6738 1.5511 0
M  V30 4512 C 418.735 -1.5753 0.402856 0
M  V30 4513 O 419.919 -1.78307 0.611475 0
M  V30 4514 C 417.046 -3.05661 1.45908 0
M  V30 4515 C 416.092 -3.33938 2.65307 0
M  V30 4516 S 416.925 -3.22553 4.27457 0
M  V30 4517 C 418.081 -4.63317 4.20818 0
M  V30 4518 H 418.314 -1.6079 2.50068 0
M  V30 4519 H 415.847 -0.732674 1.35909 0
M  V30 4520 H 417.805 -3.8542 1.41286 0
M  V30 4521 H 416.466 -3.09711 0.523248 0
M  V30 4522 H 415.659 -4.34761 2.54948 0
M  V30 4523 H 415.261 -2.61809 2.67081 0
M  V30 4524 H 417.553 -5.54391 3.89431 0
M  V30 4525 H 418.496 -4.78732 5.21748 0
M  V30 4526 H 418.904 -4.41636 3.51593 0
M  V30 4527 N 418.302 -1.35869 -0.798587 0
M  V30 4528 C 419.232 -1.32118 -1.92528 0
M  V30 4529 C 420.213 -0.194209 -1.68988 0
M  V30 4530 O 421.398 -0.390426 -1.90235 0
M  V30 4531 C 418.528 -1.10047 -3.29404 0
M  V30 4532 C 417.482 -2.19471 -3.67446 0
M  V30 4533 C 416.808 -1.82555 -5.02571 0
M  V30 4534 C 418.108 -3.61495 -3.76987 0
M  V30 4535 H 419.802 -2.26394 -1.95924 0
M  V30 4536 H 417.348 -1.08981 -0.94123 0
M  V30 4537 H 419.301 -1.06061 -4.07835 0
M  V30 4538 H 418.025 -0.122195 -3.26371 0
M  V30 4539 H 416.684 -2.22568 -2.91306 0
M  V30 4540 H 416.332 -0.833249 -4.9605 0
M  V30 4541 H 416.032 -2.5581 -5.28995 0
M  V30 4542 H 417.556 -1.80108 -5.83432 0
M  V30 4543 H 418.97 -3.60676 -4.4563 0
M  V30 4544 H 417.367 -4.33577 -4.14887 0
M  V30 4545 H 418.437 -3.97065 -2.78329 0
M  V30 4546 N 419.78 1.02168 -1.19998 0
M  V30 4547 C 421.191 1.57135 -1.00825 0
M  V30 4548 C 421.542 1.91276 0.436818 0
M  V30 4549 O 420.667 1.71679 1.3174 0
M  V30 4550 C 421.262 2.85514 -1.82393 0
M  V30 4551 C 419.821 3.37027 -1.67601 0
M  V30 4552 C 418.968 2.10388 -1.80644 0
M  V30 4553 H 421.919 0.846106 -1.34264 0
M  V30 4554 H 421.94 3.56711 -1.32429 0
M  V30 4555 H 421.452 2.60634 -2.87561 0
M  V30 4556 H 419.553 3.66878 -0.650485 0
M  V30 4557 H 419.666 4.09572 -2.4857 0
M  V30 4558 H 418.03 2.22601 -1.23778 0
M  V30 4559 H 418.813 1.8794 -2.87286 0
M  V30 4560 N 421.258 1.00505 1.21394 0
M  V30 4561 C 422.221 0.570459 2.21987 0
M  V30 4562 C 423.221 -0.353211 1.56873 0
M  V30 4563 O 424.411 -0.14349 1.73608 0
M  V30 4564 C 421.543 -0.168555 3.40483 0
M  V30 4565 H 422.736 1.46021 2.6195 0
M  V30 4566 H 420.289 0.793565 1.34656 0
M  V30 4567 H 421.024 -1.07374 3.06009 0
M  V30 4568 H 420.809 0.494823 3.88965 0
M  V30 4569 H 422.299 -0.460362 4.15055 0
M  V30 4570 N 422.737 -1.36956 0.779787 0
M  V30 4571 C 423.965 -2.03755 0.359398 0
M  V30 4572 C 424.38 -1.58807 -1.02106 0
M  V30 4573 O 423.737 -0.773024 -1.6532 0
M  V30 4574 C 423.788 -3.59251 0.402568 0
M  V30 4575 O 423.509 -4.02557 1.72858 0
M  V30 4576 C 425.01 -4.43291 -0.0284068 0
M  V30 4577 H 422.23 -0.654148 0.149437 0
M  V30 4578 H 424.774 -1.75128 1.05595 0
M  V30 4579 H 422.929 -3.86621 -0.245478 0
M  V30 4580 H 423.343 -4.97111 1.67275 0
M  V30 4581 H 424.817 -5.51975 0.0529466 0
M  V30 4582 H 425.294 -4.25719 -1.07982 0
M  V30 4583 H 425.9 -4.21163 0.591758 0
M  V30 4584 N 424.215 -0.530993 -1.48385 0
M  V30 4585 C 425.464 0.00474348 -2.01699 0
M  V30 4586 C 425.777 1.35227 -1.41325 0
M  V30 4587 O 426.983 1.97643 -1.86144 0
M  V30 4588 C 425.439 0.0588473 -3.59852 0
M  V30 4589 C 425.047 -1.28385 -4.2921 0
M  V30 4590 C 426.791 0.543358 -4.21008 0
M  V30 4591 C 424.698 -1.19028 -5.79298 0
M  V30 4592 H 423.628 0.00554317 -0.75398 0
M  V30 4593 H 426.279 -0.674924 -1.70637 0
M  V30 4594 H 424.661 0.803612 -3.8776 0
M  V30 4595 H 425.835 -2.04426 -4.12973 0
M  V30 4596 H 424.15 -1.70418 -3.7993 0
M  V30 4597 H 426.747 0.631351 -5.3096 0
M  V30 4598 H 427.09 1.54937 -3.86394 0
M  V30 4599 H 427.623 -0.145754 -3.97533 0
M  V30 4600 H 424.362 -2.17147 -6.18488 0
M  V30 4601 H 423.882 -0.471246 -5.97946 0
M  V30 4602 H 425.561 -0.881365 -6.40969 0
M  V30 4603 N 425.693 1.55336 -0.266172 0
M  V30 4604 C 426.942 1.98574 0.353749 0
M  V30 4605 C 427.255 1.15789 1.57646 0
M  V30 4606 O 428.461 1.49129 2.26876 0
M  V30 4607 C 426.917 3.53403 0.680747 0
M  V30 4608 C 426.525 4.44953 -0.52165 0
M  V30 4609 C 428.269 4.05251 1.26379 0
M  V30 4610 C 426.176 5.91156 -0.169736 0
M  V30 4611 H 425.106 0.741643 0.135949 0
M  V30 4612 H 427.757 1.79743 -0.369421 0
M  V30 4613 H 426.139 3.68001 1.46257 0
M  V30 4614 H 427.313 4.42121 -1.29869 0
M  V30 4615 H 425.628 4.03691 -1.02093 0
M  V30 4616 H 428.225 5.12021 1.54074 0
M  V30 4617 H 428.568 3.53749 2.19471 0
M  V30 4618 H 429.101 3.94057 0.544447 0
M  V30 4619 H 425.84 6.46736 -1.0683 0
M  V30 4620 H 425.36 5.97079 0.570717 0
M  V30 4621 H 427.039 6.4655 0.241245 0
M  V30 4622 N 427.171 -0.0066808 1.57599 0
M  V30 4623 C 428.411 -0.697501 1.92131 0
M  V30 4624 C 428.775 -1.71306 0.867071 0
M  V30 4625 O 429.976 -2.45377 1.09743 0
M  V30 4626 C 428.247 -1.32978 3.3174 0
M  V30 4627 S 429.806 -2.04665 3.88146 0
M  V30 4628 H 426.624 -0.230555 0.672581 0
M  V30 4629 H 429.226 0.0484026 1.9544 0
M  V30 4630 H 427.93 -0.57772 4.06313 0
M  V30 4631 H 427.461 -2.11376 3.31789 0
M  V30 4632 H 429.476 -3.32097 3.68682 0
M  V30 4633 N 428.649 -1.55105 -0.279332 0
M  V30 4634 C 429.559 -1.90638 -1.36727 0
M  V30 4635 C 430.575 -0.802899 -1.54368 0
M  V30 4636 O 431.751 -1.10138 -1.68616 0
M  V30 4637 C 428.816 -2.16547 -2.70755 0
M  V30 4638 C 427.877 -3.40146 -2.61915 0
M  V30 4639 C 427.11 -3.6481 -3.8955 0
M  V30 4640 O 427.333 -2.92095 -4.89935 0
M  V30 4641 O 426.267 -4.58343 -3.90135 0
M  V30 4642 H 430.093 -2.83237 -1.09591 0
M  V30 4643 H 427.678 -1.4157 -0.477306 0
M  V30 4644 H 429.56 -2.34665 -3.50014 0
M  V30 4645 H 428.235 -1.27131 -2.9769 0
M  V30 4646 H 427.142 -3.2737 -1.81052 0
M  V30 4647 H 428.475 -4.29761 -2.3993 0
M  V30 4648 N 430.127 0.543554 -1.4793 0
M  V30 4649 C 431.538 1.12561 -1.48953 0
M  V30 4650 C 431.889 1.94578 -0.251754 0
M  V30 4651 O 431.014 2.0665 0.642255 0
M  V30 4652 C 431.609 2.04801 -2.69892 0
M  V30 4653 C 430.168 2.58251 -2.73831 0
M  V30 4654 C 429.315 1.34918 -2.42265 0
M  V30 4655 H 432.266 0.32947 -1.55242 0
M  V30 4656 H 432.287 2.88886 -2.47639 0
M  V30 4657 H 431.799 1.4508 -3.59963 0
M  V30 4658 H 429.9 3.21732 -1.87934 0
M  V30 4659 H 430.013 2.98312 -3.74895 0
M  V30 4660 H 428.377 1.66046 -1.93134 0
M  V30 4661 H 429.16 0.769693 -3.3456 0
M  V30 4662 N 431.605 1.3629 0.791371 0
M  V30 4663 C 432.854 1.29742 1.54434 0
M  V30 4664 C 433.167 -0.121729 1.95221 0
M  V30 4665 O 434.373 -0.309579 2.69729 0
M  V30 4666 C 432.829 2.27623 2.78776 0
M  V30 4667 C 432.437 3.74963 2.45166 0
M  V30 4668 C 434.181 2.30047 3.56761 0
M  V30 4669 C 432.088 4.64626 3.65891 0
M  V30 4670 H 431.018 0.482113 0.579727 0
M  V30 4671 H 433.669 1.61642 0.868565 0
M  V30 4672 H 432.051 1.88714 3.48142 0
M  V30 4673 H 433.225 4.22596 1.83709 0
M  V30 4674 H 431.54 3.75295 1.80396 0
M  V30 4675 H 434.137 2.94247 4.46456 0
M  V30 4676 H 434.48 1.30846 3.95203 0
M  V30 4677 H 435.013 2.67563 2.94372 0
M  V30 4678 H 431.752 5.64883 3.32547 0
M  V30 4679 H 431.272 4.2171 4.26521 0
M  V30 4680 H 432.951 4.80801 4.32943 0
M  V30 4681 N 433.083 -1.0153 1.20538 0
M  V30 4682 C 434.308 -1.79283 1.04271 0
M  V30 4683 C 434.733 -1.8372 -0.403544 0
M  V30 4684 O 434.091 -1.27321 -1.2907 0
M  V30 4685 C 434.139 -3.21535 1.63241 0
M  V30 4686 O 433.243 -4.03099 0.870908 0
M  V30 4687 H 432.584 -0.55293 0.367647 0
M  V30 4688 H 435.114 -1.27696 1.59859 0
M  V30 4689 H 435.124 -3.72243 1.6703 0
M  V30 4690 H 433.799 -3.1762 2.68497 0
M  V30 4691 H 432.376 -3.61693 0.907323 0
M  V30 4692 N 434.561 -1.01147 -1.20859 0
M  V30 4693 C 435.471 -0.58686 -2.27141 0
M  V30 4694 C 436.487 0.373198 -1.69951 0
M  V30 4695 O 437.663 0.235423 -2.00019 0
M  V30 4696 C 434.728 0.0733602 -3.46622 0
M  V30 4697 C 433.789 -0.931995 -4.19061 0
M  V30 4698 C 433.022 -0.303186 -5.32838 0
M  V30 4699 O 433.245 0.898395 -5.63281 0
M  V30 4700 O 432.179 -1.01735 -5.9324 0
M  V30 4701 H 436.005 -1.47155 -2.65667 0
M  V30 4702 H 433.59 -0.780689 -1.2738 0
M  V30 4703 H 435.472 0.442333 -4.19072 0
M  V30 4704 H 434.147 0.932329 -3.09983 0
M  V30 4705 H 433.054 -1.35224 -3.48805 0
M  V30 4706 H 434.387 -1.76076 -4.59628 0
M  V30 4707 N 436.039 1.36541 -0.78704 0
M  V30 4708 C 437.279 2.01138 -0.363714 0
M  V30 4709 C 437.643 1.61114 1.04433 0
M  V30 4710 O 438.844 2.18285 1.56861 0
M  V30 4711 C 437.115 3.53603 -0.519582 0
M  V30 4712 S 438.674 4.38415 -0.183782 0
M  V30 4713 H 435.492 0.697263 -0.13909 0
M  V30 4714 H 438.094 1.66475 -1.02501 0
M  V30 4715 H 436.798 3.8022 -1.5447 0
M  V30 4716 H 436.329 3.93084 0.15773 0
M  V30 4717 H 438.344 4.85698 1.01547 0
M  V30 4718 N 437.518 0.538854 1.48102 0
M  V30 4719 C 438.765 0.0080018 2.02498 0
M  V30 4720 C 439.093 -1.33437 1.41509 0
M  V30 4721 O 438.348 -1.87709 0.553507 0
M  V30 4722 C 438.647 -0.153808 3.57069 0
M  V30 4723 C 438.313 1.11533 4.36888 0
M  V30 4724 C 436.975 1.46314 4.58417 0
M  V30 4725 C 439.327 1.95718 4.83057 0
M  V30 4726 C 436.655 2.6516 5.23361 0
M  V30 4727 C 439.007 3.13751 5.49312 0
M  V30 4728 C 437.671 3.48866 5.69077 0
M  V30 4729 H 436.941 0.00292807 0.740994 0
M  V30 4730 H 439.588 0.706668 1.77984 0
M  V30 4731 H 437.893 -0.935309 3.80472 0
M  V30 4732 H 439.59 -0.579607 3.96789 0
M  V30 4733 H 436.18 0.834484 4.20398 0
M  V30 4734 H 440.364 1.70158 4.66219 0
M  V30 4735 H 435.62 2.92558 5.36861 0
M  V30 4736 H 439.794 3.79282 5.84053 0
M  V30 4737 H 437.421 4.41054 6.19173 0
M  V30 4738 N 438.996 -1.55193 0.274407 0
M  V30 4739 C 440.242 -1.99877 -0.343086 0
M  V30 4740 C 440.575 -1.16256 -1.55558 0
M  V30 4741 O 439.85 -0.232462 -1.93106 0
M  V30 4742 C 440.133 -3.52706 -0.725965 0
M  V30 4743 C 439.986 -4.47081 0.493818 0
M  V30 4744 C 441.305 -4.11422 -1.56268 0
M  V30 4745 H 438.424 -0.726625 -0.123229 0
M  V30 4746 H 441.066 -1.86136 0.38121 0
M  V30 4747 H 439.216 -3.64546 -1.34307 0
M  V30 4748 H 440.888 -4.47186 1.13237 0
M  V30 4749 H 439.131 -4.1877 1.13201 0
M  V30 4750 H 439.802 -5.51699 0.18217 0
M  V30 4751 H 442.278 -4.02855 -1.04151 0
M  V30 4752 H 441.154 -5.18568 -1.79939 0
M  V30 4753 H 441.415 -3.61607 -2.54348 0
M  V30 4754 N 440.474 -0.00167713 -1.576 0
M  V30 4755 C 441.437 0.974046 -2.07473 0
M  V30 4756 C 442.437 1.27143 -0.984444 0
M  V30 4757 O 443.627 1.21633 -1.24703 0
M  V30 4758 C 440.759 2.29849 -2.51759 0
M  V30 4759 H 441.952 0.54262 -2.9495 0
M  V30 4760 H 439.505 0.245829 -1.54355 0
M  V30 4761 H 440.24 2.77677 -1.67529 0
M  V30 4762 H 440.025 2.09584 -3.31386 0
M  V30 4763 H 441.515 2.9984 -2.90664 0
M  V30 4764 N 441.952 1.55251 0.271103 0
M  V30 4765 C 443.177 1.80306 1.02491 0
M  V30 4766 C 443.602 0.575457 1.79081 0
M  V30 4767 O 442.96 -0.474987 1.74967 0
M  V30 4768 C 443.008 3.02832 1.95768 0
M  V30 4769 O 442.112 2.78051 3.04568 0
M  V30 4770 H 441.453 0.595896 0.292923 0
M  V30 4771 H 443.983 2.02397 0.299436 0
M  V30 4772 H 443.993 3.31616 2.37686 0
M  V30 4773 H 442.668 3.9183 1.39434 0
M  V30 4774 H 441.245 2.60369 2.66951 0
M  V30 4775 N 443.43 -0.535701 1.48216 0
M  V30 4776 C 444.36 -1.65014 1.65204 0
M  V30 4777 C 445.341 -1.62554 0.501011 0
M  V30 4778 O 446.526 -1.7984 0.732886 0
M  V30 4779 C 443.656 -3.03616 1.68626 0
M  V30 4780 C 442.61 -3.20932 2.83172 0
M  V30 4781 C 441.936 -4.60537 2.71679 0
M  V30 4782 C 443.236 -3.04249 4.24535 0
M  V30 4783 H 444.93 -1.51053 2.58502 0
M  V30 4784 H 442.476 -0.725262 1.24402 0
M  V30 4785 H 444.429 -3.81446 1.79099 0
M  V30 4786 H 443.153 -3.18587 0.719026 0
M  V30 4787 H 441.812 -2.45517 2.72244 0
M  V30 4788 H 441.46 -4.72336 1.72937 0
M  V30 4789 H 441.16 -4.73069 3.48538 0
M  V30 4790 H 442.684 -5.40475 2.84112 0
M  V30 4791 H 444.098 -3.71877 4.36326 0
M  V30 4792 H 442.495 -3.28278 5.02348 0
M  V30 4793 H 443.565 -2.00739 4.41397 0
M  V30 4794 N 444.908 -1.36708 -0.784132 0
M  V30 4795 C 446.157 -1.30559 -1.53744 0
M  V30 4796 C 446.47 0.111374 -1.95283 0
M  V30 4797 O 447.676 0.29527 -2.6989 0
M  V30 4798 C 446.132 -2.29098 -2.77565 0
M  V30 4799 C 445.74 -3.76258 -2.43174 0
M  V30 4800 C 447.484 -2.31936 -3.55536 0
M  V30 4801 C 445.391 -4.6656 -3.63422 0
M  V30 4802 H 444.321 -0.48518 -0.577162 0
M  V30 4803 H 446.972 -1.62101 -0.859981 0
M  V30 4804 H 445.354 -1.90557 -3.47137 0
M  V30 4805 H 446.528 -4.23565 -1.81465 0
M  V30 4806 H 444.843 -3.76246 -1.78403 0
M  V30 4807 H 447.44 -2.9661 -4.44889 0
M  V30 4808 H 447.783 -1.3294 -3.94503 0
M  V30 4809 H 448.316 -2.6912 -2.92949 0
M  V30 4810 H 445.055 -5.66638 -3.29547 0
M  V30 4811 H 444.575 -4.23966 -4.24279 0
M  V30 4812 H 446.254 -4.8309 -4.30387 0
M  V30 4813 N 446.386 1.0089 -1.21074 0
M  V30 4814 C 447.635 1.74019 -1.01981 0
M  V30 4815 C 447.948 1.90408 0.447665 0
M  V30 4816 O 449.154 2.60707 0.757906 0
M  V30 4817 C 447.61 3.13026 -1.77603 0
M  V30 4818 C 447.218 3.04623 -3.28495 0
M  V30 4819 C 448.962 3.90312 -1.66904 0
M  V30 4820 C 446.869 4.38685 -3.96623 0
M  V30 4821 H 445.799 0.652422 -0.377971 0
M  V30 4822 H 448.45 1.12755 -1.44771 0
M  V30 4823 H 446.832 3.74878 -1.27604 0
M  V30 4824 H 448.006 2.52032 -3.85767 0
M  V30 4825 H 446.321 2.40827 -3.39693 0
M  V30 4826 H 448.918 4.8951 -2.15138 0
M  V30 4827 H 449.261 4.11558 -0.62658 0
M  V30 4828 H 449.794 3.35104 -2.14359 0
M  V30 4829 H 446.533 4.22641 -5.01054 0
M  V30 4830 H 446.053 4.91252 -3.4414 0
M  V30 4831 H 447.732 5.075 -4.01314 0
M  V30 4832 N 447.864 1.01787 1.20321 0
M  V30 4833 C 449.112 0.706538 1.89347 0
M  V30 4834 C 449.433 -0.766289 1.79313 0
M  V30 4835 O 448.703 -1.55126 1.19635 0
M  V30 4836 H 447.283 0.258348 0.700903 0
M  V30 4837 H 449.945 1.28974 1.46122 0
M  V30 4838 H 449.041 0.991066 2.95946 0
M  V30 4839 N 449.342 -1.36122 0.79427 0
M  V30 4840 C 450.588 -1.99846 0.378542 0
M  V30 4841 C 450.943 -1.61898 -1.03955 0
M  V30 4842 O 450.236 -0.866013 -1.70912 0
M  V30 4843 C 450.43 -3.5409 0.48527 0
M  V30 4844 C 450.259 -4.0702 1.91219 0
M  V30 4845 C 449.029 -4.36944 2.53787 0
M  V30 4846 C 451.227 -4.26435 2.87502 0
M  V30 4847 N 449.209 -4.75727 3.88017 0
M  V30 4848 C 450.58 -4.68077 4.06576 0
M  V30 4849 C 452.635 -4.08616 2.84495 0
M  V30 4850 C 451.338 -4.93765 5.23057 0
M  V30 4851 C 453.364 -4.35453 4.00169 0
M  V30 4852 C 452.726 -4.77355 5.17988 0
M  V30 4853 H 448.825 -0.759549 0.186034 0
M  V30 4854 H 451.409 -1.65043 1.0329 0
M  V30 4855 H 449.58 -3.88151 -0.139023 0
M  V30 4856 H 451.312 -4.04675 0.0453192 0
M  V30 4857 H 448.067 -4.26822 2.05231 0
M  V30 4858 H 448.491 -4.99396 4.57092 0
M  V30 4859 H 453.133 -3.75373 1.94564 0
M  V30 4860 H 450.851 -5.25887 6.1357 0
M  V30 4861 H 454.437 -4.2323 3.99208 0
M  V30 4862 H 453.317 -4.97718 6.06008 0
M  V30 4863 N 450.82 -0.546701 -1.47814 0
M  V30 4864 C 451.783 0.196287 -2.28358 0
M  V30 4865 C 452.783 0.852437 -1.36346 0
M  V30 4866 O 453.973 0.709913 -1.59078 0
M  V30 4867 C 451.105 1.28579 -3.15722 0
M  V30 4868 H 452.298 -0.511086 -2.95513 0
M  V30 4869 H 449.851 -0.303248 -1.5333 0
M  V30 4870 H 450.586 2.0259 -2.53235 0
M  V30 4871 H 450.371 0.820229 -3.83425 0
M  V30 4872 H 451.861 1.80793 -3.76435 0
M  V30 4873 N 452.299 1.55045 -0.282633 0
M  V30 4874 C 453.262 2.21515 0.588539 0
M  V30 4875 C 454.262 1.19535 1.07554 0
M  V30 4876 O 455.452 1.44391 0.974514 0
M  V30 4877 C 452.584 2.88704 1.8128 0
M  V30 4878 H 453.777 2.99899 0.00806397 0
M  V30 4879 H 451.33 1.56265 -0.0333067 0
M  V30 4880 H 452.065 2.14352 2.43359 0
M  V30 4881 H 451.85 3.63443 1.47144 0
M  V30 4882 H 453.34 3.39465 2.43214 0
M  V30 4883 N 453.777 0.010035 1.57597 0
M  V30 4884 C 454.727 -0.986858 2.05536 0
M  V30 4885 C 455.711 -1.29711 0.952042 0
M  V30 4886 O 456.903 -1.28641 1.21575 0
M  V30 4887 C 454.032 -2.2756 2.57043 0
M  V30 4888 C 453.118 -1.99455 3.74271 0
M  V30 4889 N 453.509 -1.41546 4.85591 0
M  V30 4890 C 451.807 -2.29547 3.82393 0
M  V30 4891 C 452.508 -1.3014 5.66956 0
M  V30 4892 N 451.484 -1.79044 5.13268 0
M  V30 4893 H 455.286 -0.533778 2.89012 0
M  V30 4894 H 452.8 -0.195432 1.6122 0
M  V30 4895 H 454.797 -2.99829 2.89669 0
M  V30 4896 H 453.457 -2.73512 1.7499 0
M  V30 4897 H 454.468 -1.09294 5.06236 0
M  V30 4898 H 451.145 -2.78304 3.11213 0
M  V30 4899 H 452.535 -0.855237 6.66435 0
M  V30 4900 N 455.255 -1.55392 -0.262866 0
M  V30 4901 C 456.205 -1.85355 -1.32768 0
M  V30 4902 C 457.189 -0.713188 -1.44231 0
M  V30 4903 O 458.381 -0.974765 -1.47741 0
M  V30 4904 C 455.51 -2.13781 -2.68612 0
M  V30 4905 C 454.596 -3.34104 -2.61219 0
M  V30 4906 N 454.987 -4.53766 -2.2345 0
M  V30 4907 C 453.285 -3.36895 -2.92263 0
M  V30 4908 C 453.986 -5.35877 -2.26298 0
M  V30 4909 N 452.962 -4.74536 -2.65172 0
M  V30 4910 H 456.764 -2.75413 -1.02591 0
M  V30 4911 H 454.278 -1.55405 -0.471503 0
M  V30 4912 H 456.275 -2.33407 -3.45437 0
M  V30 4913 H 454.935 -1.25013 -2.99669 0
M  V30 4914 H 455.946 -4.79682 -1.95258 0
M  V30 4915 H 452.623 -2.58351 -3.27965 0
M  V30 4916 H 454.013 -6.41577 -1.99572 0
M  V30 4917 N 456.733 0.527833 -1.48498 0
M  V30 4918 C 457.979 1.28545 -1.56857 0
M  V30 4919 C 458.312 1.92678 -0.242651 0
M  V30 4920 O 457.587 1.79394 0.751545 0
M  V30 4921 C 457.87 2.37314 -2.70839 0
M  V30 4922 C 457.723 1.77858 -4.13142 0
M  V30 4923 C 459.042 3.39068 -2.80573 0
M  V30 4924 H 456.161 0.466006 -0.570971 0
M  V30 4925 H 458.803 0.587784 -1.8068 0
M  V30 4926 H 456.953 2.96821 -2.50658 0
M  V30 4927 H 458.625 1.22385 -4.44769 0
M  V30 4928 H 456.868 1.08383 -4.20042 0
M  V30 4929 H 457.539 2.56624 -4.88721 0
M  V30 4930 H 460.015 2.89518 -2.98862 0
M  V30 4931 H 458.891 4.12566 -3.6205 0
M  V30 4932 H 459.152 3.9975 -1.88818 0
M  V30 4933 N 458.211 1.37122 0.776871 0
M  V30 4934 C 459.458 1.32047 1.53524 0
M  V30 4935 C 459.786 -0.0965631 1.9426 0
M  V30 4936 O 459.041 -1.06866 1.63945 0
M  V30 4937 C 459.34 2.20068 2.81611 0
M  V30 4938 C 459.006 3.68423 2.59953 0
M  V30 4939 C 457.668 4.08854 2.53755 0
M  V30 4940 C 460.02 4.62431 2.40431 0
M  V30 4941 C 457.348 5.41417 2.26018 0
M  V30 4942 C 459.7 5.95225 2.14219 0
M  V30 4943 C 458.364 6.34767 2.06462 0
M  V30 4944 H 457.634 0.483196 0.561785 0
M  V30 4945 H 460.281 1.69284 0.895268 0
M  V30 4946 H 458.586 1.75809 3.50141 0
M  V30 4947 H 460.283 2.13458 3.39465 0
M  V30 4948 H 456.873 3.36354 2.65638 0
M  V30 4949 H 461.057 4.32057 2.44213 0
M  V30 4950 H 456.313 5.71022 2.18504 0
M  V30 4951 H 460.487 6.67626 1.98112 0
M  V30 4952 H 458.114 7.37413 1.84733 0
M  V30 4953 N 459.689 -1.00246 1.21608 0
M  V30 4954 C 461.105 -1.26435 0.973975 0
M  V30 4955 C 461.305 -1.98642 -0.338143 0
M  V30 4956 O 460.361 -2.29026 -1.06317 0
M  V30 4957 C 461.674 -2.08551 2.16626 0
M  V30 4958 C 463.222 -2.21769 2.20879 0
M  V30 4959 C 463.697 -3.07267 3.39633 0
M  V30 4960 N 465.188 -3.14855 3.39736 0
M  V30 4961 C 465.923 -3.81274 4.28273 0
M  V30 4962 N 465.419 -4.497 5.27012 0
M  V30 4963 N 467.212 -3.7794 4.16074 0
M  V30 4964 H 459.363 -0.518089 2.05984 0
M  V30 4965 H 461.626 -0.291368 0.902113 0
M  V30 4966 H 461.332 -1.62847 3.11727 0
M  V30 4967 H 461.206 -3.09303 2.15897 0
M  V30 4968 H 463.593 -2.66691 1.26332 0
M  V30 4969 H 463.674 -1.20478 2.25652 0
M  V30 4970 H 463.318 -2.63047 4.34475 0
M  V30 4971 H 463.248 -4.08678 3.321 0
M  V30 4972 H 465.739 -2.66147 2.6828 0
M  V30 4973 H 466.052 -4.98092 5.90867 0
M  V30 4974 H 464.397 -4.48479 5.30935 0
M  V30 4975 H 467.588 -3.23638 3.38195 0
M  V30 4976 H 467.761 -4.29424 4.85282 0
M  V30 4977 N 461.167 -1.02423 -1.1978 0
M  V30 4978 C 462.413 -0.72878 -1.89896 0
M  V30 4979 C 462.768 0.734248 -1.77839 0
M  V30 4980 O 462.061 1.52733 -1.15685 0
M  V30 4981 C 462.255 -1.1088 -3.39765 0
M  V30 4982 C 462.084 -2.60722 -3.66407 0
M  V30 4983 C 460.854 -3.27623 -3.84696 0
M  V30 4984 C 463.052 -3.58924 -3.68345 0
M  V30 4985 N 461.034 -4.66617 -3.98926 0
M  V30 4986 C 462.405 -4.83514 -3.8809 0
M  V30 4987 C 464.46 -3.52788 -3.51347 0
M  V30 4988 C 463.163 -6.0271 -3.92598 0
M  V30 4989 C 465.189 -4.71394 -3.5713 0
M  V30 4990 C 464.551 -5.94796 -3.77356 0
M  V30 4991 H 460.65 -0.318473 -0.714212 0
M  V30 4992 H 463.234 -1.3106 -1.43984 0
M  V30 4993 H 461.405 -0.555233 -3.84411 0
M  V30 4994 H 463.137 -0.766082 -3.97383 0
M  V30 4995 H 459.892 -2.7804 -3.83393 0
M  V30 4996 H 460.316 -5.38805 -4.099 0
M  V30 4997 H 464.958 -2.58372 -3.3467 0
M  V30 4998 H 462.676 -6.97499 -4.08069 0
M  V30 4999 H 466.262 -4.6827 -3.45275 0
M  V30 5000 H 465.142 -6.85037 -3.81699 0
M  V30 5001 N 462.645 1.35699 -0.801477 0
M  V30 5002 C 463.922 1.9324 -0.302937 0
M  V30 5003 C 464.302 1.73209 1.20672 0
M  V30 5004 O 463.65 1.09809 2.00385 0
M  V30 5005 C 463.86 3.41728 -0.708747 0
M  V30 5006 C 465.208 4.18868 -0.695328 0
M  V30 5007 O 466.232 3.5022 -0.649971 0
M  V30 5008 O 465.091 5.41342 -0.749081 0
M  V30 5009 H 462.185 0.82331 -0.0780367 0
M  V30 5010 H 464.731 1.44806 -0.884832 0
M  V30 5011 H 463.503 3.50015 -1.74944 0
M  V30 5012 H 463.126 3.97471 -0.101384 0
M  V30 5013 N 464.123 0.554532 1.47522 0
M  V30 5014 C 465.372 0.0273458 2.01681 0
M  V30 5015 C 465.685 -1.32962 1.43459 0
M  V30 5016 O 466.891 -1.94657 1.89265 0
M  V30 5017 C 465.347 -0.00159057 3.599 0
M  V30 5018 C 464.955 1.35197 4.27113 0
M  V30 5019 C 466.699 -0.476311 4.21819 0
M  V30 5020 C 464.606 1.28229 5.77331 0
M  V30 5021 H 463.536 0.00645269 0.753972 0
M  V30 5022 H 466.187 0.701985 1.69542 0
M  V30 5023 H 464.569 -0.741821 3.8899 0
M  V30 5024 H 465.743 2.1097 4.09668 0
M  V30 5025 H 464.058 1.76441 3.77171 0
M  V30 5026 H 466.655 -0.5468 5.31897 0
M  V30 5027 H 466.998 -1.4877 3.8881 0
M  V30 5028 H 467.531 0.20898 3.97251 0
M  V30 5029 H 464.27 2.26959 6.14955 0
M  V30 5030 H 463.79 0.566314 5.97121 0
M  V30 5031 H 465.469 0.983226 6.39485 0
M  V30 5032 N 465.601 -1.54893 0.290851 0
M  V30 5033 C 466.534 -2.19289 -0.631489 0
M  V30 5034 C 467.512 -1.15893 -1.14051 0
M  V30 5035 O 468.696 -1.4449 -1.21058 0
M  V30 5036 C 465.823 -2.82866 -1.86291 0
M  V30 5037 C 464.869 -3.997 -1.48801 0
M  V30 5038 S 465.702 -5.32641 -0.552644 0
M  V30 5039 C 466.858 -5.99696 -1.79209 0
M  V30 5040 H 467.091 -2.9718 -0.0843791 0
M  V30 5041 H 464.624 -1.54218 0.075031 0
M  V30 5042 H 466.582 -3.20124 -2.56964 0
M  V30 5043 H 465.243 -2.04839 -2.38117 0
M  V30 5044 H 464.436 -4.42932 -2.40473 0
M  V30 5045 H 464.038 -3.63947 -0.861321 0
M  V30 5046 H 466.33 -6.19886 -2.734 0
M  V30 5047 H 467.273 -6.94071 -1.40251 0
M  V30 5048 H 467.681 -5.29226 -1.96419 0
M  V30 5049 N 467.08 -0.0183926 -1.57589 0
M  V30 5050 C 468.326 0.663543 -1.91638 0
M  V30 5051 C 468.659 1.72392 -0.894134 0
M  V30 5052 O 467.934 1.94316 0.0846449 0
M  V30 5053 C 468.217 1.28984 -3.36207 0
M  V30 5054 C 468.07 0.239761 -4.49161 0
M  V30 5055 C 469.389 2.2109 -3.80536 0
M  V30 5056 H 466.508 0.239746 -0.696915 0
M  V30 5057 H 469.15 -0.073456 -1.89858 0
M  V30 5058 H 467.3 1.91799 -3.37854 0
M  V30 5059 H 468.972 -0.390119 -4.59647 0
M  V30 5060 H 467.215 -0.435972 -4.31604 0
M  V30 5061 H 467.886 0.717383 -5.47319 0
M  V30 5062 H 470.362 1.68273 -3.80557 0
M  V30 5063 H 469.238 2.61869 -4.82406 0
M  V30 5064 H 469.499 3.09764 -3.15434 0
M  V30 5065 N 468.558 1.5553 0.254621 0
M  V30 5066 C 469.805 1.77 0.983736 0
M  V30 5067 C 470.133 0.58133 1.85609 0
M  V30 5068 O 469.388 -0.435621 1.9079 0
M  V30 5069 C 469.687 3.03891 1.88109 0
M  V30 5070 C 469.353 4.35597 1.16472 0
M  V30 5071 C 468.015 4.7139 0.966714 0
M  V30 5072 C 470.367 5.1705 0.656387 0
M  V30 5073 C 467.695 5.86176 0.247942 0
M  V30 5074 C 470.047 6.32581 -0.0488807 0
M  V30 5075 C 468.711 6.67 -0.258438 0
M  V30 5076 H 467.981 0.647688 0.359974 0
M  V30 5077 H 470.628 1.89802 0.254463 0
M  V30 5078 H 468.933 2.86068 2.67717 0
M  V30 5079 H 470.63 3.17701 2.44677 0
M  V30 5080 H 467.22 4.07475 1.32899 0
M  V30 5081 H 471.404 4.8986 0.796933 0
M  V30 5082 H 466.66 6.11354 0.075035 0
M  V30 5083 H 470.834 6.94942 -0.450444 0
M  V30 5084 H 468.461 7.55793 -0.817358 0
M  V30 5085 N 470.036 -0.519951 1.48776 0
M  V30 5086 C 471.283 -1.27522 1.57303 0
M  V30 5087 C 471.611 -1.92869 0.251328 0
M  V30 5088 O 470.866 -1.80372 -0.759243 0
M  V30 5089 C 471.165 -2.37864 2.6675 0
M  V30 5090 C 470.831 -1.90103 4.08867 0
M  V30 5091 C 469.493 -1.76795 4.47546 0
M  V30 5092 C 471.845 -1.54133 4.97888 0
M  V30 5093 C 469.173 -1.25868 5.73039 0
M  V30 5094 C 471.525 -1.04665 6.23881 0
M  V30 5095 C 470.189 -0.899823 6.61407 0
M  V30 5096 H 469.459 -0.466636 0.575614 0
M  V30 5097 H 472.106 -0.579109 1.82534 0
M  V30 5098 H 470.411 -3.13186 2.35418 0
M  V30 5099 H 472.108 -2.95969 2.70561 0
M  V30 5100 H 468.698 -2.01414 3.78326 0
M  V30 5101 H 472.882 -1.6327 4.68675 0
M  V30 5102 H 468.138 -1.13196 6.0083 0
M  V30 5103 H 472.312 -0.759074 6.92251 0
M  V30 5104 H 469.939 -0.503011 7.58534 0
M  V30 5105 N 471.514 -1.37532 -0.769588 0
M  V30 5106 C 472.447 -1.27839 -1.8903 0
M  V30 5107 C 473.425 -0.158504 -1.61826 0
M  V30 5108 O 474.609 -0.333086 -1.85534 0
M  V30 5109 C 471.736 -0.977072 -3.24301 0
M  V30 5110 C 470.782 -2.11414 -3.70414 0
M  V30 5111 S 471.615 -3.73409 -3.83831 0
M  V30 5112 C 472.771 -3.45432 -5.21946 0
M  V30 5113 H 473.004 -2.22694 -1.96963 0
M  V30 5114 H 470.537 -1.2318 -0.930914 0
M  V30 5115 H 472.495 -0.810049 -4.02428 0
M  V30 5116 H 471.156 -0.0459701 -3.14066 0
M  V30 5117 H 470.349 -1.85837 -4.68488 0
M  V30 5118 H 469.951 -2.24141 -2.99394 0
M  V30 5119 H 472.243 -3.00554 -6.07185 0
M  V30 5120 H 473.186 -4.42841 -5.52537 0
M  V30 5121 H 473.594 -2.80311 -4.89986 0
M  V30 5122 N 472.992 0.995999 -1.22138 0
M  V30 5123 C 474.232 1.75032 -1.05561 0
M  V30 5124 C 474.596 1.87729 0.402698 0
M  V30 5125 O 475.797 2.59813 0.689234 0
M  V30 5126 C 474.068 3.11973 -1.74379 0
M  V30 5127 S 475.627 4.03182 -1.73175 0
M  V30 5128 H 472.445 0.602137 -0.37809 0
M  V30 5129 H 475.047 1.19107 -1.55028 0
M  V30 5130 H 473.751 3.00371 -2.79652 0
M  V30 5131 H 473.282 3.7297 -1.25128 0
M  V30 5132 H 475.297 4.90043 -0.77923 0
M  V30 5133 N 474.47 1.03057 1.19235 0
M  V30 5134 C 475.42 0.583386 2.2041 0
M  V30 5135 C 476.404 -0.368776 1.56617 0
M  V30 5136 O 477.596 -0.189471 1.75983 0
M  V30 5137 C 474.725 -0.0626534 3.43243 0
M  V30 5138 C 473.811 0.91205 4.14177 0
M  V30 5139 N 474.202 2.07514 4.61272 0
M  V30 5140 C 472.5 0.735859 4.39888 0
M  V30 5141 C 473.201 2.69003 5.15764 0
M  V30 5142 N 472.177 1.96954 5.06666 0
M  V30 5143 H 475.979 1.46988 2.54503 0
M  V30 5144 H 473.493 0.897785 1.35328 0
M  V30 5145 H 475.49 -0.400653 4.1497 0
M  V30 5146 H 474.15 -0.944813 3.1065 0
M  V30 5147 H 475.161 2.45448 4.56043 0
M  V30 5148 H 471.838 -0.0970656 4.17387 0
M  V30 5149 H 473.228 3.67514 5.6248 0
M  V30 5150 N 475.948 -1.35272 0.808662 0
M  V30 5151 C 477.188 -2.00534 0.395668 0
M  V30 5152 C 477.552 -1.62755 -1.01857 0
M  V30 5153 O 478.753 -2.20752 -1.53368 0
M  V30 5154 C 477.024 -3.52732 0.575771 0
M  V30 5155 S 478.583 -4.38067 0.253507 0
M  V30 5156 H 475.401 -0.694962 0.150165 0
M  V30 5157 H 478.003 -1.64823 1.05137 0
M  V30 5158 H 476.707 -3.77714 1.60499 0
M  V30 5159 H 476.238 -3.93285 -0.0951739 0
M  V30 5160 H 478.253 -4.87252 -0.938068 0
M  V30 5161 N 477.426 -0.562348 -1.47226 0
M  V30 5162 C 478.356 0.170627 -2.32876 0
M  V30 5163 C 479.337 0.903748 -1.44106 0
M  V30 5164 O 480.522 0.883206 -1.72954 0
M  V30 5165 C 477.652 1.19786 -3.25989 0
M  V30 5166 C 476.606 0.580875 -4.2404 0
M  V30 5167 C 475.932 1.71311 -5.06514 0
M  V30 5168 C 477.232 -0.468714 -5.20193 0
M  V30 5169 H 478.926 -0.544441 -2.94408 0
M  V30 5170 H 476.472 -0.263271 -1.41573 0
M  V30 5171 H 478.425 1.71884 -3.84752 0
M  V30 5172 H 477.149 1.94294 -2.62521 0
M  V30 5173 H 475.808 0.0811538 -3.6651 0
M  V30 5174 H 475.456 2.44736 -4.39447 0
M  V30 5175 H 475.156 1.30604 -5.72902 0
M  V30 5176 H 476.68 2.23725 -5.68137 0
M  V30 5177 H 478.094 -0.0336028 -5.7329 0
M  V30 5178 H 476.491 -0.794957 -5.94811 0
M  V30 5179 H 477.561 -1.36269 -4.65359 0
M  V30 5180 N 478.904 1.54736 -0.299062 0
M  V30 5181 C 479.867 2.22127 0.565012 0
M  V30 5182 C 480.867 1.20669 1.06281 0
M  V30 5183 O 482.057 1.45417 0.959145 0
M  V30 5184 C 479.189 2.90611 1.78208 0
M  V30 5185 H 480.382 2.99891 -0.0237448 0
M  V30 5186 H 477.935 1.5622 -0.0498788 0
M  V30 5187 H 478.67 2.16921 2.41072 0
M  V30 5188 H 478.455 3.64984 1.43281 0
M  V30 5189 H 479.945 3.42026 2.396 0
M  V30 5190 N 480.382 0.0267497 1.57577 0
M  V30 5191 C 481.628 -0.647596 1.92815 0
M  V30 5192 C 481.983 -1.69872 0.903396 0
M  V30 5193 O 481.276 -1.91429 -0.0808881 0
M  V30 5194 C 481.47 -1.30914 3.3256 0
M  V30 5195 C 481.299 -0.323621 4.48534 0
M  V30 5196 C 480.069 0.0756607 5.05243 0
M  V30 5197 C 482.267 0.42112 5.12573 0
M  V30 5198 N 480.249 1.0566 6.04739 0
M  V30 5199 C 481.62 1.25589 6.07147 0
M  V30 5200 C 483.675 0.482077 4.95561 0
M  V30 5201 C 482.378 2.1461 6.86538 0
M  V30 5202 C 484.404 1.35962 5.75559 0
M  V30 5203 C 483.766 2.18217 6.69747 0
M  V30 5204 H 479.865 -0.209357 0.753454 0
M  V30 5205 H 482.449 0.0933695 1.94476 0
M  V30 5206 H 480.62 -2.02026 3.31723 0
M  V30 5207 H 482.352 -1.94033 3.55153 0
M  V30 5208 H 479.107 -0.298294 4.7266 0
M  V30 5209 H 479.531 1.54324 6.59176 0
M  V30 5210 H 484.173 -0.139609 4.22569 0
M  V30 5211 H 481.891 2.77835 7.58837 0
M  V30 5212 H 485.477 1.41105 5.6443 0
M  V30 5213 H 484.357 2.85022 7.3057 0
M  V30 5214 N 481.861 -1.55662 -0.24637 0
M  V30 5215 C 483.108 -1.77519 -0.974335 0
M  V30 5216 C 483.436 -0.591165 -1.85298 0
M  V30 5217 O 482.691 0.425497 -1.91018 0
M  V30 5218 C 482.99 -3.04885 -1.86494 0
M  V30 5219 C 482.656 -4.36209 -1.14161 0
M  V30 5220 C 481.318 -4.71896 -0.941701 0
M  V30 5221 C 483.67 -5.17391 -0.628957 0
M  V30 5222 C 480.998 -5.86299 -0.216852 0
M  V30 5223 C 483.35 -6.32546 0.0824273 0
M  V30 5224 C 482.014 -6.66853 0.293807 0
M  V30 5225 H 481.284 -0.649588 -0.356535 0
M  V30 5226 H 483.931 -1.89934 -0.244394 0
M  V30 5227 H 482.236 -2.87484 -2.66196 0
M  V30 5228 H 483.933 -3.18994 -2.42989 0
M  V30 5229 H 480.523 -4.08174 -1.30736 0
M  V30 5230 H 484.707 -4.90276 -0.770943 0
M  V30 5231 H 479.963 -6.11385 -0.0426124 0
M  V30 5232 H 484.137 -6.94693 0.487292 0
M  V30 5233 H 481.764 -7.55349 0.857428 0
M  V30 5234 N 483.339 0.512053 -1.4905 0
M  V30 5235 C 484.588 1.26343 -1.57227 0
M  V30 5236 C 484.901 1.93876 -0.259155 0
M  V30 5237 O 486.107 2.70612 -0.219358 0
M  V30 5238 C 484.563 2.29343 -2.77362 0
M  V30 5239 C 484.171 1.67799 -4.15388 0
M  V30 5240 C 485.915 3.05378 -2.94864 0
M  V30 5241 C 483.822 2.68845 -5.2676 0
M  V30 5242 H 482.752 0.475231 -0.585382 0
M  V30 5243 H 485.403 0.53862 -1.75417 0
M  V30 5244 H 483.785 3.04938 -2.52643 0
M  V30 5245 H 484.959 0.982715 -4.50199 0
M  V30 5246 H 483.274 1.04194 -4.03153 0
M  V30 5247 H 485.871 3.80921 -3.75238 0
M  V30 5248 H 486.214 3.62327 -2.05 0
M  V30 5249 H 486.747 2.36898 -3.19569 0
M  V30 5250 H 483.486 2.16692 -6.18647 0
M  V30 5251 H 483.006 3.36647 -4.96416 0
M  V30 5252 H 484.685 3.31487 -5.5563 0
M  V30 5253 N 484.817 1.37938 0.762283 0
M  V30 5254 C 486.064 1.33668 1.52115 0
M  V30 5255 C 486.392 -0.0759538 1.94352 0
M  V30 5256 O 485.647 -1.05121 1.6507 0
M  V30 5257 C 485.946 2.23042 2.79261 0
M  V30 5258 C 485.612 3.71159 2.56031 0
M  V30 5259 C 484.274 4.11523 2.49404 0
M  V30 5260 C 486.626 4.64955 2.35513 0
M  V30 5261 C 483.954 5.43784 2.20263 0
M  V30 5262 C 486.306 5.97464 2.07894 0
M  V30 5263 C 484.97 6.36922 1.99718 0
M  V30 5264 H 484.24 0.489127 0.556629 0
M  V30 5265 H 486.887 1.70224 0.877262 0
M  V30 5266 H 485.192 1.79512 3.48256 0
M  V30 5267 H 486.889 2.17047 3.37182 0
M  V30 5268 H 483.479 3.39153 2.62056 0
M  V30 5269 H 487.663 4.34623 2.39617 0
M  V30 5270 H 482.919 5.73307 2.12435 0
M  V30 5271 H 487.093 6.6969 1.91019 0
M  V30 5272 H 484.72 7.39331 1.76902 0
M  V30 5273 N 486.295 -0.989507 1.22664 0
M  V30 5274 C 487.572 -1.70326 0.961688 0
M  V30 5275 C 487.952 -2.04537 -0.522279 0
M  V30 5276 O 487.3 -1.73136 -1.49118 0
M  V30 5277 C 487.51 -2.95135 1.86269 0
M  V30 5278 C 488.858 -3.67842 2.12078 0
M  V30 5279 O 489.882 -3.0515 1.83745 0
M  V30 5280 O 488.741 -4.80644 2.60083 0
M  V30 5281 H 485.835 -0.743589 0.361946 0
M  V30 5282 H 488.381 -1.04555 1.33665 0
M  V30 5283 H 487.153 -2.66382 2.8663 0
M  V30 5284 H 486.776 -3.68645 1.48952 0
M  V30 5285 N 487.773 -1.03688 -1.18687 0
M  V30 5286 C 489.003 -0.756819 -1.92239 0
M  V30 5287 C 489.411 0.689374 -1.76194 0
M  V30 5288 O 488.754 1.48126 -1.08648 0
M  V30 5289 C 488.816 -1.03851 -3.44173 0
M  V30 5290 C 488.48 -2.47785 -3.83994 0
M  V30 5291 C 489.477 -3.4595 -3.88091 0
M  V30 5292 C 487.162 -2.82397 -4.154 0
M  V30 5293 C 489.156 -4.76779 -4.23038 0
M  V30 5294 C 486.843 -4.13433 -4.50018 0
M  V30 5295 C 487.841 -5.10434 -4.53813 0
M  V30 5296 O 487.529 -6.39122 -4.87625 0
M  V30 5297 H 487.261 -0.275678 -0.617234 0
M  V30 5298 H 489.815 -1.38658 -1.51536 0
M  V30 5299 H 488.045 -0.351612 -3.85098 0
M  V30 5300 H 489.734 -0.746846 -3.9897 0
M  V30 5301 H 490.5 -3.20549 -3.63969 0
M  V30 5302 H 486.379 -2.07568 -4.11627 0
M  V30 5303 H 489.923 -5.52488 -4.25914 0
M  V30 5304 H 485.82 -4.38604 -4.736 0
M  V30 5305 H 486.588 -6.43715 -5.05542 0
M  V30 5306 N 489.251 1.34841 -0.815825 0
M  V30 5307 C 490.5 1.97755 -0.396976 0
M  V30 5308 C 490.813 1.65422 1.04379 0
M  V30 5309 O 492.019 2.21771 1.5662 0
M  V30 5310 C 490.475 3.53818 -0.658869 0
M  V30 5311 C 490.083 3.95051 -2.11278 0
M  V30 5312 C 491.827 4.23397 -0.305834 0
M  V30 5313 C 489.734 5.43997 -2.31994 0
M  V30 5314 H 488.664 0.739985 -0.1447 0
M  V30 5315 H 491.315 1.53781 -1.00118 0
M  V30 5316 H 489.697 3.95997 0.0154112 0
M  V30 5317 H 490.871 3.63998 -2.82564 0
M  V30 5318 H 489.186 3.38388 -2.42657 0
M  V30 5319 H 491.783 5.32899 -0.43854 0
M  V30 5320 H 492.126 4.09508 0.748952 0
M  V30 5321 H 492.659 3.8667 -0.934403 0
M  V30 5322 H 489.398 5.62865 -3.35952 0
M  V30 5323 H 488.918 5.76589 -1.65244 0
M  V30 5324 H 490.597 6.10584 -2.14001 0
M  V30 5325 N 490.729 0.570148 1.46925 0
M  V30 5326 C 491.661 -0.207909 2.28255 0
M  V30 5327 C 492.674 -0.867301 1.37774 0
M  V30 5328 O 493.863 -0.738976 1.62485 0
M  V30 5329 C 490.963 -1.31298 3.12433 0
M  V30 5330 C 490.136 -0.747915 4.30958 0
M  V30 5331 C 489.195 -1.7391 4.9663 0
M  V30 5332 O 488.221 -1.2801 5.54619 0
M  V30 5333 N 489.423 -3.07288 4.92498 0
M  V30 5334 H 492.188 0.489794 2.95671 0
M  V30 5335 H 489.749 0.407076 1.56699 0
M  V30 5336 H 491.741 -1.97507 3.53232 0
M  V30 5337 H 490.311 -1.91373 2.47175 0
M  V30 5338 H 489.531 0.0913066 3.94094 0
M  V30 5339 H 490.819 -0.349958 5.07595 0
M  V30 5340 H 490.217 -3.47213 4.46609 0
M  V30 5341 H 488.774 -3.69021 5.37277 0
M  V30 5342 N 492.207 -1.54576 0.307264 0
M  V30 5343 C 493.137 -2.26708 -0.55907 0
M  V30 5344 C 494.118 -1.26893 -1.1328 0
M  V30 5345 O 495.303 -1.55677 -1.16097 0
M  V30 5346 C 492.433 -3.01259 -1.72801 0
M  V30 5347 C 491.387 -4.08275 -1.28435 0
M  V30 5348 C 490.713 -4.70575 -2.53895 0
M  V30 5349 C 492.013 -5.2068 -0.411038 0
M  V30 5350 H 493.707 -2.9937 0.042576 0
M  V30 5351 H 491.253 -1.43983 0.0219173 0
M  V30 5352 H 493.206 -3.50444 -2.34023 0
M  V30 5353 H 491.93 -2.26187 -2.356 0
M  V30 5354 H 490.589 -3.59949 -0.695161 0
M  V30 5355 H 490.237 -3.92136 -3.15021 0
M  V30 5356 H 489.937 -5.42854 -2.24908 0
M  V30 5357 H 491.461 -5.22527 -3.15908 0
M  V30 5358 H 492.875 -5.65721 -0.929097 0
M  V30 5359 H 491.272 -5.99716 -0.214664 0
M  V30 5360 H 492.342 -4.81629 0.562287 0
M  V30 5361 N 493.685 -0.035106 -1.57561 0
M  V30 5362 C 495.101 0.321334 -1.56332 0
M  V30 5363 C 495.301 1.72509 -1.04129 0
M  V30 5364 O 494.357 2.4287 -0.690694 0
M  V30 5365 C 495.67 0.164469 -3.0025 0
M  V30 5366 C 497.218 0.236786 -3.12103 0
M  V30 5367 C 497.693 0.10864 -4.57871 0
M  V30 5368 N 499.184 0.165433 -4.62904 0
M  V30 5369 C 499.919 0.0901506 -5.73329 0
M  V30 5370 N 499.415 -0.0365606 -6.9279 0
M  V30 5371 N 501.208 0.144572 -5.61914 0
M  V30 5372 H 493.359 -0.952976 -1.89821 0
M  V30 5373 H 495.622 -0.368537 -0.873432 0
M  V30 5374 H 495.328 -0.802746 -3.42416 0
M  V30 5375 H 495.202 0.932194 -3.655 0
M  V30 5376 H 497.589 1.19446 -2.69845 0
M  V30 5377 H 497.67 -0.561419 -2.49563 0
M  V30 5378 H 497.314 -0.845644 -5.00811 0
M  V30 5379 H 497.244 0.925786 -5.18398 0
M  V30 5380 H 499.735 0.263269 -3.76982 0
M  V30 5381 H 500.048 -0.0871487 -7.72751 0
M  V30 5382 H 498.393 -0.0714256 -6.94963 0
M  V30 5383 H 501.584 0.242006 -4.67474 0
M  V30 5384 H 501.757 0.0824413 -6.47948 0
M  V30 5385 N 495.163 1.55791 0.238111 0
M  V30 5386 C 496.411 1.77681 0.963001 0
M  V30 5387 C 496.732 0.600674 1.85518 0
M  V30 5388 O 496.002 -0.383182 1.92116 0
M  V30 5389 H 494.582 0.655315 0.358568 0
M  V30 5390 H 497.244 1.93239 0.253945 0
M  V30 5391 H 496.34 2.69177 1.57956 0
M  V30 5392 N 496.642 -0.504142 1.49319 0
M  V30 5393 C 497.888 -1.26033 1.58882 0
M  V30 5394 C 498.221 -1.92268 0.273274 0
M  V30 5395 O 497.496 -1.80567 -0.72291 0
M  V30 5396 C 497.779 -2.32976 2.7458 0
M  V30 5397 C 497.632 -1.71263 4.1592 0
M  V30 5398 C 498.951 -3.34561 2.85932 0
M  V30 5399 H 496.07 -0.456863 0.578312 0
M  V30 5400 H 498.712 -0.558965 1.81592 0
M  V30 5401 H 496.862 -2.92796 2.55348 0
M  V30 5402 H 498.534 -1.15294 4.4666 0
M  V30 5403 H 496.777 -1.01686 4.21714 0
M  V30 5404 H 497.448 -2.48816 4.92742 0
M  V30 5405 H 499.924 -2.84727 3.0343 0
M  V30 5406 H 498.8 -4.06754 3.68568 0
M  V30 5407 H 499.061 -3.96695 1.95154 0
M  V30 5408 N 498.12 -1.38341 -0.754957 0
M  V30 5409 C 499.052 -1.31347 -1.87831 0
M  V30 5410 C 500.065 -0.225955 -1.61224 0
M  V30 5411 O 501.254 -0.48341 -1.7183 0
M  V30 5412 C 498.354 -1.01201 -3.23437 0
M  V30 5413 C 497.527 -2.20834 -3.77559 0
M  V30 5414 C 496.586 -1.87454 -4.91678 0
M  V30 5415 O 495.612 -2.59934 -5.06382 0
M  V30 5416 N 496.814 -0.828682 -5.74555 0
M  V30 5417 H 499.579 -2.28147 -1.94342 0
M  V30 5418 H 497.14 -1.32184 -0.934828 0
M  V30 5419 H 499.132 -0.769249 -3.97322 0
M  V30 5420 H 497.702 -0.132011 -3.12321 0
M  V30 5421 H 496.922 -2.61184 -2.95256 0
M  V30 5422 H 498.21 -3.00678 -4.10451 0
M  V30 5423 H 497.608 -0.227591 -5.65242 0
M  V30 5424 H 496.165 -0.645802 -6.48593 0
M  V30 5425 N 499.598 0.982988 -1.23187 0
M  V30 5426 C 500.846 1.72052 -1.06031 0
M  V30 5427 C 501.167 1.90769 0.404019 0
M  V30 5428 O 500.437 1.47446 1.28982 0
M  V30 5429 H 499.017 0.637499 -0.389363 0
M  V30 5430 H 501.679 1.18338 -1.54862 0
M  V30 5431 H 500.775 2.7111 -1.54615 0
M  V30 5432 N 501.076 1.04316 1.18135 0
M  V30 5433 C 502.324 0.746542 1.87806 0
M  V30 5434 C 502.645 -0.728082 1.80898 0
M  V30 5435 O 501.915 -1.52554 1.22899 0
M  V30 5436 H 500.495 0.273157 0.695265 0
M  V30 5437 H 503.157 1.32044 1.43354 0
M  V30 5438 H 502.253 1.05362 2.93778 0
M  V30 5439 N 502.554 -1.34406 0.822964 0
M  V30 5440 C 503.782 -2.02508 0.424039 0
M  V30 5441 C 504.197 -1.61975 -0.970022 0
M  V30 5442 O 503.554 -0.825228 -1.62777 0
M  V30 5443 C 503.605 -3.57789 0.516657 0
M  V30 5444 O 503.326 -3.96853 1.85577 0
M  V30 5445 C 504.827 -4.43157 0.112637 0
M  V30 5446 H 502.047 -0.649063 0.170173 0
M  V30 5447 H 504.591 -1.7168 1.11113 0
M  V30 5448 H 502.746 -3.87207 -0.122353 0
M  V30 5449 H 503.16 -4.91538 1.83005 0
M  V30 5450 H 504.634 -5.51527 0.228526 0
M  V30 5451 H 505.111 -4.28939 -0.943837 0
M  V30 5452 H 505.717 -4.19067 0.725449 0
M  V30 5453 N 504.032 -0.577932 -1.46621 0
M  V30 5454 C 504.962 0.145917 -2.33044 0
M  V30 5455 C 505.943 0.888412 -1.45056 0
M  V30 5456 O 507.128 0.864812 -1.73881 0
M  V30 5457 C 504.258 1.16322 -3.27241 0
M  V30 5458 C 503.212 0.535868 -4.24632 0
M  V30 5459 C 502.538 1.65929 -5.08303 0
M  V30 5460 C 503.838 -0.523861 -5.19666 0
M  V30 5461 H 505.532 -0.575636 -2.93814 0
M  V30 5462 H 503.078 -0.278272 -1.41286 0
M  V30 5463 H 505.031 1.67793 -3.86553 0
M  V30 5464 H 503.755 1.91498 -2.64567 0
M  V30 5465 H 502.414 0.0422759 -3.66576 0
M  V30 5466 H 502.062 2.40061 -4.42018 0
M  V30 5467 H 501.762 1.2452 -5.74255 0
M  V30 5468 H 503.286 2.17686 -5.70478 0
M  V30 5469 H 504.7 -0.0944059 -5.73222 0
M  V30 5470 H 503.097 -0.858 -5.93935 0
M  V30 5471 H 504.167 -1.41197 -4.63887 0
M  V30 5472 N 505.51 1.54411 -0.315457 0
M  V30 5473 C 506.75 2.02329 0.290236 0
M  V30 5474 C 507.114 1.19878 1.49977 0
M  V30 5475 O 508.315 1.57562 2.17779 0
M  V30 5476 C 506.586 3.51912 0.623937 0
M  V30 5477 S 508.145 4.21775 1.21044 0
M  V30 5478 H 504.963 0.705499 0.0882739 0
M  V30 5479 H 507.565 1.90328 -0.446694 0
M  V30 5480 H 506.269 4.09546 -0.264624 0
M  V30 5481 H 505.8 3.67977 1.39128 0
M  V30 5482 H 507.815 4.28757 2.49764 0
M  V30 5483 N 506.988 0.0434614 1.5754 0
M  V30 5484 C 508.235 -0.632035 1.92384 0
M  V30 5485 C 508.563 -1.71304 0.921157 0
M  V30 5486 O 507.818 -1.95583 -0.067744 0
M  V30 5487 C 508.117 -1.2738 3.3393 0
M  V30 5488 C 507.783 -0.321757 4.49751 0
M  V30 5489 C 506.445 -0.0597611 4.81163 0
M  V30 5490 C 508.797 0.331158 5.20147 0
M  V30 5491 C 506.125 0.862715 5.80322 0
M  V30 5492 C 508.477 1.24178 6.20292 0
M  V30 5493 C 507.141 1.51252 6.50138 0
M  V30 5494 H 506.411 -0.231278 0.703983 0
M  V30 5495 H 509.058 0.108294 1.91194 0
M  V30 5496 H 507.363 -2.08921 3.3145 0
M  V30 5497 H 509.06 -1.80326 3.58167 0
M  V30 5498 H 505.65 -0.53614 4.25233 0
M  V30 5499 H 509.834 0.141826 4.96097 0
M  V30 5500 H 505.09 1.08003 6.01785 0
M  V30 5501 H 509.264 1.75381 6.73954 0
M  V30 5502 H 506.891 2.22897 7.26788 0
M  V30 5503 N 508.466 -1.55915 -0.229846 0
M  V30 5504 C 509.691 -1.8296 -0.976743 0
M  V30 5505 C 510.116 -0.622735 -1.77493 0
M  V30 5506 O 509.474 0.428431 -1.76165 0
M  V30 5507 C 509.522 -3.07916 -1.8767 0
M  V30 5508 O 508.626 -2.86028 -2.97088 0
M  V30 5509 H 507.967 -0.603453 -0.277021 0
M  V30 5510 H 510.497 -2.0312 -0.245669 0
M  V30 5511 H 510.507 -3.37802 -2.2881 0
M  V30 5512 H 509.182 -3.95389 -1.28996 0
M  V30 5513 H 507.759 -2.67355 -2.59954 0
M  V30 5514 N 509.944 0.496216 -1.49584 0
M  V30 5515 C 510.891 1.59722 -1.66606 0
M  V30 5516 C 511.861 1.58158 -0.507477 0
M  V30 5517 O 513.046 1.76072 -0.735076 0
M  V30 5518 C 510.186 2.97844 -1.74308 0
M  V30 5519 C 509.299 3.09388 -3.01502 0
M  V30 5520 C 508.434 4.38271 -3.00153 0
M  V30 5521 C 507.473 4.43466 -4.21906 0
M  V30 5522 N 506.61 5.63784 -4.1844 0
M  V30 5523 H 511.45 1.44515 -2.60613 0
M  V30 5524 H 508.987 0.703048 -1.29212 0
M  V30 5525 H 510.945 3.77907 -1.76754 0
M  V30 5526 H 509.575 3.11743 -0.837619 0
M  V30 5527 H 508.627 2.22357 -3.08645 0
M  V30 5528 H 509.939 3.09085 -3.91494 0
M  V30 5529 H 509.093 5.2666 -3.01188 0
M  V30 5530 H 507.832 4.41146 -2.07947 0
M  V30 5531 H 506.837 3.53478 -4.21109 0
M  V30 5532 H 508.062 4.42303 -5.1531 0
M  V30 5533 H 506.008 5.67491 -3.29074 0
M  V30 5534 H 505.925 5.65118 -5.02173 0
M  V30 5535 H 507.193 6.54367 -4.23585 0
M  V30 5536 N 511.423 1.38739 0.74761 0
M  V30 5537 C 512.353 1.39173 1.87492 0
M  V30 5538 C 513.334 0.256794 1.6815 0
M  V30 5539 O 514.519 0.460762 1.88655 0
M  V30 5540 C 511.649 1.22197 3.25093 0
M  V30 5541 C 510.603 2.32957 3.59047 0
M  V30 5542 C 509.929 2.01082 4.95449 0
M  V30 5543 C 511.229 3.75237 3.6331 0
M  V30 5544 H 512.923 2.3351 1.87386 0
M  V30 5545 H 510.469 1.12399 0.900134 0
M  V30 5546 H 512.422 1.21124 4.03617 0
M  V30 5547 H 511.146 0.243241 3.25693 0
M  V30 5548 H 509.805 2.33226 2.82845 0
M  V30 5549 H 509.453 1.01678 4.92616 0
M  V30 5550 H 509.153 2.75267 5.19136 0
M  V30 5551 H 510.677 2.01638 5.76346 0
M  V30 5552 H 512.091 3.76966 4.31937 0
M  V30 5553 H 510.488 4.48677 3.98509 0
M  V30 5554 H 511.558 4.07122 2.634 0
M  V30 5555 N 512.901 -0.976442 1.23707 0
M  V30 5556 C 514.178 -1.69296 0.979699 0
M  V30 5557 C 514.558 -2.0508 -0.500555 0
M  V30 5558 O 513.906 -1.74708 -1.47273 0
M  V30 5559 C 514.116 -2.93143 1.89389 0
M  V30 5560 C 515.464 -3.65572 2.15968 0
M  V30 5561 O 516.488 -3.03184 1.86971 0
M  V30 5562 O 515.347 -4.77859 2.65167 0
M  V30 5563 H 512.441 -0.739708 0.369812 0
M  V30 5564 H 514.987 -1.03131 1.34767 0
M  V30 5565 H 513.759 -2.63327 2.89439 0
M  V30 5566 H 513.382 -3.67044 1.52854 0
M  V30 5567 N 514.379 -1.04941 -1.1758 0
M  V30 5568 C 515.609 -0.777166 -1.91425 0
M  V30 5569 C 516.017 0.670647 -1.76915 0
M  V30 5570 O 515.36 1.46965 -1.10213 0
M  V30 5571 C 515.422 -1.07495 -3.43052 0
M  V30 5572 C 515.086 -2.51844 -3.81345 0
M  V30 5573 C 516.083 -3.50047 -3.844 0
M  V30 5574 C 513.768 -2.86787 -4.12382 0
M  V30 5575 C 515.762 -4.81239 -4.17957 0
M  V30 5576 C 513.449 -4.18182 -4.45608 0
M  V30 5577 C 514.447 -5.15219 -4.48373 0
M  V30 5578 O 514.135 -6.44258 -4.80819 0
M  V30 5579 H 513.867 -0.282209 -0.614275 0
M  V30 5580 H 516.421 -1.40258 -1.50056 0
M  V30 5581 H 514.651 -0.392437 -3.84704 0
M  V30 5582 H 516.34 -0.78912 -3.98155 0
M  V30 5583 H 517.106 -3.24391 -3.60548 0
M  V30 5584 H 512.985 -2.11922 -4.09402 0
M  V30 5585 H 516.529 -5.56974 -4.2003 0
M  V30 5586 H 512.426 -4.43602 -4.68922 0
M  V30 5587 H 513.194 -6.49041 -4.98686 0
M  V30 5588 N 515.857 1.33968 -0.830081 0
M  V30 5589 C 516.82 2.27694 -0.26235 0
M  V30 5590 C 517.82 1.50589 0.563876 0
M  V30 5591 O 519.01 1.70028 0.378941 0
M  V30 5592 C 516.142 3.35002 0.63138 0
M  V30 5593 H 517.335 2.79419 -1.08928 0
M  V30 5594 H 514.888 1.44221 -0.602486 0
M  V30 5595 H 515.623 2.88504 1.48109 0
M  V30 5596 H 515.408 3.92079 0.0403276 0
M  V30 5597 H 516.898 4.04897 1.02217 0
M  V30 5598 N 517.335 0.585699 1.46312 0
M  V30 5599 C 518.581 0.0725284 2.0267 0
M  V30 5600 C 518.914 -1.28523 1.45586 0
M  V30 5601 O 518.189 -1.84283 0.622101 0
M  V30 5602 C 518.472 0.0099788 3.60099 0
M  V30 5603 C 518.325 1.39685 4.27561 0
M  V30 5604 C 519.644 -0.689117 4.34671 0
M  V30 5605 H 516.763 0.0278307 0.736474 0
M  V30 5606 H 519.405 0.753472 1.74421 0
M  V30 5607 H 517.555 -0.56992 3.84297 0
M  V30 5608 H 519.227 2.02215 4.14617 0
M  V30 5609 H 517.47 1.96374 3.86807 0
M  V30 5610 H 518.141 1.30553 5.36339 0
M  V30 5611 H 520.617 -0.196446 4.15636 0
M  V30 5612 H 519.493 -0.701921 5.44393 0
M  V30 5613 H 519.754 -1.75101 4.05946 0
M  V30 5614 N 518.813 -1.54241 0.323641 0
M  V30 5615 C 519.776 -2.22997 -0.529602 0
M  V30 5616 C 520.776 -1.22345 -1.04347 0
M  V30 5617 O 521.966 -1.46924 -0.935889 0
M  V30 5618 C 519.098 -2.93409 -1.73562 0
M  V30 5619 H 520.291 -2.99815 0.0714518 0
M  V30 5620 H 517.844 -1.56121 0.0747258 0
M  V30 5621 H 518.579 -2.20729 -2.37591 0
M  V30 5622 H 518.364 -3.67217 -1.37456 0
M  V30 5623 H 519.854 -3.45794 -2.34128 0
M  V30 5624 N 520.291 -0.0518155 -1.57515 0
M  V30 5625 C 521.537 0.616839 -1.93821 0
M  V30 5626 C 521.892 1.68413 -0.930307 0
M  V30 5627 O 521.185 1.91534 0.0504231 0
M  V30 5628 C 521.379 1.25607 -3.34601 0
M  V30 5629 C 521.208 0.252222 -4.48992 0
M  V30 5630 C 519.978 -0.156031 -5.05059 0
M  V30 5631 C 522.176 -0.502613 -5.11838 0
M  V30 5632 N 520.158 -1.15267 -6.02981 0
M  V30 5633 C 521.529 -1.35232 -6.05072 0
M  V30 5634 C 523.584 -0.560855 -4.94731 0
M  V30 5635 C 522.287 -2.25505 -6.83037 0
M  V30 5636 C 524.313 -1.45102 -5.73323 0
M  V30 5637 C 523.675 -2.28845 -6.6619 0
M  V30 5638 H 519.774 0.197344 -0.75669 0
M  V30 5639 H 522.358 -0.124297 -1.94303 0
M  V30 5640 H 520.529 1.96723 -3.34895 0
M  V30 5641 H 522.261 1.88358 -3.58195 0
M  V30 5642 H 519.016 0.22306 -4.73074 0
M  V30 5643 H 519.44 -1.64791 -6.56638 0
M  V30 5644 H 524.082 0.0723639 -4.22738 0
M  V30 5645 H 521.8 -2.89872 -7.54321 0
M  V30 5646 H 525.386 -1.50066 -5.62113 0
M  V30 5647 H 524.266 -2.96608 -7.25943 0
M  V30 5648 N 521.769 1.56035 0.221574 0
M  V30 5649 C 523.016 1.79047 0.94597 0
M  V30 5650 C 523.344 0.62057 1.84334 0
M  V30 5651 O 522.599 -0.395053 1.91671 0
M  V30 5652 C 522.898 3.07813 1.8162 0
M  V30 5653 C 522.564 4.3797 1.07206 0
M  V30 5654 C 521.226 4.73334 0.866508 0
M  V30 5655 C 523.578 5.18326 0.546565 0
M  V30 5656 C 520.906 5.8657 0.123549 0
M  V30 5657 C 523.258 6.32335 -0.18305 0
M  V30 5658 C 521.922 6.66301 -0.399861 0
M  V30 5659 H 521.192 0.655178 0.346155 0
M  V30 5660 H 523.839 1.90299 0.214146 0
M  V30 5661 H 522.144 2.91682 2.61589 0
M  V30 5662 H 523.841 3.2282 2.37884 0
M  V30 5663 H 520.431 4.10202 1.24226 0
M  V30 5664 H 524.615 4.9144 0.692847 0
M  V30 5665 H 519.871 6.11376 -0.0546591 0
M  V30 5666 H 524.045 6.9383 -0.59775 0
M  V30 5667 H 521.672 7.53889 -0.977489 0
M  V30 5668 N 523.247 -0.488276 1.49845 0
M  V30 5669 C 524.496 -1.23826 1.59217 0
M  V30 5670 C 524.809 -1.93439 0.289966 0
M  V30 5671 O 526.015 -2.70229 0.262382 0
M  V30 5672 C 524.471 -2.24902 2.80976 0
M  V30 5673 C 524.079 -1.6117 4.18005 0
M  V30 5674 C 525.823 -3.00648 2.99685 0
M  V30 5675 C 523.73 -2.60431 5.3097 0
M  V30 5676 H 522.66 -0.465858 0.592868 0
M  V30 5677 H 525.311 -0.510645 1.76252 0
M  V30 5678 H 523.693 -3.0088 2.57463 0
M  V30 5679 H 524.867 -0.910968 4.51706 0
M  V30 5680 H 523.182 -0.97767 4.0476 0
M  V30 5681 H 525.779 -3.74903 3.81251 0
M  V30 5682 H 526.122 -3.5902 2.10738 0
M  V30 5683 H 526.655 -2.31784 3.23297 0
M  V30 5684 H 523.394 -2.06823 6.22017 0
M  V30 5685 H 522.914 -3.28707 5.01709 0
M  V30 5686 H 524.593 -3.22606 5.60834 0
M  V30 5687 N 524.725 -1.39134 -0.740242 0
M  V30 5688 C 526.141 -1.20623 -1.0451 0
M  V30 5689 C 526.341 -0.0641651 -2.01398 0
M  V30 5690 O 525.397 0.585843 -2.4561 0
M  V30 5691 C 526.71 -2.53815 -1.6124 0
M  V30 5692 C 528.258 -2.60615 -1.73346 0
M  V30 5693 C 528.733 -3.94015 -2.33486 0
M  V30 5694 N 530.224 -3.95627 -2.40902 0
M  V30 5695 C 530.959 -4.95616 -2.88361 0
M  V30 5696 N 530.455 -6.06003 -3.35756 0
M  V30 5697 N 532.248 -4.82998 -2.87523 0
M  V30 5698 H 524.399 -2.12176 -0.0975576 0
M  V30 5699 H 526.662 -0.942066 -0.105904 0
M  V30 5700 H 526.368 -3.37911 -0.975144 0
M  V30 5701 H 526.242 -2.73162 -2.6012 0
M  V30 5702 H 528.629 -1.76906 -2.36195 0
M  V30 5703 H 528.71 -2.45123 -0.731336 0
M  V30 5704 H 528.354 -4.78153 -1.71267 0
M  V30 5705 H 528.284 -4.06825 -3.34366 0
M  V30 5706 H 530.775 -3.15903 -2.07398 0
M  V30 5707 H 531.088 -6.78215 -3.70464 0
M  V30 5708 H 529.433 -6.09604 -3.33778 0
M  V30 5709 H 532.624 -3.95866 -2.49816 0
M  V30 5710 H 532.797 -5.61072 -3.24196 0
M  V30 5711 N 526.204 0.969867 -1.24223 0
M  V30 5712 C 527.114 2.09806 -1.0497 0
M  V30 5713 C 528.13 1.73998 0.00886455 0
M  V30 5714 O 529.306 2.00513 -0.188848 0
M  V30 5715 C 526.371 3.40467 -0.654452 0
M  V30 5716 C 525.432 3.90236 -1.78926 0
M  V30 5717 C 524.665 5.14662 -1.41277 0
M  V30 5718 O 524.888 5.69602 -0.301632 0
M  V30 5719 O 523.822 5.58761 -2.23763 0
M  V30 5720 H 527.648 2.28942 -1.99548 0
M  V30 5721 H 525.233 1.08197 -1.03023 0
M  V30 5722 H 527.115 4.19039 -0.445452 0
M  V30 5723 H 525.79 3.22636 0.262216 0
M  V30 5724 H 524.697 3.12735 -2.05299 0
M  V30 5725 H 526.03 4.1254 -2.68462 0
M  V30 5726 N 527.682 1.05563 1.17022 0
M  V30 5727 C 528.907 0.788437 1.91829 0
M  V30 5728 C 529.332 -0.650356 1.76499 0
M  V30 5729 O 528.69 -1.45229 1.08527 0
M  V30 5730 C 528.738 1.1786 3.40795 0
M  V30 5731 O 527.842 0.312965 4.11211 0
M  V30 5732 H 527.183 0.288794 0.597908 0
M  V30 5733 H 529.713 1.40948 1.48307 0
M  V30 5734 H 529.723 1.14697 3.91546 0
M  V30 5735 H 528.398 2.22666 3.51273 0
M  V30 5736 H 526.975 0.405515 3.70689 0
M  V30 5737 N 529.16 -1.33526 0.837174 0
M  V30 5738 C 530.093 -2.27192 0.214233 0
M  V30 5739 C 531.071 -1.49575 -0.637657 0
M  V30 5740 O 532.255 -1.78753 -0.598291 0
M  V30 5741 C 529.382 -3.31401 -0.699367 0
M  V30 5742 C 528.428 -4.26431 0.0768429 0
M  V30 5743 S 529.261 -5.15954 1.4336 0
M  V30 5744 C 530.417 -6.23692 0.525251 0
M  V30 5745 H 530.65 -2.79679 1.00831 0
M  V30 5746 H 528.183 -1.4079 0.633834 0
M  V30 5747 H 530.141 -3.91924 -1.22088 0
M  V30 5748 H 528.802 -2.77732 -1.46709 0
M  V30 5749 H 527.995 -5.00193 -0.618268 0
M  V30 5750 H 527.597 -3.70235 0.529364 0
M  V30 5751 H 529.889 -6.76931 -0.277575 0
M  V30 5752 H 530.832 -6.97283 1.23299 0
M  V30 5753 H 531.24 -5.64398 0.107351 0
M  V30 5754 N 530.638 -0.59345 -1.46 0
M  V30 5755 C 531.866 -0.0890934 -2.06708 0
M  V30 5756 C 532.281 1.2205 -1.44046 0
M  V30 5757 O 531.638 1.74029 -0.549551 0
M  V30 5758 C 531.689 0.0720263 -3.61428 0
M  V30 5759 O 531.41 -1.18574 -4.21748 0
M  V30 5760 C 532.911 0.609487 -4.3909 0
M  V30 5761 H 530.131 -0.0623628 -0.668096 0
M  V30 5762 H 532.675 -0.817171 -1.87464 0
M  V30 5763 H 530.83 0.750369 -3.80063 0
M  V30 5764 H 531.244 -1.0064 -5.14754 0
M  V30 5765 H 532.718 0.671363 -5.47902 0
M  V30 5766 H 533.195 1.62878 -4.07882 0
M  V30 5767 H 533.801 -0.03434 -4.25286 0
M  V30 5768 N 532.116 1.54067 -0.331816 0
M  V30 5769 C 533.365 1.99895 0.269209 0
M  V30 5770 C 533.678 1.22371 1.52593 0
M  V30 5771 O 534.884 1.58618 2.20347 0
M  V30 5772 C 533.34 3.55972 0.530244 0
M  V30 5773 C 532.948 4.4234 -0.709901 0
M  V30 5774 C 534.692 4.10247 1.09077 0
M  V30 5775 C 532.599 5.89905 -0.420312 0
M  V30 5776 H 531.529 0.746741 0.104371 0
M  V30 5777 H 534.18 1.78014 -0.445324 0
M  V30 5778 H 532.562 3.73873 1.30518 0
M  V30 5779 H 533.736 4.36215 -1.48504 0
M  V30 5780 H 532.051 3.98997 -1.19123 0
M  V30 5781 H 534.648 5.18095 1.32219 0
M  V30 5782 H 534.991 3.62739 2.0427 0
M  V30 5783 H 535.524 3.96011 0.376824 0
M  V30 5784 H 532.263 6.41623 -1.34164 0
M  V30 5785 H 531.783 5.98962 0.316962 0
M  V30 5786 H 533.462 6.46991 -0.0331956 0
M  V30 5787 N 533.594 0.0601682 1.57485 0
M  V30 5788 C 534.824 -0.620037 1.97076 0
M  V30 5789 C 535.232 -1.64381 0.936784 0
M  V30 5790 O 534.575 -1.83497 -0.0863377 0
M  V30 5791 C 534.637 -1.35617 3.32939 0
M  V30 5792 C 534.301 -0.487208 4.54396 0
M  V30 5793 C 535.298 0.250428 5.19297 0
M  V30 5794 C 532.983 -0.415494 5.00579 0
M  V30 5795 C 534.977 1.04812 6.28723 0
M  V30 5796 C 532.664 0.385879 6.0988 0
M  V30 5797 C 533.662 1.11637 6.73815 0
M  V30 5798 O 533.35 1.90454 7.81014 0
M  V30 5799 H 533.082 -0.173664 0.653312 0
M  V30 5800 H 535.636 0.1256 2.05016 0
M  V30 5801 H 533.866 -2.14763 3.2158 0
M  V30 5802 H 535.555 -1.92749 3.57215 0
M  V30 5803 H 536.321 0.204546 4.84568 0
M  V30 5804 H 532.2 -0.973679 4.506 0
M  V30 5805 H 535.744 1.6188 6.78558 0
M  V30 5806 H 531.641 0.433366 6.44044 0
M  V30 5807 H 532.409 1.82762 7.97835 0
M  V30 5808 N 535.072 -1.5615 -0.213296 0
M  V30 5809 C 536.321 -1.78743 -0.93455 0
M  V30 5810 C 536.634 -0.630199 -1.8517 0
M  V30 5811 O 537.84 -0.739966 -2.61222 0
M  V30 5812 C 536.296 -3.16571 -1.71203 0
M  V30 5813 C 535.904 -4.40043 -0.840617 0
M  V30 5814 C 537.648 -3.48485 -2.42401 0
M  V30 5815 C 535.555 -5.68895 -1.61592 0
M  V30 5816 H 534.485 -0.666426 -0.352692 0
M  V30 5817 H 537.136 -1.82532 -0.188227 0
M  V30 5818 H 535.518 -3.06981 -2.50157 0
M  V30 5819 H 536.692 -4.6071 -0.0910326 0
M  V30 5820 H 535.007 -4.15706 -0.240365 0
M  V30 5821 H 537.604 -4.41983 -3.00924 0
M  V30 5822 H 537.947 -2.71371 -3.15695 0
M  V30 5823 H 538.48 -3.59442 -1.7043 0
M  V30 5824 H 535.219 -6.48925 -0.926106 0
M  V30 5825 H 534.739 -5.52275 -2.33991 0
M  V30 5826 H 536.418 -6.09365 -2.17447 0
M  V30 5827 N 536.55 0.480323 -1.50102 0
M  V30 5828 C 537.797 1.23307 -1.60629 0
M  V30 5829 C 538.125 1.92135 -0.302375 0
M  V30 5830 O 537.38 1.82321 0.711154 0
M  V30 5831 C 537.679 2.30708 -2.72963 0
M  V30 5832 C 537.345 1.79195 -4.13763 0
M  V30 5833 C 536.007 1.64867 -4.52076 0
M  V30 5834 C 538.359 1.40878 -5.018 0
M  V30 5835 C 535.687 1.10631 -5.76175 0
M  V30 5836 C 538.039 0.880872 -6.26437 0
M  V30 5837 C 536.703 0.724146 -6.6356 0
M  V30 5838 H 535.973 0.451211 -0.587784 0
M  V30 5839 H 538.62 0.53051 -1.84005 0
M  V30 5840 H 536.925 3.06834 -2.43639 0
M  V30 5841 H 538.622 2.88692 -2.78313 0
M  V30 5842 H 535.212 1.91313 -3.83533 0
M  V30 5843 H 539.396 1.50786 -4.7284 0
M  V30 5844 H 534.652 0.972263 -6.0362 0
M  V30 5845 H 538.826 0.575269 -6.9402 0
M  V30 5846 H 536.453 0.301722 -7.59601 0
M  V30 5847 N 538.028 1.39524 0.732853 0
M  V30 5848 C 538.958 1.41153 1.86005 0
M  V30 5849 C 539.939 0.274614 1.67869 0
M  V30 5850 O 541.124 0.480745 1.88155 0
M  V30 5851 C 538.254 1.25638 3.23778 0
M  V30 5852 C 537.208 2.36752 3.56556 0
M  V30 5853 C 536.534 2.06326 4.93289 0
M  V30 5854 C 537.834 3.79069 3.5931 0
M  V30 5855 H 539.528 2.35484 1.84899 0
M  V30 5856 H 537.074 1.13348 0.888162 0
M  V30 5857 H 539.027 1.25398 4.0231 0
M  V30 5858 H 537.751 0.277772 3.25417 0
M  V30 5859 H 536.41 2.36213 2.80355 0
M  V30 5860 H 536.058 1.06897 4.9151 0
M  V30 5861 H 535.758 2.80757 5.16187 0
M  V30 5862 H 537.282 2.07739 5.74175 0
M  V30 5863 H 538.696 3.81526 4.27914 0
M  V30 5864 H 537.093 4.52878 3.93728 0
M  V30 5865 H 538.163 4.09893 2.59068 0
M  V30 5866 N 539.506 -0.963266 1.24736 0
M  V30 5867 C 540.731 -1.74699 1.11781 0
M  V30 5868 C 541.156 -1.85267 -0.325258 0
M  V30 5869 O 540.514 -1.32681 -1.23553 0
M  V30 5870 C 540.562 -3.14322 1.76731 0
M  V30 5871 O 539.666 -3.99043 1.04109 0
M  V30 5872 H 539.007 -0.53684 0.390767 0
M  V30 5873 H 541.537 -1.20801 1.65131 0
M  V30 5874 H 541.547 -3.64824 1.82668 0
M  V30 5875 H 540.222 -3.05946 2.81726 0
M  V30 5876 H 538.799 -3.5752 1.05991 0
M  V30 5877 N 540.985 -1.06182 -1.16461 0
M  V30 5878 C 541.948 -0.675723 -2.19013 0
M  V30 5879 C 542.948 0.277963 -1.58379 0
M  V30 5880 O 544.138 0.0604962 -1.74095 0
M  V30 5881 C 541.27 0.00591459 -3.40899 0
M  V30 5882 H 542.463 -1.58353 -2.54685 0
M  V30 5883 H 540.016 -0.856908 -1.30716 0
M  V30 5884 H 540.751 0.92652 -3.10783 0
M  V30 5885 H 540.536 -0.67984 -3.86161 0
M  V30 5886 H 542.026 0.26181 -4.16778 0
M  V30 5887 N 542.463 1.3308 -0.844243 0
M  V30 5888 C 543.393 2.3161 -0.296493 0
M  V30 5889 C 544.374 1.59215 0.598707 0
M  V30 5890 O 545.559 1.87077 0.521134 0
M  V30 5891 C 542.689 3.43313 0.524762 0
M  V30 5892 C 541.643 4.27115 -0.275106 0
M  V30 5893 C 540.969 5.30483 0.670236 0
M  V30 5894 C 542.269 5.00443 -1.49514 0
M  V30 5895 H 543.963 2.77672 -1.11976 0
M  V30 5896 H 541.509 1.33496 -0.539899 0
M  V30 5897 H 543.462 4.11273 0.918298 0
M  V30 5898 H 542.186 2.95952 1.3813 0
M  V30 5899 H 540.845 3.60787 -0.650267 0
M  V30 5900 H 540.493 4.79379 1.52332 0
M  V30 5901 H 540.193 5.87435 0.139123 0
M  V30 5902 H 541.717 6.01308 1.06117 0
M  V30 5903 H 543.131 5.61141 -1.17447 0
M  V30 5904 H 541.528 5.67071 -1.96343 0
M  V30 5905 H 542.598 4.28906 -2.26202 0
M  V30 5906 N 543.941 0.601185 1.45683 0
M  V30 5907 C 545.187 0.102425 2.03142 0
M  V30 5908 C 545.542 -1.25066 1.46207 0
M  V30 5909 O 544.835 -1.81126 0.624806 0
M  V30 5910 C 545.029 -0.00222425 3.574 0
M  V30 5911 C 544.858 1.33917 4.29298 0
M  V30 5912 C 543.628 1.91818 4.67476 0
M  V30 5913 C 545.826 2.26652 4.61664 0
M  V30 5914 N 543.808 3.19504 5.24204 0
M  V30 5915 C 545.179 3.38933 5.19157 0
M  V30 5916 C 547.234 2.26103 4.43601 0
M  V30 5917 C 545.937 4.50823 5.60492 0
M  V30 5918 C 547.963 3.37036 4.85964 0
M  V30 5919 C 547.325 4.48039 5.43545 0
M  V30 5920 H 543.424 0.0806974 0.777825 0
M  V30 5921 H 546.008 0.798134 1.77589 0
M  V30 5922 H 544.179 -0.66714 3.82627 0
M  V30 5923 H 545.911 -0.507058 4.01511 0
M  V30 5924 H 542.666 1.45097 4.50826 0
M  V30 5925 H 543.09 3.84705 5.57073 0
M  V30 5926 H 547.732 1.41547 3.98402 0
M  V30 5927 H 545.45 5.36108 6.0466 0
M  V30 5928 H 549.036 3.37752 4.73725 0
M  V30 5929 H 547.916 5.32459 5.75723 0
M  V30 5930 N 545.419 -1.53889 0.339982 0
M  V30 5931 C 546.696 -1.93084 -0.312719 0
M  V30 5932 C 547.076 -1.2712 -1.68534 0
M  V30 5933 O 546.424 -0.420835 -2.24591 0
M  V30 5934 C 546.634 -3.4683 -0.388558 0
M  V30 5935 C 547.982 -4.19732 -0.641088 0
M  V30 5936 O 549.006 -3.53075 -0.470818 0
M  V30 5937 O 547.865 -5.3781 -0.970685 0
M  V30 5938 H 544.959 -0.806784 -0.18174 0
M  V30 5939 H 547.505 -1.65137 0.390898 0
M  V30 5940 H 546.277 -3.87055 0.574821 0
M  V30 5941 H 545.9 -3.80933 -1.1391 0
M  V30 5942 N 546.897 -0.0685191 -1.57451 0
M  V30 5943 C 548.308 0.464634 -1.80826 0
M  V30 5944 C 548.659 1.69847 -0.982169 0
M  V30 5945 O 547.784 2.15439 -0.203734 0
M  V30 5946 C 548.379 0.849721 -3.27971 0
M  V30 5947 C 546.938 1.32776 -3.52204 0
M  V30 5948 C 546.085 0.311332 -2.75547 0
M  V30 5949 H 549.036 -0.294248 -1.55948 0
M  V30 5950 H 549.057 1.71138 -3.39841 0
M  V30 5951 H 548.569 -0.0484736 -3.8807 0
M  V30 5952 H 546.67 2.24456 -2.97406 0
M  V30 5953 H 546.783 1.30794 -4.60901 0
M  V30 5954 H 545.147 0.787915 -2.42206 0
M  V30 5955 H 545.93 -0.579078 -3.38381 0
M  V30 5956 N 548.375 1.56261 0.205012 0
M  V30 5957 C 549.603 1.84141 0.943386 0
M  V30 5958 C 550.018 0.649772 1.77266 0
M  V30 5959 O 549.375 -0.381612 1.78466 0
M  V30 5960 C 549.426 3.10719 1.84759 0
M  V30 5961 O 549.147 4.25286 1.05181 0
M  V30 5962 C 550.648 3.51706 2.69848 0
M  V30 5963 H 547.868 0.611734 0.275721 0
M  V30 5964 H 550.412 2.03364 0.215253 0
M  V30 5965 H 548.567 2.93422 2.52947 0
M  V30 5966 H 548.981 4.97301 1.66709 0
M  V30 5967 H 550.455 4.43266 3.28967 0
M  V30 5968 H 550.932 2.7423 3.43067 0
M  V30 5969 H 551.538 3.71499 2.07047 0
M  V30 5970 N 549.853 -0.472356 1.50355 0
M  V30 5971 C 551.102 -1.2213 1.60522 0
M  V30 5972 C 551.415 -1.9312 0.310466 0
M  V30 5973 O 552.621 -2.69936 0.291029 0
M  V30 5974 C 551.077 -2.21909 2.83345 0
M  V30 5975 C 550.685 -1.56727 4.19691 0
M  V30 5976 C 552.429 -2.97453 3.02856 0
M  V30 5977 C 550.336 -2.54785 5.33703 0
M  V30 5978 H 549.266 -0.459543 0.597776 0
M  V30 5979 H 551.917 -0.491922 1.76783 0
M  V30 5980 H 550.299 -2.98133 2.60639 0
M  V30 5981 H 551.473 -0.863007 4.52646 0
M  V30 5982 H 549.788 -0.934685 4.05774 0
M  V30 5983 H 552.385 -3.70838 3.85205 0
M  V30 5984 H 552.728 -3.56764 2.14534 0
M  V30 5985 H 553.261 -2.28342 3.25737 0
M  V30 5986 H 550 -2.00214 6.24175 0
M  V30 5987 H 549.52 -3.23367 5.05167 0
M  V30 5988 H 551.199 -3.16639 5.64224 0
M  V30 5989 N 551.331 -1.39911 -0.725443 0
M  V30 5990 C 552.556 -1.41137 -1.5197 0
M  V30 5991 C 552.981 -0.010262 -1.88097 0
M  V30 5992 O 552.339 0.979184 -1.52583 0
M  V30 5993 C 552.387 -2.2994 -2.77777 0
M  V30 5994 O 551.491 -1.73586 -3.74088 0
M  V30 5995 H 550.832 -0.480219 -0.458569 0
M  V30 5996 H 553.362 -1.84023 -0.894249 0
M  V30 5997 H 553.372 -2.44785 -3.26411 0
M  V30 5998 H 552.047 -3.31759 -2.50816 0
M  V30 5999 H 550.624 -1.68035 -3.32894 0
M  V30 6000 N 552.809 0.956637 -1.25245 0
M  V30 6001 C 554.055 1.70413 -1.11044 0
M  V30 6002 C 554.41 1.89275 0.345377 0
M  V30 6003 O 553.703 1.45116 1.25107 0
M  V30 6004 C 553.897 3.08996 -1.79601 0
M  V30 6005 C 553.726 3.03654 -3.317 0
M  V30 6006 C 552.496 3.07521 -4.00947 0
M  V30 6007 C 554.694 2.84975 -4.28128 0
M  V30 6008 N 552.676 2.92316 -5.39838 0
M  V30 6009 C 554.047 2.7818 -5.5409 0
M  V30 6010 C 556.102 2.6964 -4.18568 0
M  V30 6011 C 554.805 2.57616 -6.71585 0
M  V30 6012 C 556.831 2.50447 -5.35752 0
M  V30 6013 C 556.193 2.4437 -6.60653 0
M  V30 6014 H 552.292 0.631642 -0.461035 0
M  V30 6015 H 554.876 1.13331 -1.58317 0
M  V30 6016 H 553.047 3.64248 -1.34826 0
M  V30 6017 H 554.779 3.72515 -1.58161 0
M  V30 6018 H 551.534 3.16635 -3.52192 0
M  V30 6019 H 551.958 2.87923 -6.12723 0
M  V30 6020 H 556.6 2.73113 -3.22752 0
M  V30 6021 H 554.318 2.52885 -7.67512 0
M  V30 6022 H 557.904 2.39509 -5.30214 0
M  V30 6023 H 556.784 2.29712 -7.49801 0
M  V30 6024 N 554.287 1.06798 1.15896 0
M  V30 6025 C 555.703 0.792423 1.38538 0
M  V30 6026 C 555.903 -0.60592 1.92174 0
M  V30 6027 O 554.959 -1.36561 2.12385 0
M  V30 6028 C 556.272 1.86157 2.36149 0
M  V30 6029 C 557.82 1.88567 2.49823 0
M  V30 6030 C 558.295 2.9455 3.5072 0
M  V30 6031 N 559.786 2.93616 3.58251 0
M  V30 6032 C 560.521 3.72267 4.36125 0
M  V30 6033 N 560.017 4.60751 5.17379 0
M  V30 6034 N 561.81 3.60637 4.31158 0
M  V30 6035 H 553.961 1.96993 0.794198 0
M  V30 6036 H 556.224 0.853942 0.411688 0
M  V30 6037 H 555.93 2.86603 2.03843 0
M  V30 6038 H 555.804 1.71692 3.3586 0
M  V30 6039 H 558.191 0.887765 2.8143 0
M  V30 6040 H 558.272 2.0711 1.5013 0
M  V30 6041 H 557.916 3.94537 3.19849 0
M  V30 6042 H 557.846 2.73255 4.50155 0
M  V30 6043 H 560.337 2.29472 3.00252 0
M  V30 6044 H 560.65 5.17408 5.74028 0
M  V30 6045 H 558.995 4.64803 5.16704 0
M  V30 6046 H 562.186 2.90892 3.66742 0
M  V30 6047 H 562.359 4.22176 4.91601 0
M  V30 6048 N 555.766 -1.3263 0.851289 0
M  V30 6049 C 556.994 -2.01563 0.466899 0
M  V30 6050 C 557.409 -1.63996 -0.935447 0
M  V30 6051 O 556.766 -0.85957 -1.6099 0
M  V30 6052 C 556.817 -3.56613 0.592433 0
M  V30 6053 O 556.538 -3.92828 1.93954 0
M  V30 6054 C 558.039 -4.42818 0.206612 0
M  V30 6055 H 555.259 -0.645307 0.183902 0
M  V30 6056 H 557.803 -1.69285 1.1473 0
M  V30 6057 H 555.958 -3.87379 -0.0401936 0
M  V30 6058 H 556.372 -4.87545 1.9339 0
M  V30 6059 H 557.846 -5.50918 0.345462 0
M  V30 6060 H 558.323 -4.30844 -0.85264 0
M  V30 6061 H 558.929 -4.17434 0.814176 0
M  V30 6062 N 557.244 -0.608902 -1.45362 0
M  V30 6063 C 558.492 -0.104401 -2.0183 0
M  V30 6064 C 558.813 1.27007 -1.47967 0
M  V30 6065 O 558.083 1.83924 -0.674455 0
M  V30 6066 H 556.663 -0.0356042 -0.746151 0
M  V30 6067 H 559.325 -0.790596 -1.78145 0
M  V30 6068 H 558.421 -0.0551793 -3.12051 0
M  V30 6069 N 558.722 1.53707 -0.348139 0
M  V30 6070 C 560.138 1.596 0.00361134 0
M  V30 6071 C 560.338 1.36394 1.4832 0
M  V30 6072 O 559.394 1.16046 2.24253 0
M  V30 6073 C 560.707 2.97512 -0.436682 0
M  V30 6074 C 562.255 3.10568 -0.389416 0
M  V30 6075 C 562.73 4.50866 -0.805249 0
M  V30 6076 N 564.221 4.56929 -0.759616 0
M  V30 6077 C 564.956 5.63643 -1.05327 0
M  V30 6078 N 564.452 6.78189 -1.41531 0
M  V30 6079 N 566.245 5.5354 -0.977207 0
M  V30 6080 H 558.396 1.67044 -1.31187 0
M  V30 6081 H 560.659 0.782559 -0.535075 0
M  V30 6082 H 560.365 3.19575 -1.46849 0
M  V30 6083 H 560.239 3.76742 0.185744 0
M  V30 6084 H 562.626 2.88226 0.633228 0
M  V30 6085 H 562.707 2.33387 -1.04711 0
M  V30 6086 H 562.351 4.73943 -1.82593 0
M  V30 6087 H 562.281 5.26452 -0.124989 0
M  V30 6088 H 564.772 3.74675 -0.49265 0
M  V30 6089 H 565.085 7.55541 -1.62411 0
M  V30 6090 H 563.43 6.79624 -1.45381 0
M  V30 6091 H 566.621 4.62932 -0.693675 0
M  V30 6092 H 566.794 6.36614 -1.2094 0
M  V30 6093 N 560.2 0.0768682 1.57412 0
M  V30 6094 C 561.43 -0.5991 1.97723 0
M  V30 6095 C 561.838 -1.63378 0.954166 0
M  V30 6096 O 561.181 -1.83578 -0.0668706 0
M  V30 6097 C 561.243 -1.32078 3.34358 0
M  V30 6098 C 560.907 -0.438985 4.54887 0
M  V30 6099 C 561.904 0.305492 5.19002 0
M  V30 6100 C 559.589 -0.362378 5.00991 0
M  V30 6101 C 561.583 1.11475 6.27576 0
M  V30 6102 C 559.27 0.450543 6.09437 0
M  V30 6103 C 560.268 1.18777 6.72593 0
M  V30 6104 O 559.956 1.98727 7.7895 0
M  V30 6105 H 559.688 -0.166725 0.655117 0
M  V30 6106 H 562.242 0.147337 2.04871 0
M  V30 6107 H 560.472 -2.1134 3.2384 0
M  V30 6108 H 562.161 -1.88949 3.5924 0
M  V30 6109 H 562.927 0.25593 4.84324 0
M  V30 6110 H 558.806 -0.925832 4.51608 0
M  V30 6111 H 562.35 1.69068 6.76803 0
M  V30 6112 H 558.247 0.501651 6.43548 0
M  V30 6113 H 559.015 1.91214 7.95851 0
M  V30 6114 N 561.678 -1.56367 -0.196722 0
M  V30 6115 C 563.094 -1.49916 -0.54749 0
M  V30 6116 C 563.294 -0.77659 -1.85934 0
M  V30 6117 O 562.35 -0.32644 -2.50381 0
M  V30 6118 C 563.663 -2.94577 -0.603734 0
M  V30 6119 C 565.211 -3.05239 -0.692677 0
M  V30 6120 C 565.686 -4.51308 -0.780046 0
M  V30 6121 N 567.177 -4.55453 -0.843616 0
M  V30 6122 C 567.912 -5.65786 -0.931358 0
M  V30 6123 N 567.408 -6.85812 -0.981503 0
M  V30 6124 N 569.201 -5.53695 -0.968421 0
M  V30 6125 H 561.352 -2.01761 0.663803 0
M  V30 6126 H 563.615 -0.918094 0.236238 0
M  V30 6127 H 563.321 -3.50494 0.29105 0
M  V30 6128 H 563.195 -3.47841 -1.45898 0
M  V30 6129 H 565.582 -2.49372 -1.57789 0
M  V30 6130 H 565.663 -2.55103 0.188736 0
M  V30 6131 H 565.307 -5.078 0.100811 0
M  V30 6132 H 565.237 -4.99176 -1.67724 0
M  V30 6133 H 567.728 -3.69025 -0.814176 0
M  V30 6134 H 568.041 -7.65648 -1.04892 0
M  V30 6135 H 566.386 -6.88474 -0.950208 0
M  V30 6136 H 569.577 -4.58848 -0.926072 0
M  V30 6137 H 569.75 -6.39708 -1.03334 0
M  V30 6138 N 563.156 0.464375 -1.50603 0
M  V30 6139 C 564.086 1.56944 -1.72889 0
M  V30 6140 C 565.067 1.59979 -0.577997 0
M  V30 6141 O 566.252 1.76138 -0.817855 0
M  V30 6142 C 563.382 2.95225 -1.8292 0
M  V30 6143 C 562.336 3.07056 -2.98162 0
M  V30 6144 C 561.662 4.47051 -2.93343 0
M  V30 6145 C 562.962 2.83648 -4.38567 0
M  V30 6146 H 564.656 1.38547 -2.65415 0
M  V30 6147 H 562.202 0.665082 -1.27721 0
M  V30 6148 H 564.155 3.72467 -1.97095 0
M  V30 6149 H 562.879 3.14793 -0.870209 0
M  V30 6150 H 561.538 2.32248 -2.83648 0
M  V30 6151 H 561.186 4.63547 -1.95276 0
M  V30 6152 H 560.886 4.55902 -3.70712 0
M  V30 6153 H 562.41 5.26304 -3.09575 0
M  V30 6154 H 563.824 3.50636 -4.53572 0
M  V30 6155 H 562.221 3.03937 -5.17438 0
M  V30 6156 H 563.291 1.79451 -4.50472 0
M  V30 6157 N 564.634 1.40294 0.718013 0
M  V30 6158 C 566.05 1.2227 1.02577 0
M  V30 6159 C 566.25 0.0961976 2.0127 0
M  V30 6160 O 565.306 -0.546695 2.46511 0
M  V30 6161 C 566.619 2.56348 1.57182 0
M  V30 6162 C 568.167 2.6334 1.69178 0
M  V30 6163 C 568.642 3.9768 2.27188 0
M  V30 6164 N 570.133 3.99409 2.34578 0
M  V30 6165 C 570.868 5.00141 2.8044 0
M  V30 6166 N 570.364 6.11268 3.26073 0
M  V30 6167 N 572.157 4.87511 2.79802 0
M  V30 6168 H 564.308 2.12304 0.0637899 0
M  V30 6169 H 566.571 0.943632 0.0909036 0
M  V30 6170 H 566.277 3.3942 0.921262 0
M  V30 6171 H 566.151 2.77266 2.55741 0
M  V30 6172 H 568.538 1.80641 2.33351 0
M  V30 6173 H 568.619 2.46255 0.692247 0
M  V30 6174 H 568.263 4.80817 1.63638 0
M  V30 6175 H 568.193 4.12093 3.27852 0
M  V30 6176 H 570.684 3.19162 2.02346 0
M  V30 6177 H 570.997 6.84023 3.59628 0
M  V30 6178 H 569.342 6.14837 3.24038 0
M  V30 6179 H 572.533 3.9979 2.43487 0
M  V30 6180 H 572.706 5.66158 3.15228 0
M  V30 6181 N 566.112 -0.949982 1.2575 0
M  V30 6182 C 567.352 -1.70994 1.11984 0
M  V30 6183 C 567.716 -1.89095 -0.332746 0
M  V30 6184 O 568.917 -2.62192 -0.592331 0
M  V30 6185 C 567.188 -3.05286 1.85837 0
M  V30 6186 S 568.747 -3.96477 1.88019 0
M  V30 6187 H 565.565 -0.587689 0.400178 0
M  V30 6188 H 568.167 -1.13271 1.59342 0
M  V30 6189 H 566.871 -2.89785 2.90608 0
M  V30 6190 H 566.402 -3.68069 1.38885 0
M  V30 6191 H 568.417 -4.86814 0.96057 0
M  V30 6192 N 567.59 -1.07411 -1.15328 0
M  V30 6193 C 568.838 -0.796073 -1.85761 0
M  V30 6194 C 569.159 0.679864 -1.82764 0
M  V30 6195 O 568.429 1.49242 -1.269 0
M  V30 6196 H 567.009 -0.291495 -0.687779 0
M  V30 6197 H 569.671 -1.35799 -1.39802 0
M  V30 6198 H 568.767 -1.13114 -2.90881 0
M  V30 6199 N 569.068 1.32177 -0.85831 0
M  V30 6200 C 570.316 1.96735 -0.462568 0
M  V30 6201 C 570.637 1.6824 0.985911 0
M  V30 6202 O 569.907 0.991564 1.68952 0
M  V30 6203 H 568.487 0.727849 -0.168064 0
M  V30 6204 H 571.149 1.61195 -1.09554 0
M  V30 6205 H 570.245 3.06068 -0.610647 0
M  V30 6206 N 570.547 0.616602 1.45037 0
M  V30 6207 C 571.775 0.121968 2.0654 0
M  V30 6208 C 572.19 -1.19743 1.45969 0
M  V30 6209 O 571.547 -1.73133 0.577168 0
M  V30 6210 C 571.598 -0.0145171 3.61497 0
M  V30 6211 O 571.319 1.25269 4.19809 0
M  V30 6212 C 572.82 -0.539555 4.40004 0
M  V30 6213 H 570.04 0.0729837 0.667019 0
M  V30 6214 H 572.584 0.846891 1.8614 0
M  V30 6215 H 570.739 -0.689809 3.81209 0
M  V30 6216 H 571.153 1.08816 5.13088 0
M  V30 6217 H 572.627 -0.584112 5.48901 0
M  V30 6218 H 573.104 -1.56368 4.10421 0
M  V30 6219 H 573.71 0.101995 4.25178 0
M  V30 6220 N 572.025 -1.5352 0.356285 0
M  V30 6221 C 572.988 -2.24071 -0.482182 0
M  V30 6222 C 573.988 -1.24531 -1.01729 0
M  V30 6223 O 575.178 -1.48876 -0.904513 0
M  V30 6224 C 572.31 -2.97025 -1.67299 0
M  V30 6225 H 573.503 -2.99596 0.135031 0
M  V30 6226 H 571.056 -1.55928 0.107825 0
M  V30 6227 H 571.791 -2.25719 -2.32855 0
M  V30 6228 H 571.576 -3.7005 -1.29636 0
M  V30 6229 H 573.066 -3.50683 -2.26741 0
M  V30 6230 N 573.503 -0.0852151 -1.57369 0
M  V30 6231 C 574.413 0.891712 -2.16992 0
M  V30 6232 C 575.429 1.3174 -1.13669 0
M  V30 6233 O 576.605 1.38735 -1.45995 0
M  V30 6234 C 573.67 2.13635 -2.73059 0
M  V30 6235 C 572.731 1.7658 -3.91303 0
M  V30 6236 C 571.964 2.95111 -4.44686 0
M  V30 6237 O 572.187 4.09539 -3.97032 0
M  V30 6238 O 571.121 2.74149 -5.35841 0
M  V30 6239 H 574.947 0.414477 -3.00858 0
M  V30 6240 H 572.532 0.138598 -1.48756 0
M  V30 6241 H 574.414 2.86595 -3.08935 0
M  V30 6242 H 573.089 2.6043 -1.92244 0
M  V30 6243 H 571.996 1.00831 -3.60255 0
M  V30 6244 H 573.329 1.34557 -4.7345 0
M  V30 6245 N 574.981 1.5647 0.188427 0
M  V30 6246 C 575.891 1.98285 1.2538 0
M  V30 6247 C 576.907 0.891535 1.49424 0
M  V30 6248 O 578.083 1.19782 1.61908 0
M  V30 6249 C 575.148 2.31965 2.57669 0
M  V30 6250 C 574.209 3.54838 2.41638 0
M  V30 6251 C 573.442 3.86901 3.67618 0
M  V30 6252 O 573.665 3.20163 4.72072 0
M  V30 6253 O 572.599 4.80309 3.62749 0
M  V30 6254 H 576.425 2.89145 0.928912 0
M  V30 6255 H 574.01 1.44112 0.393955 0
M  V30 6256 H 575.892 2.54673 3.35737 0
M  V30 6257 H 574.567 1.44271 2.89771 0
M  V30 6258 H 573.474 3.37369 1.61658 0
M  V30 6259 H 574.807 4.43019 2.14465 0
M  V30 6260 N 576.459 -0.456382 1.50847 0
M  V30 6261 C 577.708 -1.2042 1.61808 0
M  V30 6262 C 578.021 -1.9278 0.330932 0
M  V30 6263 O 579.227 -2.69612 0.319643 0
M  V30 6264 C 577.683 -2.18891 2.85683 0
M  V30 6265 C 577.291 -1.52267 4.2133 0
M  V30 6266 C 579.035 -2.94224 3.05994 0
M  V30 6267 C 576.942 -2.4911 5.36375 0
M  V30 6268 H 575.872 -0.453177 0.602616 0
M  V30 6269 H 578.523 -0.473144 1.77295 0
M  V30 6270 H 576.905 -2.95351 2.63787 0
M  V30 6271 H 578.079 -0.814949 4.53536 0
M  V30 6272 H 576.394 -0.891594 4.06743 0
M  V30 6273 H 578.991 -3.66732 3.89117 0
M  V30 6274 H 579.334 -3.54469 2.18306 0
M  V30 6275 H 579.867 -2.24874 3.28141 0
M  V30 6276 H 576.606 -1.93582 6.26264 0
M  V30 6277 H 576.126 -3.17991 5.08569 0
M  V30 6278 H 577.805 -3.10637 5.67551 0
M  V30 6279 N 577.937 -1.40673 -0.710563 0
M  V30 6280 C 578.867 -1.44095 -1.83736 0
M  V30 6281 C 579.848 -0.301286 -1.67411 0
M  V30 6282 O 581.033 -0.510618 -1.87367 0
M  V30 6283 C 578.163 -1.30773 -3.21738 0
M  V30 6284 C 577.117 -2.42395 -3.52745 0
M  V30 6285 C 576.443 -2.14147 -4.89944 0
M  V30 6286 C 577.743 -3.84738 -3.53234 0
M  V30 6287 H 579.437 -2.38396 -1.81129 0
M  V30 6288 H 576.983 -1.14746 -0.870017 0
M  V30 6289 H 578.936 -1.31783 -4.00264 0
M  V30 6290 H 577.66 -0.329507 -3.24934 0
M  V30 6291 H 576.319 -2.40643 -2.76562 0
M  V30 6292 H 575.967 -1.14703 -4.89747 0
M  V30 6293 H 575.667 -2.88934 -5.11655 0
M  V30 6294 H 577.191 -2.16848 -5.70797 0
M  V30 6295 H 578.605 -3.88286 -4.2179 0
M  V30 6296 H 577.002 -4.59085 -3.86473 0
M  V30 6297 H 578.072 -4.13962 -2.52514 0
M  V30 6298 N 579.415 0.9433 -1.26252 0
M  V30 6299 C 580.692 1.66639 -1.02424 0
M  V30 6300 C 581.072 2.06335 0.446006 0
M  V30 6301 O 580.42 1.78551 1.42589 0
M  V30 6302 C 580.63 2.88019 -1.97094 0
M  V30 6303 C 581.978 3.59718 -2.25584 0
M  V30 6304 O 583.002 2.9812 -1.94943 0
M  V30 6305 O 581.861 4.7066 -2.77743 0
M  V30 6306 H 578.955 0.729643 -0.389294 0
M  V30 6307 H 581.501 0.995218 -1.37454 0
M  V30 6308 H 580.273 2.5556 -2.96319 0
M  V30 6309 H 579.896 3.62863 -1.62532 0
M  V30 6310 N 580.893 1.08022 1.14757 0
M  V30 6311 C 582.139 0.808705 1.85978 0
M  V30 6312 C 582.472 -0.663764 1.82504 0
M  V30 6313 O 581.747 -1.48765 1.25296 0
M  V30 6314 C 582.03 1.32623 3.34788 0
M  V30 6315 C 581.883 2.86375 3.46856 0
M  V30 6316 C 583.202 0.948291 4.29762 0
M  V30 6317 H 580.321 0.295244 0.675278 0
M  V30 6318 H 582.963 1.33917 1.34783 0
M  V30 6319 H 581.113 0.875002 3.78518 0
M  V30 6320 H 582.785 3.39839 3.11941 0
M  V30 6321 H 581.028 3.24232 2.88194 0
M  V30 6322 H 581.699 3.17658 4.51439 0
M  V30 6323 H 584.175 1.33722 3.94028 0
M  V30 6324 H 583.051 1.33765 5.32352 0
M  V30 6325 H 583.312 -0.145094 4.41862 0
M  V30 6326 O 582.41 -1.2689 0.999054 0
M  V30 6327 H 583.101 -1.82419 0.651387 0
M  V30 END ATOM
M  V30 BEGIN BOND
M  V30 END BOND
M  V30 END CTAB
M  END
$$$$
