drugbank_target|Q16719 Kynureninase (DB00114; DB00160; DB07069)
 OpenBabel12092119313D

  0  0  0     0  0            999 V3000
M  V30 BEGIN CTAB
M  V30 COUNTS 7414 7501 0 0 0
M  V30 BEGIN ATOM
M  V30 1 H -0.908 1.98254 -0.117106 0
M  V30 2 N 0 1.576 0 0
M  V30 3 C 0.933 2.03868 1.02534 0
M  V30 4 C 1.911 0.928543 1.3348 0
M  V30 5 O 3.095 1.19667 1.45644 0
M  V30 6 C 0.222 2.43627 2.35294 0
M  V30 7 C -0.732 3.65373 2.2001 0
M  V30 8 S 0.101 5.13292 1.52614 0
M  V30 9 C 1.257 5.56322 2.86805 0
M  V30 10 H 1.49 2.90518 0.631377 0
M  V30 11 H -0.977 1.52953 0.210867 0
M  V30 12 H 0.981 2.67203 3.11629 0
M  V30 13 H -0.358 1.57376 2.7183 0
M  V30 14 H -1.165 3.90944 3.18086 0
M  V30 15 H -1.563 3.418 1.51819 0
M  V30 16 H 0.729 5.58782 3.83104 0
M  V30 17 H 1.672 6.56266 2.65933 0
M  V30 18 H 2.08 4.83886 2.90714 0
M  V30 19 N 1.4781 -0.272755 1.55222 0
M  V30 20 C 2.3881 -1.35918 1.91216 0
M  V30 21 C 3.4041 -1.54026 0.809436 0
M  V30 22 O 4.5801 -1.68148 1.10852 0
M  V30 23 C 1.6451 -2.69834 2.17693 0
M  V30 24 C 0.7061 -2.6047 3.41253 0
M  V30 25 C -0.0609 -3.88 3.66458 0
M  V30 26 O 0.1621 -4.88693 2.94169 0
M  V30 27 O -0.9039 -3.88189 4.59992 0
M  V30 28 H 2.9221 -1.0839 2.83699 0
M  V30 29 H 0.5071 -0.471301 1.41771 0
M  V30 30 H 2.3891 -3.49017 2.36147 0
M  V30 31 H 1.0641 -2.97148 1.28392 0
M  V30 32 H -0.0289 -1.79663 3.28134 0
M  V30 33 H 1.3041 -2.38106 4.30774 0
M  V30 34 N 2.9562 -1.48159 -0.537278 0
M  V30 35 C 4.3672 -1.49429 -1.11928 0
M  V30 36 C 4.7182 -0.26 -1.9447 0
M  V30 37 O 3.8432 0.633489 -2.0692 0
M  V30 38 C 4.4382 -2.70758 -2.03656 0
M  V30 39 C 2.9972 -2.74923 -2.57088 0
M  V30 40 C 2.1442 -2.42835 -1.3389 0
M  V30 41 H 5.0952 -1.55381 -0.322886 0
M  V30 42 H 5.1162 -2.48861 -2.87834 0
M  V30 43 H 4.6282 -3.60575 -1.43553 0
M  V30 44 H 2.7292 -1.89296 -3.20933 0
M  V30 45 H 2.8422 -3.76157 -2.9672 0
M  V30 46 H 1.2062 -1.93836 -1.65226 0
M  V30 47 H 1.9892 -3.34884 -0.755504 0
M  V30 48 N 4.4343 0.785586 -1.36625 0
M  V30 49 C 5.6593 1.57963 -1.34397 0
M  V30 50 C 6.0843 1.87964 0.071526 0
M  V30 51 O 5.4423 1.48182 1.0446 0
M  V30 52 C 5.4903 2.87511 -2.17646 0
M  V30 53 O 4.5943 3.81281 -1.57158 0
M  V30 54 H 3.9353 0.479014 -0.459828 0
M  V30 55 H 6.4653 0.973411 -1.79961 0
M  V30 56 H 6.4753 3.36745 -2.30362 0
M  V30 57 H 5.1503 2.65002 -3.20541 0
M  V30 58 H 3.7273 3.39885 -1.53403 0
M  V30 59 N 5.9124 1.20967 1.01018 0
M  V30 60 C 7.1374 1.0503 1.78839 0
M  V30 61 C 7.5624 -0.395752 1.8389 0
M  V30 62 O 6.9204 -1.28529 1.27867 0
M  V30 63 C 6.9684 1.64602 3.2084 0
M  V30 64 O 6.0724 0.887988 4.02726 0
M  V30 65 H 5.4134 0.369987 0.551367 0
M  V30 66 H 7.9434 1.60399 1.27018 0
M  V30 67 H 7.9534 1.68607 3.71532 0
M  V30 68 H 6.6284 2.69841 3.16479 0
M  V30 69 H 5.2054 0.922648 3.61305 0
M  V30 70 N 7.3905 -1.2043 1.01659 0
M  V30 71 C 8.3205 -2.25466 0.607226 0
M  V30 72 C 9.3015 -1.65853 -0.377716 0
M  V30 73 O 10.4865 -1.92409 -0.263149 0
M  V30 74 C 7.6165 -3.47256 -0.0552949 0
M  V30 75 C 6.5705 -4.19462 0.850632 0
M  V30 76 C 5.8965 -5.34673 0.0538859 0
M  V30 77 C 7.1965 -4.75603 2.15868 0
M  V30 78 H 8.8905 -2.59962 1.48526 0
M  V30 79 H 6.4365 -1.2496 0.715605 0
M  V30 80 H 8.3895 -4.19917 -0.353233 0
M  V30 81 H 7.1135 -3.11924 -0.968045 0
M  V30 82 H 5.7725 -3.48667 1.13257 0
M  V30 83 H 5.4205 -4.95585 -0.860514 0
M  V30 84 H 5.1205 -5.83913 0.657192 0
M  V30 85 H 6.6445 -6.10138 -0.237598 0
M  V30 86 H 8.0585 -5.40083 1.92311 0
M  V30 87 H 6.4555 -5.3528 2.71284 0
M  V30 88 H 7.5255 -3.94346 2.82169 0
M  V30 89 N 8.8686 -0.792821 -1.36206 0
M  V30 90 C 9.7786 -0.194808 -2.3379 0
M  V30 91 C 10.7946 0.654869 -1.61206 0
M  V30 92 O 11.9706 0.569856 -1.9317 0
M  V30 93 C 9.0356 0.657721 -3.40404 0
M  V30 94 C 8.0966 -0.210849 -4.28782 0
M  V30 95 C 7.3296 0.601086 -5.30304 0
M  V30 96 O 7.5526 1.83682 -5.40016 0
M  V30 97 O 6.4866 -0.000808277 -6.019 0
M  V30 98 H 10.3126 -1.00172 -2.86704 0
M  V30 99 H 7.8976 -0.554341 -1.38735 0
M  V30 100 H 9.7796 1.14375 -4.05581 0
M  V30 101 H 8.4546 1.44247 -2.89784 0
M  V30 102 H 7.3616 -0.743714 -3.66633 0
M  V30 103 H 8.6946 -0.959195 -4.82763 0
M  V30 104 N 10.3467 1.47872 -0.545128 0
M  V30 105 C 11.2767 2.32661 0.197793 0
M  V30 106 C 12.2577 1.43041 0.920504 0
M  V30 107 O 13.4427 1.71912 0.90333 0
M  V30 108 C 10.5727 3.24569 1.23582 0
M  V30 109 C 9.5267 4.23333 0.630323 0
M  V30 110 C 8.8527 5.0448 1.77211 0
M  V30 111 C 10.1527 5.20704 -0.407974 0
M  V30 112 H 11.8467 2.95024 -0.510045 0
M  V30 113 H 9.3927 1.4187 -0.246731 0
M  V30 114 H 11.3457 3.8272 1.76362 0
M  V30 115 H 10.0697 2.60236 1.97344 0
M  V30 116 H 8.7287 3.6639 0.123922 0
M  V30 117 H 8.3767 4.36561 2.49847 0
M  V30 118 H 8.0767 5.71339 1.37281 0
M  V30 119 H 9.6007 5.65487 2.3034 0
M  V30 120 H 11.0147 5.7329 0.033305 0
M  V30 121 H 9.4117 5.95699 -0.725486 0
M  V30 122 H 10.4817 4.66917 -1.30828 0
M  V30 123 N 11.8248 0.280983 1.55075 0
M  V30 124 C 13.2358 -0.215629 1.85451 0
M  V30 125 C 13.5868 -1.54991 1.203 0
M  V30 126 O 12.7118 -2.10699 0.493435 0
M  V30 127 C 13.3068 -0.398026 3.36454 0
M  V30 128 C 11.8658 -0.838866 3.66933 0
M  V30 129 C 11.0128 0.064458 2.77225 0
M  V30 130 H 13.9638 0.502601 1.50531 0
M  V30 131 H 13.9848 -1.23569 3.59876 0
M  V30 132 H 13.4968 0.573241 3.83843 0
M  V30 133 H 11.5978 -1.8214 3.25048 0
M  V30 134 H 11.7108 -0.672123 4.74362 0
M  V30 135 H 10.0748 -0.452863 2.50642 0
M  V30 136 H 10.8578 1.03172 3.2743 0
M  V30 137 N 13.3029 -1.57598 0.00835791 0
M  V30 138 C 14.2659 -2.07884 -0.965242 0
M  V30 139 C 15.2659 -0.989825 -1.26725 0
M  V30 140 O 16.4559 -1.25218 -1.21104 0
M  V30 141 C 13.5879 -2.52731 -2.28779 0
M  V30 142 H 14.7809 -2.95178 -0.530112 0
M  V30 143 H 12.3339 -1.54458 -0.239283 0
M  V30 144 H 13.0689 -1.68705 -2.76964 0
M  V30 145 H 12.8539 -3.32272 -2.08177 0
M  V30 146 H 14.3439 -2.91933 -2.98605 0
M  V30 147 N 14.781 0.264519 -1.55364 0
M  V30 148 C 16.058 1.01677 -1.67096 0
M  V30 149 C 16.438 2.03996 -0.543015 0
M  V30 150 O 15.786 2.23907 0.45585 0
M  V30 151 C 15.996 1.66596 -3.0667 0
M  V30 152 C 17.344 2.17442 -3.64697 0
M  V30 153 O 18.368 1.76568 -3.09358 0
M  V30 154 O 17.227 2.92439 -4.61673 0
M  V30 155 H 14.321 0.472161 -0.678965 0
M  V30 156 H 16.867 0.259703 -1.67701 0
M  V30 157 H 15.639 0.924962 -3.80211 0
M  V30 158 H 15.262 2.48968 -3.10001 0
M  V30 159 N 16.2591 1.48442 0.529413 0
M  V30 160 C 17.4871 1.60151 1.30994 0
M  V30 161 C 17.9021 0.261985 1.86973 0
M  V30 162 O 17.2591 -0.748805 1.66431 0
M  V30 163 C 17.3101 2.64854 2.46038 0
M  V30 164 O 17.0311 3.93608 1.92365 0
M  V30 165 C 18.5321 2.87007 3.37849 0
M  V30 166 H 15.7521 0.539971 0.398338 0
M  V30 167 H 18.2961 1.94273 0.638597 0
M  V30 168 H 16.4511 2.33589 3.09055 0
M  V30 169 H 16.8651 4.51055 2.67675 0
M  V30 170 H 18.3391 3.64068 4.14919 0
M  V30 171 H 18.8161 1.95852 3.93114 0
M  V30 172 H 19.4221 3.19579 2.80623 0
M  V30 173 N 17.7372 -0.778329 1.37039 0
M  V30 174 C 18.9832 -1.53892 1.32079 0
M  V30 175 C 19.3162 -1.9396 -0.0965386 0
M  V30 176 O 18.5912 -1.63568 -1.05242 0
M  V30 177 C 18.8742 -2.80847 2.25382 0
M  V30 178 C 18.7272 -2.47076 3.75864 0
M  V30 179 C 20.0462 -3.82741 2.1725 0
M  V30 180 H 17.1652 -0.558303 0.48111 0
M  V30 181 H 19.8072 -0.893397 1.67685 0
M  V30 182 H 17.9572 -3.35931 1.95148 0
M  V30 183 H 19.6292 -1.97957 4.16666 0
M  V30 184 H 17.8722 -1.79863 3.94755 0
M  V30 185 H 18.5432 -3.37798 4.36574 0
M  V30 186 H 21.0192 -3.37133 2.43887 0
M  V30 187 H 19.8952 -4.69303 2.84686 0
M  V30 188 H 20.1562 -4.2652 1.16331 0
M  V30 189 N 19.2153 -1.21501 -1.00376 0
M  V30 190 C 20.1473 -0.933174 -2.09343 0
M  V30 191 C 21.1603 0.0840896 -1.62583 0
M  V30 192 O 22.3493 -0.148563 -1.77881 0
M  V30 193 C 19.4493 -0.379869 -3.36764 0
M  V30 194 C 18.6223 -1.45176 -4.12605 0
M  V30 195 C 17.6813 -0.907476 -5.18316 0
M  V30 196 O 16.7073 -1.5912 -5.46507 0
M  V30 197 N 17.9093 0.276649 -5.7984 0
M  V30 198 H 20.6743 -1.87124 -2.34104 0
M  V30 199 H 18.2353 -1.12043 -1.16867 0
M  V30 200 H 20.2273 -0.00131488 -4.047 0
M  V30 201 H 18.7973 0.463048 -3.09151 0
M  V30 202 H 18.0173 -2.00411 -3.39454 0
M  V30 203 H 19.3053 -2.17328 -4.6005 0
M  V30 204 H 18.7033 0.849147 -5.59291 0
M  V30 205 H 17.2603 0.596702 -6.49063 0
M  V30 206 N 20.6934 1.19889 -1.02296 0
M  V30 207 C 22.1094 1.41462 -0.738954 0
M  V30 208 C 22.3094 1.89721 0.678846 0
M  V30 209 O 21.3654 2.07016 1.4457 0
M  V30 210 C 22.6784 2.43083 -1.77005 0
M  V30 211 C 24.2264 2.5684 -1.78892 0
M  V30 212 C 24.7014 3.61709 -2.80945 0
M  V30 213 N 26.1924 3.69199 -2.79725 0
M  V30 214 C 26.9274 4.50019 -3.55345 0
M  V30 215 N 26.4234 5.34592 -4.40662 0
M  V30 216 N 28.2164 4.44612 -3.43914 0
M  V30 217 H 20.3674 0.868827 -1.93817 0
M  V30 218 H 22.6304 0.44399 -0.837602 0
M  V30 219 H 22.3364 2.14636 -2.78612 0
M  V30 220 H 22.2104 3.4217 -1.58744 0
M  V30 221 H 24.5974 2.84614 -0.779674 0
M  V30 222 H 24.6784 1.57927 -2.01228 0
M  V30 223 H 24.3224 3.34678 -3.82038 0
M  V30 224 H 24.2524 4.60259 -2.5587 0
M  V30 225 H 26.7434 3.08794 -2.17842 0
M  V30 226 H 27.0564 5.93363 -4.95116 0
M  V30 227 H 25.4014 5.34073 -4.44737 0
M  V30 228 H 28.5924 3.7758 -2.76679 0
M  V30 229 H 28.7654 5.0736 -4.031 0
M  V30 230 N 22.1715 0.800033 1.35784 0
M  V30 231 C 23.4205 0.37387 1.98205 0
M  V30 232 C 23.7335 -1.06302 1.64193 0
M  V30 233 O 24.9395 -1.59198 2.19928 0
M  V30 234 C 23.3955 0.617532 3.54562 0
M  V30 235 C 23.0035 2.06654 3.9749 0
M  V30 236 C 24.7475 0.256401 4.23725 0
M  V30 237 C 22.6545 2.2563 5.46667 0
M  V30 238 H 21.5845 0.136055 0.741623 0
M  V30 239 H 24.2355 0.983166 1.54939 0
M  V30 240 H 22.6175 -0.0616248 3.95952 0
M  V30 241 H 23.7915 2.78296 3.67271 0
M  V30 242 H 22.1065 2.38691 3.41197 0
M  V30 243 H 24.7035 0.376318 5.33374 0
M  V30 244 H 25.0465 -0.796692 4.08606 0
M  V30 245 H 25.5795 0.889214 3.87734 0
M  V30 246 H 22.3185 3.2936 5.66747 0
M  V30 247 H 21.8385 1.58504 5.78478 0
M  V30 248 H 23.5175 2.06861 6.1304 0
M  V30 249 N 23.6496 -1.47581 0.552962 0
M  V30 250 C 24.6126 -2.28439 -0.186605 0
M  V30 251 C 25.6126 -1.36706 -0.84665 0
M  V30 252 O 26.8026 -1.59378 -0.703164 0
M  V30 253 C 23.9346 -3.16264 -1.2724 0
M  V30 254 H 25.1276 -2.95294 0.523609 0
M  V30 255 H 22.6806 -1.532 0.309745 0
M  V30 256 H 23.4156 -2.54091 -2.01514 0
M  V30 257 H 23.2006 -3.83769 -0.803968 0
M  V30 258 H 24.6906 -3.77198 -1.79196 0
M  V30 259 N 25.1277 -0.289203 -1.54924 0
M  V30 260 C 26.0907 0.579144 -2.21762 0
M  V30 261 C 27.0907 1.07047 -1.1999 0
M  V30 262 O 28.2807 0.968384 -1.44803 0
M  V30 263 C 25.4127 1.80055 -2.8947 0
M  V30 264 H 26.6057 -0.00464908 -2.999 0
M  V30 265 H 24.1587 -0.0399306 -1.56249 0
M  V30 266 H 24.8937 2.42449 -2.15381 0
M  V30 267 H 24.6787 1.45602 -3.64064 0
M  V30 268 H 26.1687 2.41773 -3.40493 0
M  V30 269 N 26.6058 1.57591 -0.0167156 0
M  V30 270 C 27.5158 2.1291 0.98521 0
M  V30 271 C 28.5318 1.07834 1.36557 0
M  V30 272 O 29.7078 1.39826 1.44951 0
M  V30 273 C 26.7728 2.63512 2.25305 0
M  V30 274 C 25.8338 3.83256 1.93426 0
M  V30 275 C 25.0668 4.31435 3.14165 0
M  V30 276 O 25.2898 3.78851 4.26413 0
M  V30 277 O 24.2238 5.23416 2.97186 0
M  V30 278 H 28.0498 2.98772 0.544888 0
M  V30 279 H 25.6348 1.48012 0.203141 0
M  V30 280 H 27.5168 2.96183 2.99756 0
M  V30 281 H 26.1918 1.8074 2.68542 0
M  V30 282 H 25.0988 3.55531 1.16398 0
M  V30 283 H 26.4318 4.67153 1.55013 0
M  V30 284 N 28.0839 -0.256276 1.55502 0
M  V30 285 C 29.0139 -1.32102 1.92539 0
M  V30 286 C 29.9949 -1.50684 0.789194 0
M  V30 287 O 31.1799 -1.63449 1.04872 0
M  V30 288 C 28.3099 -2.67752 2.21192 0
M  V30 289 C 27.2639 -2.63878 3.36975 0
M  V30 290 C 26.5899 -4.03236 3.51147 0
M  V30 291 C 27.8899 -2.21682 4.72921 0
M  V30 292 H 29.5839 -1.01351 2.81724 0
M  V30 293 H 27.1299 -0.486105 1.35547 0
M  V30 294 H 29.0829 -3.42365 2.45691 0
M  V30 295 H 27.8069 -3.0012 1.28824 0
M  V30 296 H 26.4659 -1.91722 3.12471 0
M  V30 297 H 26.1139 -4.32854 2.56216 0
M  V30 298 H 25.8139 -4.01535 4.29003 0
M  V30 299 H 27.3379 -4.79563 3.77957 0
M  V30 300 H 28.7519 -2.86023 4.96854 0
M  V30 301 H 27.1489 -2.3111 5.53812 0
M  V30 302 H 28.2189 -1.16833 4.70615 0
M  V30 303 N 29.562 -1.4872 -0.521534 0
M  V30 304 C 30.509 -1.63871 -1.62527 0
M  V30 305 C 31.479 -0.480559 -1.58996 0
M  V30 306 O 32.664 -0.705085 -1.77294 0
M  V30 307 C 29.804 -1.69227 -3.00759 0
M  V30 308 C 28.917 -2.96207 -3.14461 0
M  V30 309 C 28.052 -2.92671 -4.43303 0
M  V30 310 C 27.091 -4.14318 -4.50563 0
M  V30 311 N 26.228 -4.0881 -5.70805 0
M  V30 312 H 31.068 -2.58123 -1.48918 0
M  V30 313 H 28.605 -1.28 -0.724878 0
M  V30 314 H 30.563 -1.70314 -3.80853 0
M  V30 315 H 29.193 -0.784586 -3.1312 0
M  V30 316 H 28.245 -3.04826 -2.27564 0
M  V30 317 H 29.557 -3.86192 -3.15686 0
M  V30 318 H 28.711 -2.92206 -5.31696 0
M  V30 319 H 27.45 -2.00429 -4.44612 0
M  V30 320 H 26.455 -4.15049 -3.60575 0
M  V30 321 H 27.68 -5.07729 -4.50986 0
M  V30 322 H 25.626 -3.19394 -5.72995 0
M  V30 323 H 25.543 -4.92509 -5.7356 0
M  V30 324 H 26.811 -4.12418 -6.61462 0
M  V30 325 N 31.0401 0.771051 -1.3745 0
M  V30 326 C 32.2801 1.54264 -1.34096 0
M  V30 327 C 32.6441 1.91858 0.0737639 0
M  V30 328 O 33.8451 2.67797 0.23203 0
M  V30 329 C 32.1161 2.77326 -2.25445 0
M  V30 330 S 33.6751 3.67383 -2.39948 0
M  V30 331 H 30.4931 0.528122 -0.476034 0
M  V30 332 H 33.0951 0.906633 -1.73206 0
M  V30 333 H 31.7991 2.47788 -3.27153 0
M  V30 334 H 31.3301 3.45886 -1.87421 0
M  V30 335 H 33.3451 4.69334 -1.61059 0
M  V30 336 N 32.5182 1.22032 0.997298 0
M  V30 337 C 33.4682 0.953838 2.07089 0
M  V30 338 C 34.4522 -0.0938669 1.60626 0
M  V30 339 O 35.6442 0.116078 1.76619 0
M  V30 340 C 32.7732 0.528726 3.39204 0
M  V30 341 C 31.8592 1.61092 3.92314 0
M  V30 342 N 32.2502 2.83768 4.18699 0
M  V30 343 C 30.5482 1.48158 4.20672 0
M  V30 344 C 31.2492 3.53715 4.61802 0
M  V30 345 N 30.2252 2.81174 4.65233 0
M  V30 346 H 34.0272 1.88577 2.25424 0
M  V30 347 H 31.5412 1.11719 1.17867 0
M  V30 348 H 33.5382 0.31915 4.15677 0
M  V30 349 H 32.1982 -0.39635 3.22272 0
M  V30 350 H 33.2092 3.20238 4.07023 0
M  V30 351 H 29.8862 0.622369 4.12835 0
M  V30 352 H 31.2762 4.58793 4.90875 0
M  V30 353 N 33.9963 -1.19345 1.0293 0
M  V30 354 C 35.4073 -1.70725 0.755633 0
M  V30 355 C 35.7583 -1.82326 -0.724676 0
M  V30 356 O 34.8833 -1.49471 -1.56484 0
M  V30 357 C 35.4783 -3.10084 1.36503 0
M  V30 358 C 34.0373 -3.58723 1.13994 0
M  V30 359 C 33.1843 -2.35577 1.46283 0
M  V30 360 H 36.1353 -1.0418 1.19718 0
M  V30 361 H 36.1563 -3.72787 0.762217 0
M  V30 362 H 35.6683 -3.01609 2.44241 0
M  V30 363 H 33.7693 -3.72512 0.0807901 0
M  V30 364 H 33.8823 -4.42816 1.82894 0
M  V30 365 H 32.2463 -2.38935 0.88217 0
M  V30 366 H 33.0293 -2.29731 2.55105 0
M  V30 367 N 35.4744 -0.807222 -1.35358 0
M  V30 368 C 36.7024 -0.400377 -2.02989 0
M  V30 369 C 37.1174 0.988859 -1.60832 0
M  V30 370 O 36.4744 1.63729 -0.806175 0
M  V30 371 C 36.5254 -0.474867 -3.58368 0
M  V30 372 O 36.2464 -1.80933 -3.98992 0
M  V30 373 C 37.7474 -0.0609112 -4.43258 0
M  V30 374 H 34.9674 -0.162587 -0.651004 0
M  V30 375 H 37.5114 -1.09102 -1.72965 0
M  V30 376 H 35.6664 0.167534 -3.87038 0
M  V30 377 H 36.0804 -1.77256 -4.9364 0
M  V30 378 H 37.5544 -0.164145 -5.51756 0
M  V30 379 H 38.0314 0.993831 -4.27808 0
M  V30 380 H 38.6374 -0.676492 -4.19885 0
M  V30 381 N 36.9525 1.47285 -0.560781 0
M  V30 382 C 38.2295 1.9558 0.0277798 0
M  V30 383 C 38.6095 1.5034 1.48192 0
M  V30 384 O 37.9575 0.743882 2.16052 0
M  V30 385 C 38.1675 3.48789 -0.121418 0
M  V30 386 C 39.5155 4.24594 0.0220912 0
M  V30 387 O 40.5395 3.56166 -0.0491439 0
M  V30 388 O 39.3985 5.46217 0.175958 0
M  V30 389 H 36.4925 0.824663 0.0621342 0
M  V30 390 H 39.0385 1.5767 -0.627556 0
M  V30 391 H 37.8105 3.74533 -1.13316 0
M  V30 392 H 37.4335 3.93473 0.571366 0
M  V30 393 N 38.4306 0.297415 1.54768 0
M  V30 394 C 39.3406 -0.58983 2.27064 0
M  V30 395 C 40.3566 -1.15144 1.30453 0
M  V30 396 O 41.5326 -1.17699 1.63428 0
M  V30 397 C 38.5976 -1.74714 2.9946 0
M  V30 398 C 37.6586 -1.21997 4.11601 0
M  V30 399 C 36.8916 -2.32212 4.80535 0
M  V30 400 O 37.1146 -3.52036 4.48806 0
M  V30 401 O 36.0486 -1.99106 5.68014 0
M  V30 402 H 39.8746 -0.00348199 3.037 0
M  V30 403 H 37.4596 0.0640035 1.49263 0
M  V30 404 H 39.3416 -2.42147 3.44881 0
M  V30 405 H 38.0166 -2.32016 2.25722 0
M  V30 406 H 36.9236 -0.511458 3.70587 0
M  V30 407 H 38.2566 -0.692419 4.87305 0
M  V30 408 N 39.9087 -1.5758 0.0250728 0
M  V30 409 C 41.3247 -1.56124 -0.331282 0
M  V30 410 C 41.5247 -1.03029 -1.73169 0
M  V30 411 O 40.5807 -0.675215 -2.43305 0
M  V30 412 C 41.8937 -3.00139 -0.183584 0
M  V30 413 C 43.4417 -3.11946 -0.256654 0
M  V30 414 C 43.9167 -4.57793 -0.137792 0
M  V30 415 N 45.4077 -4.6279 -0.194904 0
M  V30 416 C 46.1427 -5.7326 -0.126655 0
M  V30 417 N 45.6387 -6.928 -0.00755288 0
M  V30 418 N 47.4317 -5.61811 -0.180348 0
M  V30 419 H 39.5827 -1.90424 0.94087 0
M  V30 420 H 41.8457 -0.875761 0.362968 0
M  V30 421 H 41.5517 -3.4292 0.780927 0
M  V30 422 H 41.4257 -3.64899 -0.955448 0
M  V30 423 H 43.8127 -2.69079 -1.21162 0
M  V30 424 H 43.8937 -2.49915 0.545517 0
M  V30 425 H 43.5377 -5.01339 0.813739 0
M  V30 426 H 43.4677 -5.17798 -0.958775 0
M  V30 427 H 45.9587 -3.76807 -0.287267 0
M  V30 428 H 46.2717 -7.72791 0.0379428 0
M  V30 429 H 44.6167 -6.94995 0.0271731 0
M  V30 430 H 47.8077 -4.6731 -0.271767 0
M  V30 431 H 47.9807 -6.47882 -0.123697 0
M  V30 432 N 41.3868 0.248026 -1.55636 0
M  V30 433 C 42.6328 0.97767 -1.77678 0
M  V30 434 C 42.9658 1.85016 -0.590135 0
M  V30 435 O 42.2408 1.90095 0.411611 0
M  V30 436 C 42.5238 1.83914 -3.09593 0
M  V30 437 C 42.3768 0.99491 -4.38659 0
M  V30 438 C 43.6958 2.82183 -3.37729 0
M  V30 439 H 40.8148 0.354005 -0.646413 0
M  V30 440 H 43.4568 0.248253 -1.88371 0
M  V30 441 H 41.6068 2.46104 -3.00608 0
M  V30 442 H 43.2788 0.391789 -4.59633 0
M  V30 443 H 41.5218 0.299231 -4.32767 0
M  V30 444 H 42.1928 1.63145 -5.2734 0
M  V30 445 H 44.6688 2.30129 -3.4667 0
M  V30 446 H 43.5448 3.39582 -4.31249 0
M  V30 447 H 43.8058 3.58588 -2.58586 0
M  V30 448 N 42.8649 1.48995 0.513639 0
M  V30 449 C 43.8279 1.64229 1.59879 0
M  V30 450 C 44.8279 0.514696 1.5234 0
M  V30 451 O 46.0179 0.78087 1.55718 0
M  V30 452 C 43.1499 1.62783 2.99524 0
M  V30 453 H 44.3429 2.61004 1.47705 0
M  V30 454 H 41.8959 1.37837 0.736936 0
M  V30 455 H 42.6309 0.675461 3.17188 0
M  V30 456 H 42.4159 2.4466 3.06404 0
M  V30 457 H 43.9059 1.76669 3.78388 0
M  V30 458 N 44.343 -0.763751 1.37857 0
M  V30 459 C 45.273 -1.89103 1.36975 0
M  V30 460 C 46.254 -1.68439 0.237152 0
M  V30 461 O 47.439 -1.8918 0.438713 0
M  V30 462 C 44.569 -3.26496 1.18395 0
M  V30 463 C 43.523 -3.61741 2.28751 0
M  V30 464 C 42.849 -4.97762 1.95286 0
M  V30 465 C 44.149 -3.67665 3.70972 0
M  V30 466 H 45.843 -1.90099 2.31307 0
M  V30 467 H 43.389 -0.91319 1.11341 0
M  V30 468 H 45.342 -4.05003 1.16406 0
M  V30 469 H 44.066 -3.25955 0.205215 0
M  V30 470 H 42.725 -2.85547 2.29909 0
M  V30 471 H 42.373 -4.93769 0.959221 0
M  V30 472 H 42.073 -5.22313 2.69189 0
M  V30 473 H 43.597 -5.7866 1.94898 0
M  V30 474 H 45.011 -4.36307 3.719 0
M  V30 475 H 43.408 -4.03718 4.43995 0
M  V30 476 H 44.478 -2.68134 4.0402 0
M  V30 477 N 45.8211 -1.22559 -0.990812 0
M  V30 478 C 46.7711 -0.964807 -2.0658 0
M  V30 479 C 47.7551 0.0853472 -1.60673 0
M  V30 480 O 48.9471 -0.125443 -1.76555 0
M  V30 481 C 46.0761 -0.546707 -3.38919 0
M  V30 482 C 45.1621 -1.6317 -3.91454 0
M  V30 483 N 45.5531 -2.85985 -4.17189 0
M  V30 484 C 43.8511 -1.50387 -4.19881 0
M  V30 485 C 44.5521 -3.56159 -4.59919 0
M  V30 486 N 43.5281 -2.83637 -4.63736 0
M  V30 487 H 47.3301 -1.89769 -2.24421 0
M  V30 488 H 44.8441 -1.12343 -1.17273 0
M  V30 489 H 46.8411 -0.34119 -4.15502 0
M  V30 490 H 45.5011 0.379254 -3.22478 0
M  V30 491 H 46.5121 -3.22392 -4.05319 0
M  V30 492 H 43.1891 -0.644254 -4.12499 0
M  V30 493 H 44.5791 -4.6139 -4.88435 0
M  V30 494 N 47.2992 1.18797 -1.03562 0
M  V30 495 C 48.2292 2.24472 -0.643019 0
M  V30 496 C 49.2102 1.66433 0.351283 0
M  V30 497 O 50.3952 1.92803 0.232505 0
M  V30 498 C 47.5252 3.473 4.24935e-05 0
M  V30 499 C 46.4792 4.18055 -0.917257 0
M  V30 500 C 45.8052 5.34519 -0.138941 0
M  V30 501 C 47.1052 4.72109 -2.23407 0
M  V30 502 H 48.7992 2.57566 -1.52643 0
M  V30 503 H 46.3452 1.23806 -0.735394 0
M  V30 504 H 48.2982 4.20426 0.286383 0
M  V30 505 H 47.0222 3.13424 0.918299 0
M  V30 506 H 45.6812 3.46821 -1.1879 0
M  V30 507 H 45.3292 4.96891 0.781562 0
M  V30 508 H 45.0292 5.82794 -0.750005 0
M  V30 509 H 46.5532 6.10438 0.1405 0
M  V30 510 H 47.9672 5.36955 -2.00879 0
M  V30 511 H 46.3642 5.30897 -2.79765 0
M  V30 512 H 47.4342 3.89807 -2.88407 0
M  V30 513 N 48.7773 0.814389 1.34928 0
M  V30 514 C 50.0543 0.321363 1.92942 0
M  V30 515 C 50.4343 -1.19014 1.74353 0
M  V30 516 O 49.7823 -1.99328 1.11716 0
M  V30 517 C 49.9923 0.741323 3.41036 0
M  V30 518 C 51.3403 0.735266 4.18185 0
M  V30 519 O 52.3643 0.68336 3.49584 0
M  V30 520 O 51.2233 0.800703 5.40602 0
M  V30 521 H 48.3173 0.0858893 0.822528 0
M  V30 522 H 50.8633 0.898609 1.43955 0
M  V30 523 H 49.6353 1.78276 3.4833 0
M  V30 524 H 49.2583 0.139307 3.97356 0
M  V30 525 N 50.2554 -1.46986 0.568584 0
M  V30 526 C 51.1654 -2.33942 -0.17555 0
M  V30 527 C 52.1814 -1.48891 -0.90041 0
M  V30 528 O 53.3574 -1.81794 -0.86676 0
M  V30 529 C 50.4224 -3.25811 -1.18524 0
M  V30 530 C 49.4834 -4.26757 -0.466582 0
M  V30 531 C 48.7164 -5.14236 -1.42817 0
M  V30 532 O 48.9394 -5.04379 -2.66379 0
M  V30 533 O 47.8734 -5.94412 -0.946453 0
M  V30 534 H 51.6994 -2.98896 0.538036 0
M  V30 535 H 49.2844 -1.4573 0.329097 0
M  V30 536 H 51.1664 -3.82527 -1.76779 0
M  V30 537 H 49.8414 -2.63471 -1.88055 0
M  V30 538 H 48.7484 -3.73769 0.157451 0
M  V30 539 H 50.0814 -4.91843 0.187485 0
M  V30 540 N 51.7335 -0.305618 -1.54608 0
M  V30 541 C 52.6435 0.57778 -2.27374 0
M  V30 542 C 53.6595 1.14451 -1.31061 0
M  V30 543 O 54.8355 1.16831 -1.6405 0
M  V30 544 C 51.9005 1.73123 -3.00382 0
M  V30 545 C 50.9615 1.19812 -4.12242 0
M  V30 546 C 50.1945 2.2966 -4.81759 0
M  V30 547 O 50.4175 3.49651 -4.50666 0
M  V30 548 O 49.3515 1.96091 -5.69062 0
M  V30 549 H 53.1775 -0.012624 -3.03697 0
M  V30 550 H 50.7625 -0.0719184 -1.49227 0
M  V30 551 H 52.6445 2.40315 -3.4616 0
M  V30 552 H 51.3195 2.30815 -2.26949 0
M  V30 553 H 50.2265 0.491798 -3.70853 0
M  V30 554 H 51.5595 0.666566 -4.87666 0
M  V30 555 N 53.2116 1.57565 -0.0334293 0
M  V30 556 C 54.4886 1.83282 0.683163 0
M  V30 557 C 54.8686 0.91823 1.90084 0
M  V30 558 O 54.2166 -0.025113 2.28486 0
M  V30 559 C 54.4266 3.32599 1.0573 0
M  V30 560 C 55.7746 3.99179 1.44711 0
M  V30 561 O 56.7986 3.3712 1.15015 0
M  V30 562 O 55.6576 5.08565 2.0006 0
M  V30 563 H 52.7516 0.755869 0.335546 0
M  V30 564 H 55.2976 1.69589 -0.0614402 0
M  V30 565 H 54.0696 3.90834 0.190828 0
M  V30 566 H 53.6926 3.51415 1.85993 0
M  V30 567 N 54.6897 -0.239769 1.55765 0
M  V30 568 C 55.6367 -1.29696 1.90913 0
M  V30 569 C 56.6067 -1.47478 0.764164 0
M  V30 570 O 57.7917 -1.61345 1.01845 0
M  V30 571 C 54.9317 -2.64598 2.21544 0
M  V30 572 C 54.0447 -2.54765 3.48882 0
M  V30 573 C 53.1797 -3.82069 3.69049 0
M  V30 574 C 52.2187 -3.66883 4.89963 0
M  V30 575 N 51.3557 -4.86094 5.06614 0
M  V30 576 H 56.1957 -0.990224 2.81067 0
M  V30 577 H 53.7327 -0.477684 1.39128 0
M  V30 578 H 55.6907 -3.43132 2.3731 0
M  V30 579 H 54.3207 -2.93405 1.34585 0
M  V30 580 H 53.3727 -1.67763 3.41409 0
M  V30 581 H 54.6847 -2.39457 4.37563 0
M  V30 582 H 53.8387 -4.69046 3.84812 0
M  V30 583 H 52.5777 -4.00282 2.78614 0
M  V30 584 H 51.5827 -2.78289 4.74168 0
M  V30 585 H 52.8077 -3.50157 5.81865 0
M  V30 586 H 50.7537 -5.04655 4.19117 0
M  V30 587 H 50.6707 -4.73443 5.89396 0
M  V30 588 H 51.9387 -5.74549 5.26795 0
M  V30 589 N 56.1678 -1.49265 -0.50573 0
M  V30 590 C 57.0978 -1.68495 -1.61653 0
M  V30 591 C 58.0788 -0.53366 -1.61512 0
M  V30 592 O 59.2638 -0.76897 -1.78327 0
M  V30 593 C 56.3938 -1.74709 -3.00157 0
M  V30 594 C 55.3478 -2.89581 -3.15162 0
M  V30 595 C 54.6738 -2.80903 -4.5497 0
M  V30 596 C 55.9738 -4.30578 -2.95634 0
M  V30 597 H 57.6678 -2.61493 -1.45814 0
M  V30 598 H 55.2138 -1.25838 -0.70005 0
M  V30 599 H 57.1668 -1.86748 -3.77761 0
M  V30 600 H 55.8908 -0.783067 -3.17074 0
M  V30 601 H 54.5498 -2.77136 -2.39982 0
M  V30 602 H 54.1978 -1.82419 -4.68756 0
M  V30 603 H 53.8978 -3.57999 -4.65951 0
M  V30 604 H 55.4218 -2.94944 -5.34641 0
M  V30 605 H 56.8358 -4.4373 -3.63011 0
M  V30 606 H 55.2328 -5.0886 -3.18091 0
M  V30 607 H 56.3028 -4.45352 -1.91806 0
M  V30 608 N 57.6459 0.756429 -1.3826 0
M  V30 609 C 59.0619 1.0591 -1.19395 0
M  V30 610 C 59.2619 2.01459 -0.0406567 0
M  V30 611 O 58.3179 2.44909 0.614467 0
M  V30 612 C 59.6309 1.64191 -2.51916 0
M  V30 613 C 61.1789 1.76376 -2.58574 0
M  V30 614 C 61.6539 2.38069 -3.91264 0
M  V30 615 N 63.1449 2.45503 -3.92788 0
M  V30 616 C 63.8799 2.94126 -4.92217 0
M  V30 617 N 63.3759 3.42805 -6.02043 0
M  V30 618 N 65.1689 2.9314 -4.7961 0
M  V30 619 H 57.3199 0.122313 -2.12048 0
M  V30 620 H 59.5829 0.116892 -0.940766 0
M  V30 621 H 59.2889 1.01451 -3.3675 0
M  V30 622 H 59.1629 2.6329 -2.70108 0
M  V30 623 H 61.5499 2.38244 -1.74137 0
M  V30 624 H 61.6309 0.759894 -2.44252 0
M  V30 625 H 61.2749 1.76835 -4.76121 0
M  V30 626 H 61.2049 3.39091 -4.02895 0
M  V30 627 H 63.6959 2.1107 -3.13461 0
M  V30 628 H 64.0089 3.78354 -6.73846 0
M  V30 629 H 62.3539 3.4087 -6.05667 0
M  V30 630 H 65.5449 2.54419 -3.92923 0
M  V30 631 H 65.7179 3.30721 -5.5725 0
M  V30 632 N 59.124 1.23083 0.984299 0
M  V30 633 C 60.074 0.975749 2.06066 0
M  V30 634 C 61.058 -0.0768251 1.60716 0
M  V30 635 O 62.25 0.134805 1.76486 0
M  V30 636 C 59.379 0.564673 3.38624 0
M  V30 637 C 58.465 1.65244 3.90583 0
M  V30 638 N 58.856 2.88193 4.15666 0
M  V30 639 C 57.154 1.52612 4.19077 0
M  V30 640 C 57.855 3.58593 4.58024 0
M  V30 641 N 56.831 2.86093 4.62225 0
M  V30 642 H 60.633 1.90957 2.23411 0
M  V30 643 H 58.147 1.12963 1.16675 0
M  V30 644 H 60.144 0.36322 4.15315 0
M  V30 645 H 58.804 -0.362147 3.22674 0
M  V30 646 H 59.815 3.24537 4.03604 0
M  V30 647 H 56.492 0.666121 4.12152 0
M  V30 648 H 57.882 4.63974 4.85982 0
M  V30 649 N 60.6021 -1.18246 1.0419 0
M  V30 650 C 61.8491 -1.88257 0.746017 0
M  V30 651 C 62.1771 -1.80429 -0.726331 0
M  V30 652 O 61.4321 -1.2 -1.54591 0
M  V30 653 C 61.7311 -3.38082 1.15911 0
M  V30 654 C 61.3971 -3.66114 2.63195 0
M  V30 655 C 60.0591 -3.73474 3.03432 0
M  V30 656 C 62.4111 -3.78398 3.5842 0
M  V30 657 C 59.7391 -3.90599 4.37778 0
M  V30 658 C 62.0911 -3.97039 4.92487 0
M  V30 659 C 60.7551 -4.02635 5.32392 0
M  V30 660 H 60.0251 -0.688883 0.272987 0
M  V30 661 H 62.6721 -1.3995 1.30715 0
M  V30 662 H 60.9771 -3.88377 0.516806 0
M  V30 663 H 62.6741 -3.90596 0.907516 0
M  V30 664 H 59.2641 -3.61003 2.3103 0
M  V30 665 H 63.4481 -3.72042 3.28479 0
M  V30 666 H 58.7041 -3.93175 4.68213 0
M  V30 667 H 62.8781 -4.05486 5.66175 0
M  V30 668 H 60.5051 -4.15657 6.36501 0
M  V30 669 N 62.0802 -0.821533 -1.34494 0
M  V30 670 C 63.4962 -0.507117 -1.51329 0
M  V30 671 C 63.6962 0.968964 -1.76673 0
M  V30 672 O 62.7522 1.75348 -1.81685 0
M  V30 673 C 64.0652 -1.36544 -2.67911 0
M  V30 674 C 65.6132 -1.36242 -2.81793 0
M  V30 675 C 66.0882 -2.2052 -4.01416 0
M  V30 676 N 67.5792 -2.18136 -4.08621 0
M  V30 677 C 68.3142 -2.80095 -5.00334 0
M  V30 678 N 67.8102 -3.51039 -5.9728 0
M  V30 679 N 69.6032 -2.69656 -4.93196 0
M  V30 680 H 61.7542 -1.77729 -1.16302 0
M  V30 681 H 64.0172 -0.757291 -0.570276 0
M  V30 682 H 63.7232 -2.41361 -2.55808 0
M  V30 683 H 63.5972 -1.02917 -3.62888 0
M  V30 684 H 65.9842 -0.322041 -2.93338 0
M  V30 685 H 66.0652 -1.73866 -1.87628 0
M  V30 686 H 65.7092 -3.24607 -3.90631 0
M  V30 687 H 65.6392 -1.80247 -4.94791 0
M  V30 688 H 68.1302 -1.6653 -3.39229 0
M  V30 689 H 68.4432 -3.95565 -6.63889 0
M  V30 690 H 66.7882 -3.55145 -5.97409 0
M  V30 691 H 69.9792 -2.13808 -4.16418 0
M  V30 692 H 70.1522 -3.1823 -5.64476 0
M  V30 693 N 63.5583 1.46682 -0.576371 0
M  V30 694 C 64.4683 2.34032 0.163141 0
M  V30 695 C 65.4843 1.49367 0.892501 0
M  V30 696 O 66.6603 1.82252 0.857106 0
M  V30 697 C 63.7253 3.26435 1.16795 0
M  V30 698 C 62.7863 4.26998 0.443944 0
M  V30 699 C 62.0193 5.14986 1.40088 0
M  V30 700 O 62.2423 5.05785 2.637 0
M  V30 701 O 61.1763 5.94906 0.914917 0
M  V30 702 H 65.0023 2.98607 -0.55388 0
M  V30 703 H 62.5873 1.45554 -0.336821 0
M  V30 704 H 64.4693 3.83459 1.74748 0
M  V30 705 H 63.1443 2.64465 1.86655 0
M  V30 706 H 62.0513 3.7368 -0.177271 0
M  V30 707 H 63.3843 4.91736 -0.213566 0
M  V30 708 N 65.0364 0.313813 1.54444 0
M  V30 709 C 66.2764 -0.292389 2.02298 0
M  V30 710 C 66.6404 -1.50105 1.19719 0
M  V30 711 O 67.8414 -2.17947 1.5733 0
M  V30 712 C 66.1124 -0.627682 3.51845 0
M  V30 713 S 67.6714 -1.21493 4.21646 0
M  V30 714 H 64.4894 -0.0890247 0.705405 0
M  V30 715 H 67.0914 0.444668 1.90376 0
M  V30 716 H 65.7954 0.260265 4.09574 0
M  V30 717 H 65.3264 -1.39519 3.67829 0
M  V30 718 H 67.3414 -2.5022 4.28491 0
M  V30 719 N 66.5145 -1.57545 0.0417849 0
M  V30 720 C 67.7615 -1.92317 -0.634082 0
M  V30 721 C 68.0895 -0.919334 -1.71402 0
M  V30 722 O 67.3445 0.0698253 -1.95575 0
M  V30 723 C 67.6435 -3.33794 -1.27735 0
M  V30 724 C 67.3095 -4.49716 -0.326543 0
M  V30 725 C 65.9715 -4.81156 -0.0648814 0
M  V30 726 C 68.3235 -5.20182 0.325623 0
M  V30 727 C 65.6515 -5.80414 0.856539 0
M  V30 728 C 68.0035 -6.20424 1.23518 0
M  V30 729 C 66.6675 -6.50298 1.5056 0
M  V30 730 H 65.9375 -0.703736 -0.232027 0
M  V30 731 H 68.5845 -1.91205 0.106259 0
M  V30 732 H 66.8895 -3.31228 -2.09274 0
M  V30 733 H 68.5865 -3.57975 -1.80707 0
M  V30 734 H 65.1765 -4.25176 -0.540665 0
M  V30 735 H 69.3605 -4.96112 0.136546 0
M  V30 736 H 64.6165 -6.019 1.07363 0
M  V30 737 H 68.7905 -6.74141 1.74664 0
M  V30 738 H 66.4175 -7.27025 2.22123 0
M  V30 739 N 67.9926 0.231505 -1.5589 0
M  V30 740 C 69.2226 0.973092 -1.82248 0
M  V30 741 C 69.6306 1.78845 -0.617328 0
M  V30 742 O 68.9736 1.78752 0.423499 0
M  V30 743 C 69.0356 1.94732 -3.02192 0
M  V30 744 C 68.6996 1.31743 -4.37599 0
M  V30 745 C 69.6966 0.712238 -5.14998 0
M  V30 746 C 67.3816 1.33218 -4.84312 0
M  V30 747 C 69.3756 0.130195 -6.37267 0
M  V30 748 C 67.0626 0.746286 -6.06526 0
M  V30 749 C 68.0606 0.146337 -6.82843 0
M  V30 750 O 67.7486 -0.430465 -8.02747 0
M  V30 751 H 67.4806 0.29125 -0.61004 0
M  V30 752 H 70.0346 0.254915 -2.03812 0
M  V30 753 H 68.2646 2.70422 -2.76422 0
M  V30 754 H 69.9536 2.55362 -3.15508 0
M  V30 755 H 70.7196 0.69324 -4.8002 0
M  V30 756 H 66.5986 1.78854 -4.24891 0
M  V30 757 H 70.1426 -0.33871 -6.96777 0
M  V30 758 H 66.0396 0.762663 -6.40979 0
M  V30 759 H 66.8076 -0.323818 -8.17859 0
M  V30 760 N 69.4707 1.49531 0.497807 0
M  V30 761 C 70.7197 1.58426 1.24837 0
M  V30 762 C 71.0327 0.277643 1.93619 0
M  V30 763 O 72.2387 0.24517 2.70391 0
M  V30 764 C 70.6947 2.79538 2.26686 0
M  V30 765 C 70.3027 4.16971 1.63828 0
M  V30 766 C 72.0467 2.97764 3.0255 0
M  V30 767 C 69.9537 5.29301 2.63807 0
M  V30 768 H 68.8837 0.58989 0.469623 0
M  V30 769 H 71.5347 1.75923 0.521857 0
M  V30 770 H 69.9167 2.55542 3.02514 0
M  V30 771 H 71.0907 4.51116 0.939711 0
M  V30 772 H 69.4057 4.04129 1.00342 0
M  V30 773 H 72.0027 3.78856 3.77323 0
M  V30 774 H 72.3457 2.08448 3.60354 0
M  V30 775 H 72.8787 3.21815 2.33838 0
M  V30 776 H 69.6177 6.20687 2.10779 0
M  V30 777 H 69.1377 4.99606 3.31894 0
M  V30 778 H 70.8167 5.58768 3.2617 0
M  V30 779 N 70.9488 -0.749086 1.3866 0
M  V30 780 C 72.3598 -1.32664 1.31366 0
M  V30 781 C 72.7108 -1.96179 -0.028484 0
M  V30 782 O 71.8358 -1.9537 -0.93057 0
M  V30 783 C 72.4308 -2.41219 2.37905 0
M  V30 784 C 70.9898 -2.94684 2.34176 0
M  V30 785 C 70.1368 -1.68108 2.20533 0
M  V30 786 H 73.0878 -0.547628 1.48952 0
M  V30 787 H 73.1088 -3.21268 2.0388 0
M  V30 788 H 72.6208 -1.94962 3.35576 0
M  V30 789 H 70.7218 -3.45258 1.401 0
M  V30 790 H 70.8348 -3.48757 3.2849 0
M  V30 791 H 69.1988 -1.91907 1.67463 0
M  V30 792 H 69.9818 -1.23923 3.20153 0
M  V30 793 N 72.4269 -1.23603 -0.977757 0
M  V30 794 C 73.3739 -1.01954 -2.07061 0
M  V30 795 C 74.3439 0.0638697 -1.65977 0
M  V30 796 O 75.5289 -0.0887624 -1.90593 0
M  V30 797 C 72.6689 -0.619658 -3.39491 0
M  V30 798 C 71.7819 -1.77547 -3.93829 0
M  V30 799 C 70.9169 -1.32212 -5.14484 0
M  V30 800 C 69.9559 -2.44852 -5.60994 0
M  V30 801 N 69.0929 -2.00456 -6.72876 0
M  V30 802 H 73.9329 -1.95495 -2.24913 0
M  V30 803 H 71.4699 -0.973861 -1.10247 0
M  V30 804 H 73.4279 -0.368898 -4.15566 0
M  V30 805 H 72.0579 0.278752 -3.21594 0
M  V30 806 H 71.1099 -2.14016 -3.14486 0
M  V30 807 H 72.4219 -2.62219 -4.24314 0
M  V30 808 H 71.5759 -1.02965 -5.97899 0
M  V30 809 H 70.3149 -0.445808 -4.85658 0
M  V30 810 H 69.3199 -2.74871 -4.76157 0
M  V30 811 H 70.5449 -3.33024 -5.91837 0
M  V30 812 H 68.4909 -1.15208 -6.45804 0
M  V30 813 H 68.4079 -2.78687 -7.02759 0
M  V30 814 H 69.6759 -1.7432 -7.59758 0
M  V30 815 N 73.905 1.17692 -1.04816 0
M  V30 816 C 75.154 1.87192 -0.751132 0
M  V30 817 C 75.467 1.8169 0.724441 0
M  V30 818 O 76.673 2.46625 1.13527 0
M  V30 819 C 75.129 3.35857 -1.29338 0
M  V30 820 C 74.737 3.4987 -2.79812 0
M  V30 821 C 76.481 4.10709 -1.07322 0
M  V30 822 C 74.388 4.92536 -3.27356 0
M  V30 823 H 73.318 0.701162 -0.277288 0
M  V30 824 H 75.969 1.32932 -1.26496 0
M  V30 825 H 74.351 3.89631 -0.707376 0
M  V30 826 H 75.525 3.06332 -3.44235 0
M  V30 827 H 73.84 2.88433 -3.00325 0
M  V30 828 H 76.437 5.15952 -1.4035 0
M  V30 829 H 76.78 4.16299 -0.0108001 0
M  V30 830 H 77.313 3.6313 -1.62423 0
M  V30 831 H 74.052 4.92119 -4.33012 0
M  V30 832 H 73.572 5.3676 -2.67673 0
M  V30 833 H 75.251 5.61288 -3.21815 0
M  V30 834 N 75.3831 0.828654 1.34056 0
M  V30 835 C 76.3151 0.212052 2.28217 0
M  V30 836 C 77.3281 -0.601362 1.51286 0
M  V30 837 O 78.5171 -0.430104 1.73241 0
M  V30 838 C 75.6171 -0.72088 3.31144 0
M  V30 839 C 74.7901 0.0509587 4.3737 0
M  V30 840 C 73.8491 -0.803766 5.20025 0
M  V30 841 O 72.8751 -0.246667 5.68665 0
M  V30 842 N 74.0771 -2.1227 5.40298 0
M  V30 843 H 76.8421 1.02105 2.81771 0
M  V30 844 H 74.4031 0.686153 1.46641 0
M  V30 845 H 76.3951 -1.29742 3.8334 0
M  V30 846 H 74.9651 -1.43061 2.77943 0
M  V30 847 H 74.1851 0.808831 3.85813 0
M  V30 848 H 75.4731 0.582065 5.0546 0
M  V30 849 H 74.8711 -2.59898 5.02464 0
M  V30 850 H 73.4281 -2.64796 5.95589 0
M  V30 851 N 76.8612 -1.46375 0.584142 0
M  V30 852 C 78.1382 -1.956 0.0033388 0
M  V30 853 C 78.5182 -1.52679 -1.45782 0
M  V30 854 O 77.8662 -0.77816 -2.14842 0
M  V30 855 C 78.0762 -3.48551 0.176891 0
M  V30 856 C 79.4242 -4.24576 0.0454609 0
M  V30 857 O 80.4482 -3.56043 0.105801 0
M  V30 858 O 79.3072 -5.46427 -0.0890376 0
M  V30 859 H 76.4012 -0.825547 -0.0490066 0
M  V30 860 H 78.9472 -1.56652 0.65256 0
M  V30 861 H 77.7192 -3.72683 1.1926 0
M  V30 862 H 77.3422 -3.94332 -0.508695 0
M  V30 863 N 78.3393 -0.321999 -1.54275 0
M  V30 864 C 79.2693 0.537411 -2.27231 0
M  V30 865 C 80.2503 1.12064 -1.27968 0
M  V30 866 O 81.4353 1.14606 -1.56777 0
M  V30 867 C 78.5653 1.69919 -3.02894 0
M  V30 868 C 77.5193 1.24534 -4.09482 0
M  V30 869 C 76.8453 2.49394 -4.72977 0
M  V30 870 C 78.1453 0.361335 -5.21049 0
M  V30 871 H 79.8393 -0.0711406 -2.99315 0
M  V30 872 H 77.3853 -0.0356555 -1.43956 0
M  V30 873 H 79.3383 2.30668 -3.52662 0
M  V30 874 H 78.0623 2.33431 -2.28424 0
M  V30 875 H 76.7213 0.660782 -3.60596 0
M  V30 876 H 76.3693 3.11265 -3.95124 0
M  V30 877 H 76.0693 2.19718 -5.44975 0
M  V30 878 H 77.5933 3.10908 -5.25517 0
M  V30 879 H 79.0073 0.875072 -5.66582 0
M  V30 880 H 77.4043 0.157428 -5.99893 0
M  V30 881 H 78.4743 -0.60822 -4.8107 0
M  V30 882 N 79.8174 1.5752 -0.0501392 0
M  V30 883 C 81.2284 1.80271 0.485705 0
M  V30 884 C 81.5794 0.96228 1.70981 0
M  V30 885 O 80.7044 0.178578 2.15662 0
M  V30 886 C 81.2994 3.26957 0.887938 0
M  V30 887 C 79.8584 3.5063 1.36877 0
M  V30 888 C 79.0054 2.75165 0.343468 0
M  V30 889 H 81.9564 1.56281 -0.276028 0
M  V30 890 H 81.9774 3.37821 1.75093 0
M  V30 891 H 81.4894 3.881 -0.0031809 0
M  V30 892 H 79.5904 2.94766 2.27911 0
M  V30 893 H 79.7034 4.59343 1.36164 0
M  V30 894 H 78.0674 2.4127 0.816128 0
M  V30 895 H 78.8504 3.39034 -0.539548 0
M  V30 896 N 81.2955 -0.223234 1.56011 0
M  V30 897 C 82.7065 -0.790368 1.69145 0
M  V30 898 C 83.0575 -1.85055 0.651845 0
M  V30 899 O 82.1825 -2.15498 -0.197359 0
M  V30 900 C 82.7775 -1.4404 3.06656 0
M  V30 901 C 81.3365 -1.95494 3.2165 0
M  V30 902 C 80.4835 -0.814506 2.65068 0
M  V30 903 H 83.4345 0.00139011 1.587 0
M  V30 904 H 83.4555 -2.30916 3.0242 0
M  V30 905 H 82.9675 -0.668543 3.82298 0
M  V30 906 H 81.0685 -2.75487 2.50874 0
M  V30 907 H 81.1815 -2.13607 4.28846 0
M  V30 908 H 79.5455 -1.22137 2.23505 0
M  V30 909 H 80.3285 -0.0553515 3.43255 0
M  V30 910 N 82.7736 -1.49793 -0.48987 0
M  V30 911 C 84.0196 -1.60078 -1.24511 0
M  V30 912 C 84.3526 -0.291608 -1.91998 0
M  V30 913 O 83.6276 0.705647 -1.81248 0
M  V30 914 C 83.9106 -2.76791 -2.30345 0
M  V30 915 C 83.7636 -4.17535 -1.67286 0
M  V30 916 C 85.0826 -2.89111 -3.31817 0
M  V30 917 H 82.2016 -0.582645 -0.451324 0
M  V30 918 H 84.8436 -1.82117 -0.541612 0
M  V30 919 H 82.9936 -2.5813 -2.90346 0
M  V30 920 H 84.6656 -4.4774 -1.11026 0
M  V30 921 H 82.9086 -4.22665 -0.976577 0
M  V30 922 H 83.5796 -4.95094 -2.44103 0
M  V30 923 H 86.0556 -3.06133 -2.81819 0
M  V30 924 H 84.9316 -3.72433 -4.03219 0
M  V30 925 H 85.1926 -1.9893 -3.94815 0
M  V30 926 N 84.2517 0.741722 -1.39055 0
M  V30 927 C 85.5287 1.49252 -1.26425 0
M  V30 928 C 85.9087 2.10705 0.129144 0
M  V30 929 O 85.2567 1.98045 1.13976 0
M  V30 930 C 85.4667 2.54934 -2.38347 0
M  V30 931 C 86.8147 3.21506 -2.77343 0
M  V30 932 O 87.8387 2.65245 -2.37747 0
M  V30 933 O 86.6977 4.23294 -3.45665 0
M  V30 934 H 83.7917 0.662451 -0.495064 0
M  V30 935 H 86.3377 0.776121 -1.50912 0
M  V30 936 H 85.1097 2.07857 -3.31529 0
M  V30 937 H 84.7327 3.34141 -2.15489 0
M  V30 938 N 85.7298 1.2412 0.971189 0
M  V30 939 C 86.6598 1.05508 2.08304 0
M  V30 940 C 87.6408 -0.0308864 1.70072 0
M  V30 941 O 88.8258 0.135521 1.93727 0
M  V30 942 C 85.9558 0.655365 3.4106 0
M  V30 943 C 84.9098 1.68971 3.93234 0
M  V30 944 C 84.2358 1.14516 5.22293 0
M  V30 945 C 85.5358 3.08487 4.21465 0
M  V30 946 H 87.2298 1.98507 2.24132 0
M  V30 947 H 84.7758 0.955821 1.07704 0
M  V30 948 H 86.7288 0.51217 4.18276 0
M  V30 949 H 85.4528 -0.31032 3.25122 0
M  V30 950 H 84.1118 1.82106 3.18171 0
M  V30 951 H 83.7598 0.170189 5.02712 0
M  V30 952 H 83.4598 1.83635 5.58168 0
M  V30 953 H 84.9838 1.01401 6.02121 0
M  V30 954 H 86.3978 2.98601 4.89398 0
M  V30 955 H 84.7948 3.74926 4.68562 0
M  V30 956 H 85.8648 3.56787 3.28376 0
M  V30 957 N 87.2079 -1.17134 1.05439 0
M  V30 958 C 88.4329 -1.91913 0.786396 0
M  V30 959 C 88.8579 -1.7643 -0.652234 0
M  V30 960 O 88.2159 -1.08372 -1.45345 0
M  V30 961 C 88.2639 -3.40921 1.17497 0
M  V30 962 O 87.3679 -4.11244 0.308589 0
M  V30 963 H 86.7089 -0.598215 0.288158 0
M  V30 964 H 89.2389 -1.48457 1.4079 0
M  V30 965 H 89.2489 -3.91668 1.14281 0
M  V30 966 H 87.9239 -3.5151 2.22292 0
M  V30 967 H 86.5009 -3.70731 0.40157 0
M  V30 968 N 88.686 -0.835752 -1.33615 0
M  V30 969 C 89.616 -0.281739 -2.31794 0
M  V30 970 C 90.597 0.608833 -1.58831 0
M  V30 971 O 91.782 0.533035 -1.86741 0
M  V30 972 C 88.912 0.546612 -3.42971 0
M  V30 973 C 87.866 -0.247904 -4.27281 0
M  V30 974 C 87.192 0.704001 -5.30045 0
M  V30 975 C 88.492 -1.46324 -5.01385 0
M  V30 976 H 90.186 -1.10206 -2.78379 0
M  V30 977 H 87.732 -0.531388 -1.33837 0
M  V30 978 H 89.685 0.944467 -4.1068 0
M  V30 979 H 88.409 1.40011 -2.95067 0
M  V30 980 H 87.068 -0.627281 -3.61194 0
M  V30 981 H 86.716 1.55381 -4.78399 0
M  V30 982 H 86.416 0.176524 -5.87335 0
M  V30 983 H 87.94 1.09944 -6.0062 0
M  V30 984 H 89.354 -1.13871 -5.61877 0
M  V30 985 H 87.751 -1.92728 -5.6831 0
M  V30 986 H 88.821 -2.23467 -4.30338 0
M  V30 987 N 90.1641 1.46063 -0.591896 0
M  V30 988 C 91.4101 2.02638 -0.0811191 0
M  V30 989 C 91.7431 1.4613 1.27905 0
M  V30 990 O 91.0181 0.629908 1.84017 0
M  V30 991 C 91.3011 3.60091 -0.0252436 0
M  V30 992 C 91.1541 4.26965 -1.41496 0
M  V30 993 C 92.4731 4.3496 0.670685 0
M  V30 994 H 89.5921 0.73635 -0.0309524 0
M  V30 995 H 92.2341 1.741 -0.760859 0
M  V30 996 H 90.3841 3.84535 0.553624 0
M  V30 997 H 92.0561 4.13756 -2.0397 0
M  V30 998 H 90.2991 3.85971 -1.98011 0
M  V30 999 H 90.9701 5.35781 -1.32825 0
M  V30 1000 H 93.4461 4.15716 0.178825 0
M  V30 1001 H 92.3221 5.44686 0.678837 0
M  V30 1002 H 92.5831 4.06685 1.73379 0
M  V30 1003 N 91.6422 0.330177 1.54103 0
M  V30 1004 C 92.5902 -0.548226 2.26047 0
M  V30 1005 C 93.5842 -1.11309 1.27698 0
M  V30 1006 O 94.7902 -1.06036 1.45452 0
M  V30 1007 H 91.1652 -0.195456 0.726155 0
M  V30 1008 H 93.1362 0.0807567 2.98291 0
M  V30 1009 C 91.8852 -1.69415 3.03634 0
M  V30 1010 H 91.2082 -1.26876 3.79134 0
M  V30 1011 H 92.6482 -2.28423 3.5721 0
M  V30 1012 C 91.1072 -2.61569 2.12328 0
M  V30 1013 O 91.6372 -3.63462 1.7105 0
M  V30 1014 N 89.8432 -2.29952 1.77681 0
M  V30 1015 H 89.3902 -1.47134 2.11446 0
M  V30 1016 H 89.3482 -2.91871 1.16869 0
M  V30 1017 N 93.1203 -1.57491 0.0584922 0
M  V30 1018 C 94.0673 -2.11958 -0.913376 0
M  V30 1019 C 95.0373 -1.02875 -1.30407 0
M  V30 1020 O 96.2223 -1.30464 -1.39226 0
M  V30 1021 C 93.3623 -2.67497 -2.18035 0
M  V30 1022 C 92.4753 -3.90691 -1.84349 0
M  V30 1023 C 91.6103 -4.3452 -3.05559 0
M  V30 1024 C 90.6493 -5.50395 -2.67827 0
M  V30 1025 N 89.7863 -5.89244 -3.81754 0
M  V30 1026 H 94.6263 -2.94704 -0.442017 0
M  V30 1027 H 92.1633 -1.45643 -0.206545 0
M  V30 1028 H 94.1213 -2.978 -2.92183 0
M  V30 1029 H 92.7513 -1.87537 -2.62735 0
M  V30 1030 H 91.8033 -3.66934 -1.00319 0
M  V30 1031 H 93.1153 -4.7489 -1.5258 0
M  V30 1032 H 92.2693 -4.66414 -3.87998 0
M  V30 1033 H 91.0083 -3.49147 -3.40511 0
M  V30 1034 H 90.0133 -5.18165 -1.83806 0
M  V30 1035 H 91.2383 -6.3749 -2.34059 0
M  V30 1036 H 89.1843 -5.06823 -4.16493 0
M  V30 1037 H 89.1013 -6.68151 -3.53708 0
M  V30 1038 H 90.3693 -6.25756 -4.64811 0
M  V30 1039 N 94.5984 0.214957 -1.56127 0
M  V30 1040 C 95.8754 0.963093 -1.70247 0
M  V30 1041 C 96.2554 2.02166 -0.60764 0
M  V30 1042 O 95.6034 2.25244 0.384385 0
M  V30 1043 C 95.8134 1.56756 -3.11815 0
M  V30 1044 C 97.1614 2.0573 -3.7143 0
M  V30 1045 O 98.1854 1.66637 -3.14818 0
M  V30 1046 O 97.0444 2.77603 -4.70743 0
M  V30 1047 H 94.1384 0.450321 -0.693643 0
M  V30 1048 H 96.6844 0.206219 -1.68442 0
M  V30 1049 H 95.4564 0.803533 -3.82961 0
M  V30 1050 H 95.0794 2.3898 -3.17765 0
M  V30 1051 N 96.0765 1.50051 0.48192 0
M  V30 1052 C 96.9865 1.7089 1.60728 0
M  V30 1053 C 98.0025 0.591788 1.63627 0
M  V30 1054 O 99.1785 0.868817 1.81696 0
M  V30 1055 C 96.2435 1.78855 2.97005 0
M  V30 1056 C 95.3045 3.02537 3.04581 0
M  V30 1057 C 94.5375 3.10112 4.34357 0
M  V30 1058 O 94.7605 2.24765 5.24249 0
M  V30 1059 O 93.6945 4.02747 4.47301 0
M  V30 1060 H 97.5205 2.66264 1.46072 0
M  V30 1061 H 95.1055 1.34018 0.660264 0
M  V30 1062 H 96.9875 1.86336 3.77964 0
M  V30 1063 H 95.6625 0.866628 3.11883 0
M  V30 1064 H 94.5695 3.00563 2.22739 0
M  V30 1065 H 95.9025 3.94272 2.94636 0
M  V30 1066 N 97.5546 -0.734337 1.39446 0
M  V30 1067 C 98.5026 -1.86971 1.38364 0
M  V30 1068 C 99.4966 -1.67288 0.266687 0
M  V30 1069 O 100.703 -1.74621 0.436755 0
M  V30 1070 H 97.0776 -0.615474 0.432082 0
M  V30 1071 H 99.0486 -1.85 2.34132 0
M  V30 1072 C 97.7976 -3.2466 1.24465 0
M  V30 1073 H 97.1206 -3.40402 2.09682 0
M  V30 1074 H 98.5606 -4.04292 1.27764 0
M  V30 1075 C 97.0196 -3.36867 -0.0468674 0
M  V30 1076 O 97.5496 -3.88618 -1.01681 0
M  V30 1077 N 95.7556 -2.90391 -0.110145 0
M  V30 1078 H 95.3026 -2.48466 0.679868 0
M  V30 1079 H 95.2606 -2.98939 -0.973799 0
M  V30 1080 N 99.0327 -1.24633 -0.964593 0
M  V30 1081 C 99.9957 -1.0424 -2.04124 0
M  V30 1082 C 100.996 0.00137563 -1.608 0
M  V30 1083 O 102.186 -0.239883 -1.7254 0
M  V30 1084 C 99.3177 -0.580588 -3.3592 0
M  V30 1085 H 100.511 -1.99803 -2.23649 0
M  V30 1086 H 98.0637 -1.06899 -1.14027 0
M  V30 1087 H 98.7987 0.3781 -3.22088 0
M  V30 1088 H 98.5837 -1.33398 -3.6871 0
M  V30 1089 H 100.074 -0.459034 -4.15069 0
M  V30 1090 N 100.511 1.16574 -1.06058 0
M  V30 1091 C 101.76 1.86385 -0.770944 0
M  V30 1092 C 102.073 1.82448 0.705129 0
M  V30 1093 O 103.279 2.47815 1.10905 0
M  V30 1094 C 101.735 3.34466 -1.32893 0
M  V30 1095 C 101.343 3.46883 -2.83507 0
M  V30 1096 C 103.087 4.09548 -1.11672 0
M  V30 1097 C 100.994 4.89036 -3.32562 0
M  V30 1098 H 99.9238 0.698181 -0.284709 0
M  V30 1099 H 102.575 1.31583 -1.27899 0
M  V30 1100 H 100.957 3.88859 -0.748662 0
M  V30 1101 H 102.131 3.02663 -3.47465 0
M  V30 1102 H 100.446 2.85232 -3.03368 0
M  V30 1103 H 103.043 5.14434 -1.45814 0
M  V30 1104 H 103.386 4.16264 -0.0549535 0
M  V30 1105 H 103.919 3.61387 -1.66265 0
M  V30 1106 H 100.658 4.87499 -4.38207 0
M  V30 1107 H 100.178 5.3389 -2.73351 0
M  V30 1108 H 101.857 5.57843 -3.2775 0
M  V30 1109 N 101.989 0.842826 1.3317 0
M  V30 1110 C 103.219 0.453397 2.01564 0
M  V30 1111 C 103.627 -0.951147 1.63554 0
M  V30 1112 O 102.97 -1.63021 0.846746 0
M  V30 1113 C 103.032 0.499013 3.5602 0
M  V30 1114 C 102.696 1.86037 4.1742 0
M  V30 1115 C 103.693 2.82416 4.36506 0
M  V30 1116 C 101.378 2.15428 4.53757 0
M  V30 1117 C 103.372 4.06346 4.91082 0
M  V30 1118 C 101.059 3.39615 5.0804 0
M  V30 1119 C 102.057 4.3489 5.26649 0
M  V30 1120 O 101.745 5.5688 5.79776 0
M  V30 1121 H 101.477 0.177871 0.652179 0
M  V30 1122 H 104.031 1.13808 1.70988 0
M  V30 1123 H 102.261 -0.242467 3.85939 0
M  V30 1124 H 103.95 0.126852 4.05702 0
M  V30 1125 H 104.716 2.6101 4.08777 0
M  V30 1126 H 100.595 1.42061 4.38565 0
M  V30 1127 H 104.139 4.80722 5.05522 0
M  V30 1128 H 100.036 3.60876 5.352 0
M  V30 1129 H 100.804 5.58674 5.98185 0
M  V30 1130 N 103.467 -1.45747 0.599634 0
M  V30 1131 C 104.714 -2.02292 0.0917284 0
M  V30 1132 C 105.042 -1.46906 -1.27472 0
M  V30 1133 O 104.297 -0.630652 -1.8526 0
M  V30 1134 C 104.596 -3.57399 -0.00602758 0
M  V30 1135 C 104.262 -4.31902 1.29503 0
M  V30 1136 C 102.924 -4.51974 1.65144 0
M  V30 1137 C 105.276 -4.74551 2.15525 0
M  V30 1138 C 102.604 -5.11949 2.86574 0
M  V30 1139 C 104.956 -5.35868 3.36196 0
M  V30 1140 C 103.62 -5.54165 3.72099 0
M  V30 1141 H 102.89 -0.740239 0.0335658 0
M  V30 1142 H 105.537 -1.7491 0.779661 0
M  V30 1143 H 103.842 -3.84014 -0.777183 0
M  V30 1144 H 105.539 -3.98846 -0.415038 0
M  V30 1145 H 102.129 -4.16588 1.00761 0
M  V30 1146 H 106.313 -4.58784 1.8929 0
M  V30 1147 H 101.569 -5.24305 3.14507 0
M  V30 1148 H 105.743 -5.6787 4.03109 0
M  V30 1149 H 103.37 -6.00406 4.6628 0
M  V30 1150 N 104.945 -0.338344 -1.53925 0
M  V30 1151 C 105.875 0.51328 -2.27789 0
M  V30 1152 C 106.856 1.107 -1.29149 0
M  V30 1153 O 108.041 1.12937 -1.57984 0
M  V30 1154 C 105.171 1.66697 -3.04679 0
M  V30 1155 C 104.125 1.20183 -4.1078 0
M  V30 1156 C 103.451 2.44363 -4.75595 0
M  V30 1157 C 104.751 0.30605 -5.21403 0
M  V30 1158 H 106.445 -0.102883 -2.99223 0
M  V30 1159 H 103.991 -0.0509219 -1.4391 0
M  V30 1160 H 105.944 2.26915 -3.55088 0
M  V30 1161 H 104.668 2.30995 -2.30887 0
M  V30 1162 H 103.327 0.622499 -3.61276 0
M  V30 1163 H 102.975 3.07057 -3.98403 0
M  V30 1164 H 102.675 2.13925 -5.47275 0
M  V30 1165 H 104.199 3.05317 -5.28786 0
M  V30 1166 H 105.613 0.814929 -5.67478 0
M  V30 1167 H 104.01 0.0937929 -6.00027 0
M  V30 1168 H 105.08 -0.65921 -4.80398 0
M  V30 1169 N 106.423 1.57458 -0.0668435 0
M  V30 1170 C 107.671 1.92919 0.602214 0
M  V30 1171 C 107.992 0.947215 1.70449 0
M  V30 1172 O 107.262 -0.00544117 1.95899 0
M  V30 1173 H 105.842 0.71217 0.22544 0
M  V30 1174 H 108.504 1.94508 -0.123535 0
M  V30 1175 H 107.6 2.94589 1.03073 0
M  V30 1176 N 107.901 -0.206675 1.56239 0
M  V30 1177 C 108.849 -1.27571 1.94495 0
M  V30 1178 C 109.843 -1.47737 0.828862 0
M  V30 1179 O 111.049 -1.48735 1.0138 0
M  V30 1180 H 107.424 -0.428029 0.6183 0
M  V30 1181 H 109.395 -0.925961 2.8367 0
M  V30 1182 C 108.144 -2.61568 2.29079 0
M  V30 1183 H 107.467 -2.46863 3.14482 0
M  V30 1184 H 108.907 -3.35144 2.5972 0
M  V30 1185 C 107.366 -3.17695 1.12123 0
M  V30 1186 O 107.896 -3.99801 0.390153 0
M  V30 1187 N 106.102 -2.76276 0.901097 0
M  V30 1188 H 105.649 -2.09613 1.49733 0
M  V30 1189 H 105.607 -3.1417 0.120319 0
M  V30 1190 N 109.379 -1.50304 -0.473955 0
M  V30 1191 C 110.604 -1.65175 -1.25427 0
M  V30 1192 C 111.029 -0.333673 -1.85117 0
M  V30 1193 O 110.387 0.702114 -1.67153 0
M  V30 1194 C 110.435 -2.74295 -2.34082 0
M  V30 1195 O 109.539 -2.35349 -3.38651 0
M  V30 1196 H 108.88 -0.551944 -0.369126 0
M  V30 1197 H 111.41 -1.96662 -0.564364 0
M  V30 1198 H 111.42 -2.97285 -2.79438 0
M  V30 1199 H 110.095 -3.69959 -1.90008 0
M  V30 1200 H 108.672 -2.22794 -2.99027 0
M  V30 1201 N 110.857 0.726932 -1.39834 0
M  V30 1202 C 111.787 1.85405 -1.41941 0
M  V30 1203 C 112.768 1.67751 -0.281728 0
M  V30 1204 O 113.953 1.8795 -0.488717 0
M  V30 1205 C 111.083 3.23243 -1.2701 0
M  V30 1206 C 110.037 3.55549 -2.38262 0
M  V30 1207 C 109.363 4.9241 -2.08415 0
M  V30 1208 C 110.663 3.577 -3.80589 0
M  V30 1209 H 112.357 1.83899 -2.36266 0
M  V30 1210 H 109.903 0.883349 -1.13723 0
M  V30 1211 H 111.856 4.01775 -1.27103 0
M  V30 1212 H 110.58 3.25296 -0.291564 0
M  V30 1213 H 109.239 2.79351 -2.37399 0
M  V30 1214 H 108.887 4.91052 -1.0898 0
M  V30 1215 H 108.587 5.14992 -2.82943 0
M  V30 1216 H 110.111 5.73289 -2.10171 0
M  V30 1217 H 111.525 4.26293 -3.83337 0
M  V30 1218 H 109.922 3.91804 -4.54543 0
M  V30 1219 H 110.992 2.57328 -4.10987 0
M  V30 1220 N 112.336 1.25143 0.95797 0
M  V30 1221 C 113.584 1.09476 1.69881 0
M  V30 1222 C 113.905 -0.365502 1.91544 0
M  V30 1223 O 113.175 -1.25985 1.50015 0
M  V30 1224 H 111.755 0.402128 0.629525 0
M  V30 1225 H 114.417 1.57214 1.15194 0
M  V30 1226 H 113.513 1.60046 2.6794 0
M  V30 1227 N 113.814 -1.1601 1.06675 0
M  V30 1228 C 114.744 -2.22688 0.702307 0
M  V30 1229 C 115.725 -1.67306 -0.307032 0
M  V30 1230 O 116.91 -1.93352 -0.181305 0
M  V30 1231 C 114.04 -3.47178 0.092038 0
M  V30 1232 C 112.994 -4.15477 1.02777 0
M  V30 1233 C 112.32 -5.33963 0.28061 0
M  V30 1234 C 113.62 -4.66019 2.35846 0
M  V30 1235 H 115.314 -2.53429 1.59419 0
M  V30 1236 H 112.86 -1.21813 0.767961 0
M  V30 1237 H 114.813 -4.21037 -0.174814 0
M  V30 1238 H 113.537 -3.15749 -0.834877 0
M  V30 1239 H 112.196 -3.43549 1.27944 0
M  V30 1240 H 111.844 -4.98788 -0.649545 0
M  V30 1241 H 111.544 -5.806 0.904258 0
M  V30 1242 H 113.068 -6.10596 0.021396 0
M  V30 1243 H 114.482 -5.3144 2.15045 0
M  V30 1244 H 112.879 -5.23293 2.93743 0
M  V30 1245 H 113.949 -3.82023 2.98641 0
M  V30 1246 N 115.292 -0.849877 -1.32721 0
M  V30 1247 C 116.224 -0.248332 -2.27851 0
M  V30 1248 C 117.237 0.577218 -1.52224 0
M  V30 1249 O 118.426 0.402489 -1.73903 0
M  V30 1250 C 115.526 0.668107 -3.32249 0
M  V30 1251 C 114.699 -0.120534 -4.37234 0
M  V30 1252 C 113.758 0.720932 -5.21238 0
M  V30 1253 O 112.784 0.156166 -5.68986 0
M  V30 1254 N 113.986 2.03647 -5.43607 0
M  V30 1255 H 116.751 -1.06575 -2.80111 0
M  V30 1256 H 114.312 -0.709395 -1.45531 0
M  V30 1257 H 116.304 1.23627 -3.85355 0
M  V30 1258 H 114.874 1.38621 -2.80184 0
M  V30 1259 H 114.094 -0.870108 -3.84477 0
M  V30 1260 H 115.382 -0.662406 -5.0447 0
M  V30 1261 H 114.78 2.51871 -5.06535 0
M  V30 1262 H 113.337 2.55287 -5.99727 0
M  V30 1263 N 116.77 1.45427 -0.607355 0
M  V30 1264 C 118.181 1.85756 -0.187535 0
M  V30 1265 C 118.532 1.5077 1.25551 0
M  V30 1266 O 117.657 0.93427 1.95193 0
M  V30 1267 C 118.252 3.37154 -0.333572 0
M  V30 1268 C 116.811 3.76387 0.0315542 0
M  V30 1269 C 115.958 2.69377 -0.658117 0
M  V30 1270 H 118.909 1.36231 -0.81405 0
M  V30 1271 H 118.93 3.78014 0.43428 0
M  V30 1272 H 118.442 3.62586 -1.38393 0
M  V30 1273 H 116.543 3.56571 1.0811 0
M  V30 1274 H 116.656 4.77731 -0.361935 0
M  V30 1275 H 115.02 2.5452 -0.0957873 0
M  V30 1276 H 115.803 2.97646 -1.7106 0
M  V30 1277 N 118.248 0.346503 1.53744 0
M  V30 1278 C 119.195 -0.508914 2.25119 0
M  V30 1279 C 120.165 -1.09315 1.25058 0
M  V30 1280 O 121.35 -1.12921 1.53797 0
M  V30 1281 C 118.49 -1.65246 3.02965 0
M  V30 1282 C 117.603 -1.09525 4.17886 0
M  V30 1283 C 116.738 -2.20634 4.83212 0
M  V30 1284 C 115.777 -1.62279 5.90196 0
M  V30 1285 N 114.914 -2.67143 6.49291 0
M  V30 1286 H 119.754 0.106283 2.9781 0
M  V30 1287 H 117.291 0.0642227 1.4696 0
M  V30 1288 H 119.249 -2.32574 3.4636 0
M  V30 1289 H 117.879 -2.2386 2.32565 0
M  V30 1290 H 116.931 -0.312818 3.79112 0
M  V30 1291 H 118.243 -0.628444 4.94825 0
M  V30 1292 H 117.397 -2.95821 5.29693 0
M  V30 1293 H 116.136 -2.70659 4.05703 0
M  V30 1294 H 115.141 -0.855989 5.43096 0
M  V30 1295 H 116.366 -1.13102 6.69615 0
M  V30 1296 H 114.312 -3.16417 5.74645 0
M  V30 1297 H 114.229 -2.25093 7.21713 0
M  V30 1298 H 115.497 -3.4209 7.00425 0
M  V30 1299 N 119.726 -1.57421 0.075193 0
M  V30 1300 C 120.659 -2.08528 -0.926904 0
M  V30 1301 C 121.637 -0.991171 -1.28898 0
M  V30 1302 O 122.821 -1.26479 -1.39769 0
M  V30 1303 C 119.948 -2.54576 -2.23402 0
M  V30 1304 C 118.994 -3.75454 -2.02327 0
M  V30 1305 S 119.827 -5.19989 -1.27951 0
M  V30 1306 C 120.983 -5.69372 -2.59935 0
M  V30 1307 H 121.216 -2.932 -0.492048 0
M  V30 1308 H 118.749 -1.53785 -0.137651 0
M  V30 1309 H 120.707 -2.81767 -2.98526 0
M  V30 1310 H 119.368 -1.70166 -2.64012 0
M  V30 1311 H 118.561 -4.05675 -2.99071 0
M  V30 1312 H 118.163 -3.48654 -1.35339 0
M  V30 1313 H 120.455 -5.76424 -3.56008 0
M  V30 1314 H 121.398 -6.68207 -2.34319 0
M  V30 1315 H 121.806 -4.97205 -2.67296 0
M  V30 1316 N 121.204 0.198386 -1.56346 0
M  V30 1317 C 122.45 0.920648 -1.80698 0
M  V30 1318 C 122.783 1.83045 -0.648697 0
M  V30 1319 O 122.058 1.91308 0.350925 0
M  V30 1320 C 122.341 1.73971 -3.15287 0
M  V30 1321 C 122.194 0.85485 -4.41602 0
M  V30 1322 C 123.513 2.71296 -3.46535 0
M  V30 1323 H 120.632 0.333261 -0.657348 0
M  V30 1324 H 123.274 0.188198 -1.89066 0
M  V30 1325 H 121.424 2.36416 -3.08285 0
M  V30 1326 H 123.096 0.245362 -4.60647 0
M  V30 1327 H 121.339 0.161398 -4.335 0
M  V30 1328 H 122.01 1.46286 -5.32264 0
M  V30 1329 H 124.486 2.18983 -3.53816 0
M  V30 1330 H 123.362 3.2569 -4.41834 0
M  V30 1331 H 123.623 3.5018 -2.69864 0
M  V30 1332 N 122.682 1.50554 0.465978 0
M  V30 1333 C 123.629 1.6979 1.56333 0
M  V30 1334 C 124.599 0.539239 1.57103 0
M  V30 1335 O 125.784 0.770401 1.74555 0
M  V30 1336 C 122.924 1.80273 2.94271 0
M  V30 1337 C 122.037 3.07674 3.0325 0
M  V30 1338 C 121.172 3.08922 4.32135 0
M  V30 1339 C 120.211 4.30755 4.34875 0
M  V30 1340 N 119.348 4.29714 5.55239 0
M  V30 1341 H 124.188 2.63472 1.39235 0
M  V30 1342 H 121.725 1.30602 0.676873 0
M  V30 1343 H 123.683 1.84332 3.74269 0
M  V30 1344 H 122.313 0.900258 3.09992 0
M  V30 1345 H 121.365 3.13062 2.16094 0
M  V30 1346 H 122.677 3.97642 3.01135 0
M  V30 1347 H 121.831 3.11738 5.20485 0
M  V30 1348 H 120.57 2.16792 4.36866 0
M  V30 1349 H 119.575 4.28146 3.44922 0
M  V30 1350 H 120.8 5.24117 4.31831 0
M  V30 1351 H 118.746 3.4044 5.60746 0
M  V30 1352 H 118.663 5.13456 5.54886 0
M  V30 1353 H 119.931 4.36683 6.457 0
M  V30 1354 N 124.16 -0.719506 1.40217 0
M  V30 1355 C 125.388 -1.50864 1.41589 0
M  V30 1356 C 125.803 -1.88794 0.0145275 0
M  V30 1357 O 125.16 -1.55174 -0.960594 0
M  V30 1358 C 125.211 -2.78646 2.30302 0
M  V30 1359 O 124.932 -2.42321 3.64983 0
M  V30 1360 C 126.433 -3.72569 2.40224 0
M  V30 1361 H 123.653 -0.465709 0.48307 0
M  V30 1362 H 126.197 -0.88785 1.84221 0
M  V30 1363 H 124.352 -3.37019 1.91042 0
M  V30 1364 H 124.766 -3.24514 4.12057 0
M  V30 1365 H 126.24 -4.5908 3.06512 0
M  V30 1366 H 126.717 -4.15403 1.42608 0
M  V30 1367 H 127.323 -3.20109 2.80019 0
M  V30 1368 N 125.638 -1.25649 -0.95132 0
M  V30 1369 C 126.868 -1.13179 -1.72841 0
M  V30 1370 C 127.276 0.316827 -1.86528 0
M  V30 1371 O 126.619 1.22948 -1.3649 0
M  V30 1372 C 126.681 -1.71644 -3.15878 0
M  V30 1373 C 126.345 -3.20667 -3.25609 0
M  V30 1374 C 127.342 -4.17616 -3.09666 0
M  V30 1375 C 125.027 -3.6094 -3.49324 0
M  V30 1376 C 127.021 -5.52817 -3.17289 0
M  V30 1377 C 124.708 -4.96278 -3.56584 0
M  V30 1378 C 125.706 -5.92025 -3.40581 0
M  V30 1379 O 125.394 -7.24899 -3.47528 0
M  V30 1380 H 125.126 -0.395389 -0.54831 0
M  V30 1381 H 127.68 -1.66566 -1.20187 0
M  V30 1382 H 125.91 -1.12707 -3.69911 0
M  V30 1383 H 127.599 -1.54225 -3.75459 0
M  V30 1384 H 128.365 -3.87842 -2.91211 0
M  V30 1385 H 124.244 -2.86907 -3.6084 0
M  V30 1386 H 127.788 -6.2753 -3.04716 0
M  V30 1387 H 123.685 -5.25716 -3.74556 0
M  V30 1388 H 124.453 -7.33039 -3.64138 0
M  V30 1389 N 127.117 1.15442 -1.07289 0
M  V30 1390 C 128.047 2.22312 -0.714107 0
M  V30 1391 C 129.028 1.67467 0.298155 0
M  V30 1392 O 130.213 1.93445 0.171048 0
M  V30 1393 C 127.343 3.47124 -0.110448 0
M  V30 1394 C 126.297 4.14926 -1.04979 0
M  V30 1395 C 125.623 5.33807 -0.308924 0
M  V30 1396 C 126.923 4.64762 -2.38314 0
M  V30 1397 H 128.617 2.5258 -1.6076 0
M  V30 1398 H 126.163 1.21404 -0.77441 0
M  V30 1399 H 128.116 4.21124 0.152482 0
M  V30 1400 H 126.84 3.16187 0.81812 0
M  V30 1401 H 125.499 3.42866 -1.29764 0
M  V30 1402 H 125.147 4.99126 0.623084 0
M  V30 1403 H 124.847 5.80113 -0.935036 0
M  V30 1404 H 126.371 6.10576 -0.0537771 0
M  V30 1405 H 127.785 5.30292 -2.1786 0
M  V30 1406 H 126.182 5.21728 -2.96514 0
M  V30 1407 H 127.252 3.80434 -3.00663 0
M  V30 1408 N 128.595 0.856903 1.32268 0
M  V30 1409 C 129.505 0.306131 2.32594 0
M  V30 1410 C 130.521 -0.577209 1.64147 0
M  V30 1411 O 131.697 -0.477043 1.95669 0
M  V30 1412 C 128.762 -0.494561 3.43154 0
M  V30 1413 C 127.823 0.415186 4.27288 0
M  V30 1414 C 127.056 -0.347387 5.32568 0
M  V30 1415 O 127.279 -1.57708 5.48165 0
M  V30 1416 O 126.213 0.287982 6.01211 0
M  V30 1417 H 130.039 1.13737 2.81598 0
M  V30 1418 H 127.624 0.619902 1.35932 0
M  V30 1419 H 129.506 -0.948944 4.10576 0
M  V30 1420 H 128.181 -1.30257 2.96336 0
M  V30 1421 H 127.088 0.917793 3.62667 0
M  V30 1422 H 128.421 1.18844 4.77637 0
M  V30 1423 N 130.073 -1.45103 0.615059 0
M  V30 1424 C 130.983 -2.34382 -0.101034 0
M  V30 1425 C 131.999 -1.51681 -0.852585 0
M  V30 1426 O 133.175 -1.8446 -0.808484 0
M  V30 1427 C 130.24 -3.29417 -1.08099 0
M  V30 1428 C 129.301 -4.28025 -0.330577 0
M  V30 1429 C 128.534 -5.1852 -1.26385 0
M  V30 1430 O 128.757 -5.12598 -2.50198 0
M  V30 1431 O 127.691 -5.97122 -0.756866 0
M  V30 1432 H 131.517 -2.97033 0.632855 0
M  V30 1433 H 129.102 -1.4461 0.375293 0
M  V30 1434 H 130.984 -3.87958 -1.6452 0
M  V30 1435 H 129.659 -2.69321 -1.79577 0
M  V30 1436 H 128.566 -3.73078 0.276283 0
M  V30 1437 H 129.899 -4.90997 0.343866 0
M  V30 1438 N 131.551 -0.354651 -1.53558 0
M  V30 1439 C 132.461 0.50515 -2.29097 0
M  V30 1440 C 133.477 1.10223 -1.34636 0
M  V30 1441 O 134.653 1.11553 -1.67684 0
M  V30 1442 C 131.718 1.63479 -3.05738 0
M  V30 1443 C 130.779 1.06636 -4.15845 0
M  V30 1444 C 130.012 2.14217 -4.88822 0
M  V30 1445 O 130.235 3.35137 -4.61562 0
M  V30 1446 O 129.169 1.77887 -5.75013 0
M  V30 1447 H 132.995 -0.109237 -3.03503 0
M  V30 1448 H 130.58 -0.119357 -1.48922 0
M  V30 1449 H 132.462 2.2918 -3.5363 0
M  V30 1450 H 131.137 2.23478 -2.34178 0
M  V30 1451 H 130.044 0.373565 -3.7223 0
M  V30 1452 H 131.377 0.511081 -4.89539 0
M  V30 1453 N 133.029 1.57378 -0.0835403 0
M  V30 1454 C 133.959 2.1641 0.87686 0
M  V30 1455 C 134.94 1.09429 1.30228 0
M  V30 1456 O 136.125 1.37516 1.37124 0
M  V30 1457 C 133.255 2.73517 2.14022 0
M  V30 1458 C 132.209 3.85769 1.85381 0
M  V30 1459 C 131.535 4.29529 3.18448 0
M  V30 1460 C 132.835 5.09486 1.14984 0
M  V30 1461 H 134.529 2.96914 0.385059 0
M  V30 1462 H 132.075 1.42823 0.18377 0
M  V30 1463 H 134.028 3.13463 2.81636 0
M  V30 1464 H 132.752 1.90252 2.65465 0
M  V30 1465 H 131.411 3.46345 1.20169 0
M  V30 1466 H 131.059 3.43169 3.67755 0
M  V30 1467 H 130.759 5.05204 3.00071 0
M  V30 1468 H 132.283 4.72099 3.8724 0
M  V30 1469 H 133.697 5.46674 1.72687 0
M  V30 1470 H 132.094 5.90515 1.06826 0
M  V30 1471 H 133.164 4.84724 0.130749 0
M  V30 1472 N 134.507 -0.190092 1.56449 0
M  V30 1473 C 135.784 -0.935886 1.71757 0
M  V30 1474 C 136.164 -2.01173 0.639726 0
M  V30 1475 O 135.512 -2.25827 -0.348502 0
M  V30 1476 C 135.722 -1.51775 3.1427 0
M  V30 1477 C 137.07 -1.99794 3.74656 0
M  V30 1478 O 138.094 -1.61607 3.1743 0
M  V30 1479 O 136.953 -2.70079 4.751 0
M  V30 1480 H 134.047 -0.439229 0.700719 0
M  V30 1481 H 136.593 -0.179395 1.68749 0
M  V30 1482 H 135.365 -0.742505 3.84191 0
M  V30 1483 H 134.988 -2.33894 3.21527 0
M  V30 1484 N 135.985 -1.50799 -0.457987 0
M  V30 1485 C 136.932 -1.70617 -1.5543 0
M  V30 1486 C 137.902 -0.547562 -1.56815 0
M  V30 1487 O 139.087 -0.779647 -1.74144 0
M  V30 1488 C 136.227 -1.81831 -2.93311 0
M  V30 1489 C 135.34 -3.09278 -3.01615 0
M  V30 1490 C 134.475 -3.11209 -4.30491 0
M  V30 1491 C 133.514 -4.33055 -4.32585 0
M  V30 1492 N 132.651 -4.32652 -5.52952 0
M  V30 1493 H 137.491 -2.64207 -1.37836 0
M  V30 1494 H 135.028 -1.30959 -0.669937 0
M  V30 1495 H 136.986 -1.86314 -3.73287 0
M  V30 1496 H 135.616 -0.916685 -3.0951 0
M  V30 1497 H 134.668 -3.14203 -2.1443 0
M  V30 1498 H 135.98 -3.99233 -2.99022 0
M  V30 1499 H 135.134 -3.14494 -5.18824 0
M  V30 1500 H 133.873 -2.19106 -4.35711 0
M  V30 1501 H 132.878 -4.29969 -3.42647 0
M  V30 1502 H 134.103 -5.264 -4.29046 0
M  V30 1503 H 132.049 -3.43409 -5.58933 0
M  V30 1504 H 131.966 -5.16392 -5.52155 0
M  V30 1505 H 133.234 -4.40101 -6.43375 0
M  V30 1506 N 137.463 0.71206 -1.40597 0
M  V30 1507 C 138.709 1.47292 -1.40274 0
M  V30 1508 C 139.064 1.92399 -0.00576812 0
M  V30 1509 O 138.357 1.65507 0.965297 0
M  V30 1510 C 138.551 2.71039 -2.32965 0
M  V30 1511 C 138.38 2.38035 -3.81536 0
M  V30 1512 C 137.15 2.29203 -4.50327 0
M  V30 1513 C 139.348 2.02076 -4.72938 0
M  V30 1514 N 137.33 1.88911 -5.84111 0
M  V30 1515 C 138.701 1.72412 -5.95545 0
M  V30 1516 C 140.756 1.88742 -4.60739 0
M  V30 1517 C 139.459 1.30756 -7.07316 0
M  V30 1518 C 141.485 1.4849 -5.72455 0
M  V30 1519 C 140.847 1.19726 -6.94151 0
M  V30 1520 H 136.946 0.536919 -0.568544 0
M  V30 1521 H 139.53 0.825424 -1.76337 0
M  V30 1522 H 137.701 3.33533 -1.99023 0
M  V30 1523 H 139.433 3.37404 -2.23474 0
M  V30 1524 H 136.188 2.47059 -4.04053 0
M  V30 1525 H 136.612 1.71293 -6.54972 0
M  V30 1526 H 141.254 2.0964 -3.67166 0
M  V30 1527 H 138.972 1.08601 -8.00769 0
M  V30 1528 H 142.558 1.38747 -5.65014 0
M  V30 1529 H 141.438 0.890482 -7.79128 0
M  V30 1530 N 138.941 1.26152 0.944643 0
M  V30 1531 C 139.904 1.07474 2.0244 0
M  V30 1532 C 140.904 0.0242064 1.60782 0
M  V30 1533 O 142.094 0.267302 1.72137 0
M  V30 1534 C 139.226 0.633956 3.34953 0
M  V30 1535 H 140.419 2.03336 2.20442 0
M  V30 1536 H 137.972 1.087 1.12312 0
M  V30 1537 H 138.707 -0.326811 3.22649 0
M  V30 1538 H 138.492 1.39247 3.66542 0
M  V30 1539 H 139.982 0.52501 4.14287 0
M  V30 1540 N 140.419 -1.14872 1.07899 0
M  V30 1541 C 141.366 -2.19791 0.704319 0
M  V30 1542 C 142.336 -1.63238 -0.306987 0
M  V30 1543 O 143.521 -1.8983 -0.192171 0
M  V30 1544 C 140.661 -3.44911 0.114244 0
M  V30 1545 C 139.774 -4.15637 1.1777 0
M  V30 1546 C 138.909 -5.28324 0.552037 0
M  V30 1547 C 137.948 -5.90875 1.59789 0
M  V30 1548 N 137.085 -6.95022 0.994404 0
M  V30 1549 H 141.925 -2.5119 1.60336 0
M  V30 1550 H 139.462 -1.23356 0.801352 0
M  V30 1551 H 141.42 -4.16477 -0.245544 0
M  V30 1552 H 140.05 -3.14011 -0.74813 0
M  V30 1553 H 139.102 -3.42512 1.65499 0
M  V30 1554 H 140.414 -4.5823 1.97046 0
M  V30 1555 H 139.568 -6.06538 0.1402 0
M  V30 1556 H 138.307 -4.86939 -0.272431 0
M  V30 1557 H 137.312 -5.11369 2.01945 0
M  V30 1558 H 138.537 -6.34337 2.42474 0
M  V30 1559 H 136.483 -6.55722 0.190939 0
M  V30 1560 H 136.4 -7.36073 1.72432 0
M  V30 1561 H 137.668 -7.77123 0.608253 0
M  V30 1562 N 141.898 -0.863906 -1.31812 0
M  V30 1563 C 143.147 -0.46801 -1.96195 0
M  V30 1564 C 143.46 0.983474 -1.69077 0
M  V30 1565 O 144.666 1.48523 -2.27273 0
M  V30 1566 C 143.122 -0.785995 -3.51212 0
M  V30 1567 C 142.73 -2.25383 -3.87178 0
M  V30 1568 C 144.474 -0.458274 -4.22019 0
M  V30 1569 C 142.381 -2.51455 -5.3528 0
M  V30 1570 H 141.311 -0.171283 -0.734287 0
M  V30 1571 H 143.962 -1.05597 -1.50072 0
M  V30 1572 H 142.344 -0.127359 -3.95795 0
M  V30 1573 H 143.518 -2.95502 -3.53575 0
M  V30 1574 H 141.833 -2.54698 -3.2942 0
M  V30 1575 H 144.43 -0.630369 -5.30971 0
M  V30 1576 H 144.773 0.600834 -4.11941 0
M  V30 1577 H 145.306 -1.07319 -3.8305 0
M  V30 1578 H 142.045 -3.56025 -5.50387 0
M  V30 1579 H 141.565 -1.85923 -5.70257 0
M  V30 1580 H 143.244 -2.35874 -6.02472 0
M  V30 1581 N 143.376 1.44774 -0.622745 0
M  V30 1582 C 144.339 2.29069 0.0774015 0
M  V30 1583 C 145.339 1.4059 0.780461 0
M  V30 1584 O 146.529 1.62551 0.626322 0
M  V30 1585 C 143.661 3.21974 1.12006 0
M  V30 1586 H 144.854 2.92459 -0.663901 0
M  V30 1587 H 142.407 1.51548 -0.382486 0
M  V30 1588 H 143.142 2.63417 1.89162 0
M  V30 1589 H 142.927 3.87168 0.619951 0
M  V30 1590 H 144.417 3.85318 1.60995 0
M  V30 1591 N 144.854 0.36279 1.53368 0
M  V30 1592 C 145.817 -0.472679 2.24273 0
M  V30 1593 C 146.817 -1.012 1.24961 0
M  V30 1594 O 148.007 -0.898194 1.49259 0
M  V30 1595 C 145.139 -1.66039 2.97731 0
M  V30 1596 H 146.332 0.14773 2.99536 0
M  V30 1597 H 143.885 0.114434 1.55881 0
M  V30 1598 H 144.62 -2.31896 2.26704 0
M  V30 1599 H 144.405 -1.28066 3.70596 0
M  V30 1600 H 145.895 -2.25252 3.51641 0
M  V30 1601 N 146.332 -1.57332 0.0918853 0
M  V30 1602 C 147.562 -1.98286 -0.580205 0
M  V30 1603 C 147.97 -0.969713 -1.6246 0
M  V30 1604 O 147.313 0.0493501 -1.83634 0
M  V30 1605 C 147.375 -3.35603 -1.28882 0
M  V30 1606 C 147.039 -4.55285 -0.395559 0
M  V30 1607 C 148.036 -5.18687 0.355002 0
M  V30 1608 C 145.721 -5.01314 -0.314556 0
M  V30 1609 C 147.715 -6.26484 1.17458 0
M  V30 1610 C 145.402 -6.08979 0.508677 0
M  V30 1611 C 146.4 -6.71429 1.2519 0
M  V30 1612 O 146.088 -7.77018 2.06151 0
M  V30 1613 H 145.82 -0.656678 -0.160466 0
M  V30 1614 H 148.374 -2.04721 0.16688 0
M  V30 1615 H 146.604 -3.25842 -2.08241 0
M  V30 1616 H 148.293 -3.61026 -1.85512 0
M  V30 1617 H 149.059 -4.84058 0.302134 0
M  V30 1618 H 144.938 -4.5247 -0.882697 0
M  V30 1619 H 148.482 -6.75159 1.75518 0
M  V30 1620 H 144.379 -6.4304 0.563037 0
M  V30 1621 H 145.147 -7.93991 1.98799 0
M  V30 1622 N 147.81 0.181792 -1.56548 0
M  V30 1623 C 149.058 0.89832 -1.81038 0
M  V30 1624 C 149.379 1.83232 -0.667164 0
M  V30 1625 O 148.649 1.93372 0.313673 0
M  V30 1626 H 147.229 0.33471 -0.667816 0
M  V30 1627 H 149.891 0.184116 -1.94028 0
M  V30 1628 H 148.987 1.4815 -2.74696 0
M  V30 1629 N 149.288 1.51039 0.449983 0
M  V30 1630 C 150.238 1.67824 1.54335 0
M  V30 1631 C 151.222 0.5324 1.51836 0
M  V30 1632 O 152.414 0.787762 1.58503 0
M  V30 1633 C 149.543 1.7951 2.92628 0
M  V30 1634 C 148.629 2.99838 2.9993 0
M  V30 1635 N 149.02 4.23207 2.77001 0
M  V30 1636 C 147.318 2.98832 3.31082 0
M  V30 1637 C 148.019 5.04361 2.89818 0
M  V30 1638 N 146.995 4.38746 3.2094 0
M  V30 1639 H 150.797 2.60884 1.35339 0
M  V30 1640 H 148.311 1.48513 0.657085 0
M  V30 1641 H 150.308 1.89642 3.7127 0
M  V30 1642 H 148.968 0.876227 3.12654 0
M  V30 1643 H 149.979 4.5236 2.52172 0
M  V30 1644 H 146.656 2.16527 3.56963 0
M  V30 1645 H 148.046 6.12528 2.76151 0
M  V30 1646 N 150.766 -0.704594 1.40972 0
M  V30 1647 C 151.676 -1.84856 1.44448 0
M  V30 1648 C 152.692 -1.70726 0.335961 0
M  V30 1649 O 153.868 -1.92799 0.582276 0
M  V30 1650 C 150.933 -3.20758 1.31587 0
M  V30 1651 C 149.994 -3.47063 2.52677 0
M  V30 1652 C 149.227 -4.76481 2.4042 0
M  V30 1653 O 149.45 -5.52341 1.42391 0
M  V30 1654 O 148.384 -5.03367 3.30007 0
M  V30 1655 H 152.21 -1.8488 2.40942 0
M  V30 1656 H 149.795 -0.85647 1.22413 0
M  V30 1657 H 151.677 -4.01913 1.26665 0
M  V30 1658 H 150.352 -3.21438 0.382049 0
M  V30 1659 H 149.259 -2.65873 2.63177 0
M  V30 1660 H 150.592 -3.5119 3.44858 0
M  V30 1661 N 152.244 -1.26651 -0.937939 0
M  V30 1662 C 153.49 -1.12553 -1.687 0
M  V30 1663 C 153.823 0.329782 -1.91379 0
M  V30 1664 O 153.098 1.24202 -1.4968 0
M  V30 1665 C 153.381 -1.89862 -3.05981 0
M  V30 1666 C 153.234 -3.43318 -2.90607 0
M  V30 1667 C 154.553 -1.69499 -4.0615 0
M  V30 1668 H 151.672 -0.410257 -0.612257 0
M  V30 1669 H 154.314 -1.55685 -1.08913 0
M  V30 1670 H 152.464 -1.53204 -3.57017 0
M  V30 1671 H 154.136 -3.89747 -2.46769 0
M  V30 1672 H 152.379 -3.70179 -2.26164 0
M  V30 1673 H 153.05 -3.92642 -3.8799 0
M  V30 1674 H 155.526 -2.01442 -3.64088 0
M  V30 1675 H 154.402 -2.26002 -5.00214 0
M  V30 1676 H 154.663 -0.640365 -4.37438 0
M  V30 1677 N 153.722 1.14298 -1.08507 0
M  V30 1678 C 154.97 1.84993 -0.813763 0
M  V30 1679 C 155.291 1.83405 0.662393 0
M  V30 1680 O 154.561 1.28319 1.48024 0
M  V30 1681 H 153.141 0.684966 -0.298045 0
M  V30 1682 H 155.803 1.385 -1.37126 0
M  V30 1683 H 154.899 2.89788 -1.15884 0
M  V30 1684 N 155.201 0.870884 1.31352 0
M  V30 1685 C 156.148 0.325425 2.28494 0
M  V30 1686 C 157.118 -0.576615 1.5577 0
M  V30 1687 O 158.303 -0.508059 1.83911 0
M  V30 1688 C 155.443 -0.466283 3.41935 0
M  V30 1689 C 154.556 0.463378 4.29508 0
M  V30 1690 C 153.691 -0.342544 5.30094 0
M  V30 1691 C 152.73 0.583486 6.09313 0
M  V30 1692 N 151.867 -0.186244 7.01853 0
M  V30 1693 H 156.707 1.15901 2.74538 0
M  V30 1694 H 154.244 0.58294 1.35056 0
M  V30 1695 H 156.202 -0.941085 4.06447 0
M  V30 1696 H 154.832 -1.26456 2.97 0
M  V30 1697 H 153.884 1.05663 3.65431 0
M  V30 1698 H 155.196 1.1734 4.84802 0
M  V30 1699 H 154.35 -0.879816 6.00287 0
M  V30 1700 H 153.089 -1.08585 4.75458 0
M  V30 1701 H 152.094 1.13251 5.3801 0
M  V30 1702 H 153.319 1.32566 6.66035 0
M  V30 1703 H 151.265 -0.912348 6.49625 0
M  V30 1704 H 151.182 0.464422 7.54572 0
M  V30 1705 H 152.45 -0.704716 7.76308 0
M  V30 1706 N 156.679 -1.44442 0.630414 0
M  V30 1707 C 158.095 -1.56832 0.295973 0
M  V30 1708 C 158.295 -1.61806 -1.20088 0
M  V30 1709 O 157.351 -1.5607 -1.9849 0
M  V30 1710 C 158.664 -2.84031 0.987264 0
M  V30 1711 C 160.212 -2.97742 0.96534 0
M  V30 1712 C 160.687 -4.27743 1.63708 0
M  V30 1713 N 162.178 -4.34555 1.60364 0
M  V30 1714 C 162.913 -5.33862 2.09234 0
M  V30 1715 N 162.409 -6.39578 2.66292 0
M  V30 1716 N 164.202 -5.25366 1.99867 0
M  V30 1717 H 156.353 -1.39457 1.60205 0
M  V30 1718 H 158.616 -0.668237 0.672431 0
M  V30 1719 H 158.322 -2.86338 2.04215 0
M  V30 1720 H 158.196 -3.73534 0.524588 0
M  V30 1721 H 160.583 -2.94989 -0.0810639 0
M  V30 1722 H 160.664 -2.09589 1.4665 0
M  V30 1723 H 160.308 -4.31255 2.68293 0
M  V30 1724 H 160.238 -5.14752 1.11076 0
M  V30 1725 H 162.729 -3.58772 1.18705 0
M  V30 1726 H 163.042 -7.11637 3.01317 0
M  V30 1727 H 161.387 -6.40265 2.70343 0
M  V30 1728 H 164.578 -4.41688 1.55013 0
M  V30 1729 H 164.751 -6.02606 2.38265 0
M  V30 1730 N 158.157 -0.370918 -1.53173 0
M  V30 1731 C 159.568 0.107139 -1.86392 0
M  V30 1732 C 159.919 1.47714 -1.29132 0
M  V30 1733 O 159.044 2.07464 -0.615439 0
M  V30 1734 C 159.639 0.201187 -3.38202 0
M  V30 1735 C 158.198 0.623507 -3.712 0
M  V30 1736 C 157.345 -0.225978 -2.76378 0
M  V30 1737 H 160.296 -0.58951 -1.47345 0
M  V30 1738 H 160.317 1.02377 -3.66468 0
M  V30 1739 H 159.829 -0.796058 -3.79848 0
M  V30 1740 H 157.93 1.62879 -3.35114 0
M  V30 1741 H 158.043 0.394414 -4.77474 0
M  V30 1742 H 156.407 0.305962 -2.52856 0
M  V30 1743 H 157.19 -1.22086 -3.20858 0
M  V30 1744 N 159.635 1.57281 -0.100228 0
M  V30 1745 C 160.881 1.95626 0.556946 0
M  V30 1746 C 161.236 0.981655 1.65473 0
M  V30 1747 O 160.529 0.00849847 1.91598 0
M  V30 1748 C 160.723 3.38305 1.15259 0
M  V30 1749 C 160.552 4.49555 0.114035 0
M  V30 1750 C 159.322 5.0434 -0.311266 0
M  V30 1751 C 161.52 5.10051 -0.659768 0
M  V30 1752 N 159.502 5.99152 -1.33755 0
M  V30 1753 C 160.873 6.00628 -1.53774 0
M  V30 1754 C 162.928 4.92772 -0.712723 0
M  V30 1755 C 161.631 6.7578 -2.46403 0
M  V30 1756 C 163.657 5.6859 -1.62663 0
M  V30 1757 C 163.019 6.58838 -2.49222 0
M  V30 1758 H 159.118 0.7624 0.173982 0
M  V30 1759 H 161.702 1.93829 -0.183988 0
M  V30 1760 H 159.873 3.40786 1.86332 0
M  V30 1761 H 161.605 3.63817 1.77254 0
M  V30 1762 H 158.36 4.73537 0.0774812 0
M  V30 1763 H 158.784 6.5126 -1.84905 0
M  V30 1764 H 163.426 4.22761 -0.0576648 0
M  V30 1765 H 161.144 7.4505 -3.12931 0
M  V30 1766 H 164.73 5.57233 -1.67281 0
M  V30 1767 H 163.61 7.16479 -3.18791 0
M  V30 1768 N 161.113 -0.173488 1.56642 0
M  V30 1769 C 162.362 -0.888758 1.81063 0
M  V30 1770 C 162.675 -1.83506 0.67712 0
M  V30 1771 O 163.881 -2.59254 0.806206 0
M  V30 1772 C 162.337 -1.63091 3.20826 0
M  V30 1773 C 161.945 -0.728357 4.4204 0
M  V30 1774 C 163.689 -2.33454 3.54541 0
M  V30 1775 C 161.596 -1.47062 5.72823 0
M  V30 1776 H 160.526 -0.335618 0.675186 0
M  V30 1777 H 163.177 -0.141712 1.82952 0
M  V30 1778 H 161.559 -2.42263 3.13248 0
M  V30 1779 H 162.733 0.0262449 4.60793 0
M  V30 1780 H 161.048 -0.134492 4.16183 0
M  V30 1781 H 163.645 -2.89578 4.49498 0
M  V30 1782 H 163.988 -3.08687 2.79317 0
M  V30 1783 H 164.521 -1.61227 3.63663 0
M  V30 1784 H 161.26 -0.760658 6.51072 0
M  V30 1785 H 160.78 -2.1986 5.58052 0
M  V30 1786 H 162.459 -2.01868 6.14702 0
M  V30 1787 N 162.591 -1.51276 -0.441967 0
M  V30 1788 C 163.819 -1.67516 -1.21434 0
M  V30 1789 C 164.234 -0.37055 -1.85128 0
M  V30 1790 O 163.591 0.650498 -1.70513 0
M  V30 1791 C 163.642 -2.78748 -2.30177 0
M  V30 1792 O 163.363 -4.04154 -1.69089 0
M  V30 1793 C 164.864 -3.06217 -3.20541 0
M  V30 1794 H 162.084 -0.562276 -0.366178 0
M  V30 1795 H 164.628 -1.97666 -0.524244 0
M  V30 1796 H 162.783 -2.5121 -2.94911 0
M  V30 1797 H 163.197 -4.65894 -2.40922 0
M  V30 1798 H 164.671 -3.8764 -3.92987 0
M  V30 1799 H 165.148 -2.18439 -3.81026 0
M  V30 1800 H 165.754 -3.35397 -2.61513 0
M  V30 1801 N 164.069 0.697108 -1.41344 0
M  V30 1802 C 165.317 1.45426 -1.40341 0
M  V30 1803 C 165.638 1.94996 -0.0128787 0
M  V30 1804 O 164.908 1.71599 0.945027 0
M  V30 1805 H 163.488 0.539594 -0.516573 0
M  V30 1806 H 166.15 0.825201 -1.76569 0
M  V30 1807 H 165.246 2.31817 -2.08967 0
M  V30 1808 N 165.547 1.27147 0.931209 0
M  V30 1809 C 166.824 1.0401 1.65654 0
M  V30 1810 C 167.204 -0.426297 2.06751 0
M  V30 1811 O 166.552 -1.40879 1.79904 0
M  V30 1812 C 166.762 1.99834 2.86125 0
M  V30 1813 C 168.11 2.29007 3.57549 0
M  V30 1814 O 169.134 1.97779 2.96246 0
M  V30 1815 O 167.993 2.82222 4.67989 0
M  V30 1816 H 165.087 0.396239 0.725895 0
M  V30 1817 H 167.633 1.38397 0.982056 0
M  V30 1818 H 166.405 2.98744 2.52721 0
M  V30 1819 H 166.028 1.65987 3.61295 0
M  V30 1820 N 167.025 -1.13721 1.09112 0
M  V30 1821 C 167.935 -2.22638 0.73957 0
M  V30 1822 C 168.951 -1.72091 -0.257068 0
M  V30 1823 O 170.127 -2.01155 -0.0992154 0
M  V30 1824 C 167.192 -3.46322 0.16191 0
M  V30 1825 C 166.253 -4.11775 1.21408 0
M  V30 1826 C 165.486 -5.29555 0.663891 0
M  V30 1827 O 165.709 -5.68077 -0.514274 0
M  V30 1828 O 164.643 -5.84973 1.41738 0
M  V30 1829 H 168.469 -2.55074 1.64836 0
M  V30 1830 H 166.054 -1.21791 0.865289 0
M  V30 1831 H 167.936 -4.21107 -0.157073 0
M  V30 1832 H 166.611 -3.15593 -0.719932 0
M  V30 1833 H 165.518 -3.3883 1.58571 0
M  V30 1834 H 166.851 -4.46627 2.06845 0
M  V30 1835 N 168.503 -0.877838 -1.30888 0
M  V30 1836 C 169.728 -0.506629 -2.01117 0
M  V30 1837 C 170.153 0.895564 -1.65412 0
M  V30 1838 O 169.511 1.5923 -0.866922 0
M  V30 1839 C 169.559 -0.680223 -3.54126 0
M  V30 1840 O 168.663 0.277033 -4.11468 0
M  V30 1841 H 168.004 -0.200518 -0.633 0
M  V30 1842 H 170.534 -1.18342 -1.66902 0
M  V30 1843 H 170.544 -0.5765 -4.03907 0
M  V30 1844 H 169.219 -1.70261 -3.79452 0
M  V30 1845 H 167.796 0.127606 -3.72682 0
M  V30 1846 N 169.982 1.44106 -0.638065 0
M  V30 1847 C 171.231 2.01194 -0.142744 0
M  V30 1848 C 171.544 1.50835 1.24532 0
M  V30 1849 O 172.75 2.00096 1.83504 0
M  V30 1850 C 171.206 3.59319 -0.20442 0
M  V30 1851 C 170.814 4.18674 -1.59423 0
M  V30 1852 C 172.558 4.23854 0.234079 0
M  V30 1853 C 170.465 5.69045 -1.61065 0
M  V30 1854 H 169.395 0.752367 -0.0495998 0
M  V30 1855 H 172.046 1.65246 -0.797881 0
M  V30 1856 H 170.428 3.92598 0.517946 0
M  V30 1857 H 171.602 3.96921 -2.34074 0
M  V30 1858 H 169.917 3.66453 -1.97741 0
M  V30 1859 H 172.514 5.34155 0.241443 0
M  V30 1860 H 172.857 3.96688 1.2627 0
M  V30 1861 H 173.39 3.95403 -0.436025 0
M  V30 1862 H 170.129 6.00956 -2.61787 0
M  V30 1863 H 169.649 5.929 -0.90718 0
M  V30 1864 H 171.328 6.32809 -1.34766 0
M  V30 1865 N 171.46 0.379036 1.52974 0
M  V30 1866 C 172.706 -0.206727 2.01744 0
M  V30 1867 C 173.039 -1.47314 1.26539 0
M  V30 1868 O 172.314 -1.91084 0.362903 0
M  V30 1869 C 172.597 -0.485066 3.56818 0
M  V30 1870 C 172.45 0.795919 4.42702 0
M  V30 1871 C 173.769 -1.28003 4.21074 0
M  V30 1872 H 170.888 -0.0736607 0.73331 0
M  V30 1873 H 173.53 0.506581 1.83122 0
M  V30 1874 H 171.68 -1.09272 3.72816 0
M  V30 1875 H 173.352 1.43307 4.38476 0
M  V30 1876 H 171.595 1.41344 4.10127 0
M  V30 1877 H 172.266 0.555947 5.49193 0
M  V30 1878 H 174.742 -0.765867 4.08991 0
M  V30 1879 H 173.618 -1.44352 5.29579 0
M  V30 1880 H 173.879 -2.29236 3.78026 0
M  V30 1881 N 172.938 -1.57226 0.108567 0
M  V30 1882 C 174.186 -1.94448 -0.550853 0
M  V30 1883 C 174.507 -0.992074 -1.67878 0
M  V30 1884 O 173.777 -0.0465 -1.95845 0
M  V30 1885 H 172.357 -0.717897 -0.206479 0
M  V30 1886 H 175.019 -1.94112 0.175062 0
M  V30 1887 H 174.115 -2.97218 -0.952259 0
M  V30 1888 N 174.416 0.165178 -1.56732 0
M  V30 1889 C 175.346 1.20651 -1.99914 0
M  V30 1890 C 176.327 1.45827 -0.875705 0
M  V30 1891 O 177.512 1.57057 -1.14223 0
M  V30 1892 C 174.642 2.54401 -2.36427 0
M  V30 1893 C 173.596 2.43782 -3.51787 0
M  V30 1894 C 172.922 3.82078 -3.7406 0
M  V30 1895 C 174.222 1.93732 -4.85041 0
M  V30 1896 H 175.916 0.847534 -2.87154 0
M  V30 1897 H 173.462 0.40625 -1.38151 0
M  V30 1898 H 175.415 3.27458 -2.65234 0
M  V30 1899 H 174.139 2.92098 -1.46103 0
M  V30 1900 H 172.798 1.73178 -3.23117 0
M  V30 1901 H 172.446 4.17179 -2.81017 0
M  V30 1902 H 172.146 3.7584 -4.51684 0
M  V30 1903 H 173.67 4.56712 -4.05274 0
M  V30 1904 H 175.084 2.56569 -5.12684 0
M  V30 1905 H 173.481 1.98428 -5.66345 0
M  V30 1906 H 174.551 0.891962 -4.76626 0
M  V30 1907 N 175.894 1.51508 0.433938 0
M  V30 1908 C 176.827 1.67756 1.54704 0
M  V30 1909 C 177.805 0.525127 1.53887 0
M  V30 1910 O 178.989 0.749393 1.72963 0
M  V30 1911 C 176.116 1.69424 2.9328 0
M  V30 1912 C 175.162 2.90673 3.12108 0
M  V30 1913 S 175.995 4.51431 2.88046 0
M  V30 1914 C 177.151 4.55849 4.28897 0
M  V30 1915 H 177.384 2.61904 1.40689 0
M  V30 1916 H 174.917 1.41235 0.62386 0
M  V30 1917 H 176.875 1.7107 3.73156 0
M  V30 1918 H 175.536 0.764464 3.04655 0
M  V30 1919 H 174.729 2.88251 4.13434 0
M  V30 1920 H 174.331 2.86786 2.40062 0
M  V30 1921 H 176.623 4.31699 5.22152 0
M  V30 1922 H 177.566 5.57676 4.36351 0
M  V30 1923 H 177.974 3.85137 4.12711 0
M  V30 1924 N 177.372 -0.689602 1.41712 0
M  V30 1925 C 178.319 -1.80345 1.44029 0
M  V30 1926 C 179.289 -1.63478 0.293948 0
M  V30 1927 O 180.474 -1.84244 0.495869 0
M  V30 1928 C 177.614 -3.18272 1.33405 0
M  V30 1929 C 176.727 -3.46529 2.57956 0
M  V30 1930 C 175.862 -4.74103 2.39582 0
M  V30 1931 C 174.901 -4.95347 3.5958 0
M  V30 1932 N 174.038 -6.14151 3.40239 0
M  V30 1933 H 178.878 -1.77698 2.39222 0
M  V30 1934 H 176.415 -0.867688 1.18784 0
M  V30 1935 H 178.373 -3.97956 1.25246 0
M  V30 1936 H 177.003 -3.2008 0.418164 0
M  V30 1937 H 176.055 -2.61207 2.76542 0
M  V30 1938 H 177.367 -3.58126 3.47199 0
M  V30 1939 H 176.521 -5.61853 2.28924 0
M  V30 1940 H 175.26 -4.64763 1.47805 0
M  V30 1941 H 174.265 -4.06044 3.70686 0
M  V30 1942 H 175.49 -5.06542 4.52318 0
M  V30 1943 H 173.436 -6.06013 2.51167 0
M  V30 1944 H 173.353 -6.26543 4.23061 0
M  V30 1945 H 174.621 -7.04619 3.33365 0
M  V30 1946 N 178.85 -1.27639 -0.924453 0
M  V30 1947 C 180.127 -1.04887 -1.651 0
M  V30 1948 C 180.507 0.415327 -2.06974 0
M  V30 1949 O 179.855 1.39923 -1.80648 0
M  V30 1950 C 180.065 -2.01348 -2.85061 0
M  V30 1951 C 181.413 -2.30899 -3.56329 0
M  V30 1952 O 182.437 -1.99348 -2.95193 0
M  V30 1953 O 181.296 -2.84699 -4.66485 0
M  V30 1954 H 178.39 -0.400083 -0.723784 0
M  V30 1955 H 180.936 -1.38916 -0.974703 0
M  V30 1956 H 179.708 -3.0008 -2.51133 0
M  V30 1957 H 179.331 -1.679 -3.6041 0
M  V30 1958 N 180.328 1.1314 -1.09713 0
M  V30 1959 C 181.577 1.83838 -0.829851 0
M  V30 1960 C 181.89 1.84599 0.646728 0
M  V30 1961 O 183.096 2.51218 1.02965 0
M  V30 1962 C 181.552 3.30069 -1.43466 0
M  V30 1963 C 181.16 3.37688 -2.94399 0
M  V30 1964 C 182.904 4.05788 -1.24645 0
M  V30 1965 C 180.811 4.78209 -3.47952 0
M  V30 1966 H 179.741 0.68877 -0.306777 0
M  V30 1967 H 182.392 1.27448 -1.3202 0
M  V30 1968 H 180.774 3.8628 -0.871996 0
M  V30 1969 H 181.948 2.91456 -3.56918 0
M  V30 1970 H 180.263 2.75436 -3.12289 0
M  V30 1971 H 182.86 5.09535 -1.62107 0
M  V30 1972 H 183.203 4.15878 -0.187357 0
M  V30 1973 H 183.736 3.55915 -1.77678 0
M  V30 1974 H 180.475 4.73311 -4.53495 0
M  V30 1975 H 179.995 5.24924 -2.90198 0
M  V30 1976 H 181.674 5.47133 -3.45332 0
M  V30 1977 N 181.806 0.884767 1.30421 0
M  V30 1978 C 183.052 0.503851 1.96441 0
M  V30 1979 C 183.385 -0.944518 1.69684 0
M  V30 1980 O 182.66 -1.66737 1.00145 0
M  V30 1981 C 182.943 0.779085 3.51571 0
M  V30 1982 C 182.796 2.27807 3.87846 0
M  V30 1983 C 184.115 0.255452 4.39358 0
M  V30 1984 H 181.234 0.184533 0.713524 0
M  V30 1985 H 183.876 1.10872 1.54297 0
M  V30 1986 H 182.026 0.264274 3.876 0
M  V30 1987 H 183.698 2.86127 3.61841 0
M  V30 1988 H 181.941 2.74479 3.35922 0
M  V30 1989 H 182.612 2.42125 4.96064 0
M  V30 1990 H 185.088 0.696079 4.10236 0
M  V30 1991 H 183.964 0.477361 5.4682 0
M  V30 1992 H 184.225 -0.843293 4.33983 0
M  V30 1993 N 183.284 -1.43765 0.645699 0
M  V30 1994 C 184.532 -2.01499 0.155731 0
M  V30 1995 C 184.853 -1.51151 -1.232 0
M  V30 1996 O 184.123 -0.721044 -1.82148 0
M  V30 1997 H 182.703 -0.745003 0.0545817 0
M  V30 1998 H 185.365 -1.76075 0.835677 0
M  V30 1999 H 184.461 -3.1181 0.134577 0
M  V30 2000 N 184.763 -0.387143 -1.52771 0
M  V30 2001 C 185.726 0.436939 -2.24997 0
M  V30 2002 C 186.726 0.991991 -1.26555 0
M  V30 2003 O 187.916 0.874335 -1.50669 0
M  V30 2004 C 185.048 1.61281 -3.00335 0
M  V30 2005 H 186.241 -0.195365 -2.99263 0
M  V30 2006 H 183.794 -0.139218 -1.55679 0
M  V30 2007 H 184.529 2.2826 -2.30364 0
M  V30 2008 H 184.314 1.22154 -3.72587 0
M  V30 2009 H 185.804 2.19629 -3.5518 0
M  V30 2010 N 186.241 1.57166 -0.116904 0
M  V30 2011 C 187.189 2.16457 0.851418 0
M  V30 2012 C 188.183 1.11323 1.27686 0
M  V30 2013 O 189.389 1.2963 1.24884 0
M  V30 2014 H 185.764 0.69271 0.292672 0
M  V30 2015 H 187.735 2.96605 0.32685 0
M  V30 2016 C 186.484 2.77689 2.09246 0
M  V30 2017 H 185.807 3.58285 1.77402 0
M  V30 2018 H 187.247 3.22716 2.7501 0
M  V30 2019 C 185.706 1.74667 2.88085 0
M  V30 2020 O 186.236 1.19877 3.83396 0
M  V30 2021 N 184.442 1.44656 2.52038 0
M  V30 2022 H 183.989 1.89402 1.74599 0
M  V30 2023 H 183.947 0.759675 3.05084 0
M  V30 2024 N 187.719 -0.156864 1.56817 0
M  V30 2025 C 188.629 -1.2136 2.00771 0
M  V30 2026 C 189.645 -1.47598 0.921459 0
M  V30 2027 O 190.821 -1.59462 1.2302 0
M  V30 2028 C 187.886 -2.52943 2.37109 0
M  V30 2029 C 186.947 -2.34439 3.59634 0
M  V30 2030 C 186.18 -3.59748 3.94229 0
M  V30 2031 O 186.403 -4.65526 3.29609 0
M  V30 2032 O 185.337 -3.52998 4.8752 0
M  V30 2033 H 189.163 -0.870468 2.90958 0
M  V30 2034 H 186.748 -0.36484 1.44877 0
M  V30 2035 H 188.63 -3.30538 2.61386 0
M  V30 2036 H 187.305 -2.86806 1.5008 0
M  V30 2037 H 186.212 -1.54828 3.40557 0
M  V30 2038 H 187.545 -2.05496 4.4725 0
M  V30 2039 N 189.197 -1.51736 -0.425897 0
M  V30 2040 C 190.144 -1.73875 -1.51776 0
M  V30 2041 C 191.114 -0.580702 -1.55618 0
M  V30 2042 O 192.299 -0.81641 -1.72451 0
M  V30 2043 C 189.439 -1.88012 -2.89388 0
M  V30 2044 C 188.552 -3.15606 -2.94986 0
M  V30 2045 C 187.687 -3.20271 -4.23793 0
M  V30 2046 C 186.726 -4.42134 -4.23302 0
M  V30 2047 N 185.863 -4.44284 -5.43651 0
M  V30 2048 H 190.703 -2.67071 -1.32201 0
M  V30 2049 H 188.24 -1.32351 -0.642008 0
M  V30 2050 H 190.198 -1.9419 -3.69251 0
M  V30 2051 H 188.828 -0.98213 -3.07496 0
M  V30 2052 H 187.88 -3.18681 -2.07717 0
M  V30 2053 H 189.192 -4.05486 -2.90486 0
M  V30 2054 H 188.346 -3.25428 -5.12036 0
M  V30 2055 H 187.085 -2.28299 -4.30965 0
M  V30 2056 H 186.09 -4.3714 -3.3345 0
M  V30 2057 H 187.315 -5.35382 -4.17783 0
M  V30 2058 H 185.261 -3.55188 -5.51523 0
M  V30 2059 H 185.178 -5.27988 -5.41078 0
M  V30 2060 H 186.446 -4.53649 -6.33895 0
M  V30 2061 N 190.675 0.682077 -1.42076 0
M  V30 2062 C 191.585 1.82535 -1.47371 0
M  V30 2063 C 192.601 1.7017 -0.363079 0
M  V30 2064 O 193.777 1.91848 -0.612875 0
M  V30 2065 C 190.842 3.18624 -1.36674 0
M  V30 2066 C 189.903 3.42999 -2.58167 0
M  V30 2067 C 189.136 4.72595 -2.4797 0
M  V30 2068 O 189.359 5.50006 -1.5116 0
M  V30 2069 O 188.293 4.98054 -3.37974 0
M  V30 2070 H 192.119 1.81023 -2.43853 0
M  V30 2071 H 189.704 0.836887 -1.2376 0
M  V30 2072 H 191.586 3.99847 -1.33043 0
M  V30 2073 H 190.261 3.20789 -0.433138 0
M  V30 2074 H 189.168 2.61653 -2.67373 0
M  V30 2075 H 190.501 3.45659 -3.50401 0
M  V30 2076 N 192.153 1.28127 0.917671 0
M  V30 2077 C 193.402 1.14432 1.66097 0
M  V30 2078 C 193.715 -0.307247 1.93172 0
M  V30 2079 O 194.921 -0.565259 2.65551 0
M  V30 2080 C 193.377 2.00015 2.99202 0
M  V30 2081 C 192.985 3.49889 2.79789 0
M  V30 2082 C 194.729 1.94996 3.77064 0
M  V30 2083 C 192.636 4.27636 4.08511 0
M  V30 2084 H 191.566 0.424662 0.62304 0
M  V30 2085 H 194.217 1.52628 1.01868 0
M  V30 2086 H 192.599 1.54672 3.64544 0
M  V30 2087 H 193.773 4.03162 2.23152 0
M  V30 2088 H 192.088 3.56392 2.15345 0
M  V30 2089 H 194.685 2.50354 4.72469 0
M  V30 2090 H 195.028 0.925819 4.05875 0
M  V30 2091 H 195.561 2.38287 3.18534 0
M  V30 2092 H 192.3 5.30615 3.84874 0
M  V30 2093 H 191.82 3.79137 4.64774 0
M  V30 2094 H 193.499 4.37346 4.76799 0
M  V30 2095 N 193.631 -1.12557 1.10312 0
M  V30 2096 C 194.594 -2.16434 0.75424 0
M  V30 2097 C 195.594 -1.59278 -0.220685 0
M  V30 2098 O 196.784 -1.742 0.00230591 0
M  V30 2099 C 193.916 -3.40699 0.116987 0
M  V30 2100 H 195.109 -2.48811 1.67431 0
M  V30 2101 H 192.662 -1.27542 0.903475 0
M  V30 2102 H 193.397 -3.13921 -0.813877 0
M  V30 2103 H 193.182 -3.83459 0.818613 0
M  V30 2104 H 194.672 -4.17451 -0.111387 0
M  V30 2105 N 195.109 -0.891671 -1.2995 0
M  V30 2106 C 196.039 -0.379797 -2.30391 0
M  V30 2107 C 197.02 0.540919 -1.6127 0
M  V30 2108 O 198.205 0.453352 -1.88834 0
M  V30 2109 C 195.335 0.400654 -3.44981 0
M  V30 2110 C 194.289 -0.428905 -4.25846 0
M  V30 2111 C 193.615 0.478557 -5.32554 0
M  V30 2112 C 194.915 -1.67458 -4.94727 0
M  V30 2113 H 196.609 -1.21914 -2.73454 0
M  V30 2114 H 194.155 -0.587675 -1.31462 0
M  V30 2115 H 196.108 0.769434 -4.14316 0
M  V30 2116 H 194.832 1.27371 -3.0074 0
M  V30 2117 H 193.491 -0.779911 -3.58208 0
M  V30 2118 H 193.139 1.34951 -4.84559 0
M  V30 2119 H 192.839 -0.0727433 -5.87555 0
M  V30 2120 H 194.363 0.843705 -6.04743 0
M  V30 2121 H 195.777 -1.376 -5.56542 0
M  V30 2122 H 194.174 -2.16659 -5.59624 0
M  V30 2123 H 195.244 -2.41518 -4.20473 0
M  V30 2124 N 196.587 1.43421 -0.653314 0
M  V30 2125 C 197.52 2.2803 0.0879804 0
M  V30 2126 C 198.498 1.39833 0.82979 0
M  V30 2127 O 199.682 1.69275 0.829341 0
M  V30 2128 C 196.809 3.19247 1.13132 0
M  V30 2129 C 195.855 4.23704 0.487546 0
M  V30 2130 S 196.688 5.30377 -0.738961 0
M  V30 2131 C 197.844 6.25162 0.30384 0
M  V30 2132 H 198.077 2.90554 -0.629739 0
M  V30 2133 H 195.61 1.47934 -0.442156 0
M  V30 2134 H 197.568 3.72346 1.72827 0
M  V30 2135 H 196.229 2.55901 1.82136 0
M  V30 2136 H 195.422 4.87631 1.27407 0
M  V30 2137 H 195.024 3.73983 -0.0352915 0
M  V30 2138 H 197.316 6.67321 1.17 0
M  V30 2139 H 198.259 7.07463 -0.300402 0
M  V30 2140 H 198.667 5.60864 0.63969 0
M  V30 2141 N 198.065 0.39524 1.52563 0
M  V30 2142 C 199.013 -0.451859 2.28169 0
M  V30 2143 C 200.007 -1.05792 1.32304 0
M  V30 2144 O 201.213 -0.997718 1.49818 0
M  V30 2145 H 197.588 -0.164481 0.733792 0
M  V30 2146 H 199.559 0.207199 2.9768 0
M  V30 2147 C 198.308 -1.56385 3.10546 0
M  V30 2148 H 197.631 -1.10682 3.84174 0
M  V30 2149 H 199.071 -2.13067 3.66577 0
M  V30 2150 C 197.53 -2.52328 2.23231 0
M  V30 2151 O 198.06 -3.5588 1.86312 0
M  V30 2152 N 196.266 -2.22209 1.87274 0
M  V30 2153 H 195.813 -1.38033 2.17496 0
M  V30 2154 H 195.771 -2.86652 1.29143 0
M  V30 2155 N 199.544 -1.57102 0.125237 0
M  V30 2156 C 200.507 -2.14471 -0.80838 0
M  V30 2157 C 201.507 -1.0811 -1.19033 0
M  V30 2158 O 202.697 -1.33856 -1.11482 0
M  V30 2159 C 199.829 -2.69005 -2.09402 0
M  V30 2160 H 201.022 -2.98297 -0.309696 0
M  V30 2161 H 198.575 -1.55807 -0.124051 0
M  V30 2162 H 199.31 -1.88785 -2.63687 0
M  V30 2163 H 199.095 -3.46799 -1.82957 0
M  V30 2164 H 200.585 -3.13278 -2.76128 0
M  V30 2165 N 201.022 0.148545 -1.56898 0
M  V30 2166 C 201.952 1.18524 -2.01182 0
M  V30 2167 C 202.933 1.4489 -0.891123 0
M  V30 2168 O 204.118 1.55836 -1.15882 0
M  V30 2169 C 201.248 2.51879 -2.39112 0
M  V30 2170 C 200.202 2.40038 -3.54353 0
M  V30 2171 C 199.528 3.78089 -3.78091 0
M  V30 2172 C 200.828 1.88577 -4.87069 0
M  V30 2173 H 202.522 0.817029 -2.88036 0
M  V30 2174 H 200.068 0.391575 -1.38574 0
M  V30 2175 H 202.021 3.24627 -2.68692 0
M  V30 2176 H 200.745 2.90532 -1.49193 0
M  V30 2177 H 199.404 1.69742 -3.24936 0
M  V30 2178 H 199.052 4.14175 -2.85426 0
M  V30 2179 H 198.752 3.71028 -4.55645 0
M  V30 2180 H 200.276 4.52387 -4.10095 0
M  V30 2181 H 201.69 2.51117 -5.15377 0
M  V30 2182 H 200.087 1.9241 -5.68417 0
M  V30 2183 H 201.157 0.84136 -4.77545 0
M  V30 2184 N 202.5 1.5196 0.417844 0
M  V30 2185 C 203.728 1.69426 1.18753 0
M  V30 2186 C 204.143 0.399955 1.84515 0
M  V30 2187 O 203.5 -0.623288 1.71527 0
M  V30 2188 C 203.551 2.82375 2.25714 0
M  V30 2189 O 203.272 4.06793 1.62638 0
M  V30 2190 C 204.773 3.11277 3.15628 0
M  V30 2191 H 201.993 0.568031 0.357186 0
M  V30 2192 H 204.537 1.98475 0.49273 0
M  V30 2193 H 202.692 2.5587 2.90877 0
M  V30 2194 H 203.106 4.69667 2.3348 0
M  V30 2195 H 204.58 3.93843 3.86771 0
M  V30 2196 H 205.057 2.24473 3.77503 0
M  V30 2197 H 205.663 3.39515 2.56144 0
M  V30 2198 N 203.978 -0.674533 1.42435 0
M  V30 2199 C 205.224 -1.43671 1.43131 0
M  V30 2200 C 205.557 -1.94142 0.0476021 0
M  V30 2201 O 204.832 -1.70924 -0.928188 0
M  V30 2202 C 205.115 -2.63355 2.45594 0
M  V30 2203 C 204.968 -2.18514 3.93156 0
M  V30 2204 C 206.287 -3.65571 2.45043 0
M  V30 2205 H 203.406 -0.521077 0.521198 0
M  V30 2206 H 206.048 -0.766551 1.7385 0
M  V30 2207 H 204.198 -3.2053 2.19528 0
M  V30 2208 H 205.87 -1.66504 4.30202 0
M  V30 2209 H 204.113 -1.50086 4.07009 0
M  V30 2210 H 204.784 -3.04484 4.60428 0
M  V30 2211 H 207.26 -3.18113 2.68223 0
M  V30 2212 H 206.136 -4.46893 3.18713 0
M  V30 2213 H 206.397 -4.16716 1.47649 0
M  V30 2214 N 205.456 -1.28612 -0.910864 0
M  V30 2215 C 206.404 -1.1265 -2.03501 0
M  V30 2216 C 207.398 -0.0450054 -1.6934 0
M  V30 2217 O 208.604 -0.203988 -1.7884 0
M  V30 2218 H 204.979 -0.347639 -0.666822 0
M  V30 2219 H 206.95 -2.07849 -2.14106 0
M  V30 2220 C 205.699 -0.808143 -3.38178 0
M  V30 2221 H 205.022 -1.63231 -3.6496 0
M  V30 2222 H 206.462 -0.736426 -4.17556 0
M  V30 2223 C 204.921 0.488226 -3.33344 0
M  V30 2224 O 205.451 1.51766 -3.71927 0
M  V30 2225 N 203.657 0.490009 -2.86439 0
M  V30 2226 H 203.204 -0.348161 -2.55236 0
M  V30 2227 H 203.162 1.35741 -2.83587 0
M  V30 2228 N 206.934 1.1197 -1.10907 0
M  V30 2229 C 207.864 2.19928 -0.784473 0
M  V30 2230 C 208.845 1.6833 0.244726 0
M  V30 2231 O 210.03 1.93892 0.109418 0
M  V30 2232 C 207.16 3.46597 -0.220827 0
M  V30 2233 C 206.114 4.11376 -1.18127 0
M  V30 2234 C 205.44 5.32554 -0.478594 0
M  V30 2235 C 206.74 4.56945 -2.52979 0
M  V30 2236 H 208.434 2.47337 -1.68715 0
M  V30 2237 H 205.98 1.18879 -0.812642 0
M  V30 2238 H 207.933 4.21396 0.0184278 0
M  V30 2239 H 206.657 3.1863 0.717113 0
M  V30 2240 H 205.316 3.38564 -1.40606 0
M  V30 2241 H 204.964 5.00856 0.463976 0
M  V30 2242 H 204.664 5.76844 -1.11912 0
M  V30 2243 H 206.188 6.10096 -0.248 0
M  V30 2244 H 207.602 5.23093 -2.3462 0
M  V30 2245 H 205.999 5.1203 -3.12962 0
M  V30 2246 H 207.069 3.70676 -3.12614 0
M  V30 2247 N 208.412 0.89855 1.29475 0
M  V30 2248 C 209.362 0.346767 2.25348 0
M  V30 2249 C 210.346 -0.532509 1.51833 0
M  V30 2250 O 211.538 -0.374714 1.72988 0
M  V30 2251 C 208.667 -0.425681 3.40651 0
M  V30 2252 C 207.753 0.46845 4.21505 0
M  V30 2253 N 208.144 1.57514 4.80648 0
M  V30 2254 C 206.442 0.26603 4.45206 0
M  V30 2255 C 207.143 2.12889 5.41344 0
M  V30 2256 N 206.119 1.42208 5.24669 0
M  V30 2257 H 209.921 1.19219 2.68634 0
M  V30 2258 H 207.435 0.749473 1.44072 0
M  V30 2259 H 209.432 -0.837716 4.08397 0
M  V30 2260 H 208.092 -1.26838 2.98902 0
M  V30 2261 H 209.103 1.95789 4.79465 0
M  V30 2262 H 205.78 -0.538394 4.14014 0
M  V30 2263 H 207.17 3.05901 5.98226 0
M  V30 2264 N 209.89 -1.43072 0.660911 0
M  V30 2265 C 210.82 -2.33497 -0.0122829 0
M  V30 2266 C 211.801 -1.49903 -0.803925 0
M  V30 2267 O 212.986 -1.78546 -0.763864 0
M  V30 2268 C 210.116 -3.33363 -0.973994 0
M  V30 2269 C 209.07 -4.27003 -0.291928 0
M  V30 2270 C 208.396 -5.16967 -1.36562 0
M  V30 2271 C 209.696 -5.15816 0.820462 0
M  V30 2272 H 211.39 -2.90038 0.742873 0
M  V30 2273 H 208.936 -1.39461 0.358688 0
M  V30 2274 H 210.889 -3.95524 -1.45392 0
M  V30 2275 H 209.613 -2.75095 -1.7604 0
M  V30 2276 H 208.272 -3.66217 0.167623 0
M  V30 2277 H 207.92 -4.55034 -2.14366 0
M  V30 2278 H 207.62 -5.80441 -0.914454 0
M  V30 2279 H 209.144 -5.82003 -1.84675 0
M  V30 2280 H 210.558 -5.71742 0.422366 0
M  V30 2281 H 208.955 -5.8805 1.19656 0
M  V30 2282 H 210.025 -4.55045 1.67518 0
M  V30 2283 N 211.368 -0.403325 -1.52352 0
M  V30 2284 C 212.298 0.416205 -2.29761 0
M  V30 2285 C 213.279 1.05123 -1.33728 0
M  V30 2286 O 214.464 1.06134 -1.62632 0
M  V30 2287 C 211.594 1.53624 -3.11475 0
M  V30 2288 C 210.548 1.02653 -4.15507 0
M  V30 2289 C 209.874 2.23971 -4.85532 0
M  V30 2290 C 211.174 0.08463 -5.22231 0
M  V30 2291 H 212.868 -0.229701 -2.98518 0
M  V30 2292 H 210.414 -0.111913 -1.43564 0
M  V30 2293 H 212.367 2.1165 -3.64393 0
M  V30 2294 H 211.091 2.20994 -2.40477 0
M  V30 2295 H 209.75 0.46871 -3.63591 0
M  V30 2296 H 209.398 2.89883 -4.11068 0
M  V30 2297 H 209.098 1.90521 -5.55856 0
M  V30 2298 H 210.622 2.82614 -5.41259 0
M  V30 2299 H 212.036 0.573509 -5.70424 0
M  V30 2300 H 210.433 -0.160783 -5.99885 0
M  V30 2301 H 211.503 -0.86237 -4.7717 0
M  V30 2302 N 212.846 1.57033 -0.133567 0
M  V30 2303 C 213.779 2.11824 0.848872 0
M  V30 2304 C 214.757 1.03833 1.2513 0
M  V30 2305 O 215.941 1.31579 1.34978 0
M  V30 2306 C 213.068 2.62692 2.138 0
M  V30 2307 C 212.114 3.82705 1.88253 0
M  V30 2308 S 212.947 5.2438 1.08563 0
M  V30 2309 C 214.103 5.78627 2.38624 0
M  V30 2310 H 214.336 2.94824 0.38289 0
M  V30 2311 H 211.869 1.5419 0.0804796 0
M  V30 2312 H 213.827 2.92652 2.87863 0
M  V30 2313 H 212.488 1.79847 2.57515 0
M  V30 2314 H 211.681 4.16496 2.83809 0
M  V30 2315 H 211.283 3.53437 1.22305 0
M  V30 2316 H 213.575 5.8924 3.34369 0
M  V30 2317 H 214.518 6.76443 2.09358 0
M  V30 2318 H 214.926 5.06783 2.48658 0
M  V30 2319 N 214.325 -0.140222 1.56975 0
M  V30 2320 C 215.255 -1.17456 2.01808 0
M  V30 2321 C 216.236 -1.44415 0.898794 0
M  V30 2322 O 217.421 -1.5522 1.16707 0
M  V30 2323 C 214.551 -2.50607 2.40444 0
M  V30 2324 C 213.505 -2.38155 3.55621 0
M  V30 2325 C 212.831 -3.76078 3.80091 0
M  V30 2326 C 214.131 -1.85991 4.88062 0
M  V30 2327 H 215.825 -0.801743 2.88466 0
M  V30 2328 H 213.371 -0.38422 1.38779 0
M  V30 2329 H 215.324 -3.23197 2.7041 0
M  V30 2330 H 214.048 -2.89737 1.50732 0
M  V30 2331 H 212.707 -1.68016 3.25832 0
M  V30 2332 H 212.355 -4.12656 2.87618 0
M  V30 2333 H 212.055 -3.68606 4.57606 0
M  V30 2334 H 213.579 -4.50206 4.12488 0
M  V30 2335 H 214.993 -2.4838 5.16701 0
M  V30 2336 H 213.39 -1.89393 5.6943 0
M  V30 2337 H 214.46 -0.816023 4.77984 0
M  V30 2338 N 215.803 -1.52179 -0.40978 0
M  V30 2339 C 217.028 -1.70347 -1.18308 0
M  V30 2340 C 217.453 -0.411887 -1.83535 0
M  V30 2341 O 216.811 0.630587 -1.6998 0
M  V30 2342 C 216.859 -2.83977 -2.22238 0
M  V30 2343 O 215.963 -2.495 -3.28365 0
M  V30 2344 H 215.304 -0.567103 -0.345384 0
M  V30 2345 H 217.834 -1.98879 -0.480445 0
M  V30 2346 H 217.844 -3.0887 -2.66577 0
M  V30 2347 H 216.519 -3.77685 -1.74146 0
M  V30 2348 H 215.096 -2.35277 -2.89308 0
M  V30 2349 N 217.281 0.66697 -1.42791 0
M  V30 2350 C 218.528 1.42699 -1.43678 0
M  V30 2351 C 218.856 1.94419 -0.0560425 0
M  V30 2352 O 218.111 1.7182 0.936831 0
M  V30 2353 C 218.41 2.6349 -2.4147 0
M  V30 2354 C 218.076 2.30267 -3.8767 0
M  V30 2355 C 216.738 2.20918 -4.27491 0
M  V30 2356 C 219.09 2.03435 -4.79858 0
M  V30 2357 C 216.418 1.82873 -5.57471 0
M  V30 2358 C 218.77 1.66892 -6.10188 0
M  V30 2359 C 217.434 1.56058 -6.49001 0
M  V30 2360 H 216.704 0.522171 -0.525755 0
M  V30 2361 H 219.351 0.759785 -1.75783 0
M  V30 2362 H 217.656 3.35279 -2.0272 0
M  V30 2363 H 219.353 3.21684 -2.39417 0
M  V30 2364 H 215.943 2.38449 -3.56146 0
M  V30 2365 H 220.127 2.09586 -4.49875 0
M  V30 2366 H 215.383 1.7306 -5.86396 0
M  V30 2367 H 219.557 1.45157 -6.81104 0
M  V30 2368 H 217.184 1.26348 -7.49627 0
M  V30 2369 N 218.759 1.29093 0.90403 0
M  V30 2370 C 220.006 1.16813 1.65411 0
M  V30 2371 C 220.334 -0.28128 1.92455 0
M  V30 2372 O 219.589 -1.22006 1.53013 0
M  V30 2373 C 219.888 1.92224 3.01305 0
M  V30 2374 C 219.554 3.41968 2.93885 0
M  V30 2375 C 218.216 3.82807 2.91569 0
M  V30 2376 C 220.568 4.37409 2.83413 0
M  V30 2377 C 217.896 5.1741 2.76594 0
M  V30 2378 C 220.248 5.72097 2.69977 0
M  V30 2379 C 218.912 6.12199 2.66024 0
M  V30 2380 H 218.182 0.42745 0.605283 0
M  V30 2381 H 220.829 1.59981 1.05254 0
M  V30 2382 H 219.134 1.41635 3.65304 0
M  V30 2383 H 220.831 1.80131 3.58265 0
M  V30 2384 H 217.421 3.09504 2.96488 0
M  V30 2385 H 221.605 4.06813 2.84283 0
M  V30 2386 H 216.861 5.47596 2.71935 0
M  V30 2387 H 221.035 6.45704 2.60844 0
M  V30 2388 H 218.662 7.16448 2.54178 0
M  V30 2389 N 220.237 -1.11381 1.11499 0
M  V30 2390 C 221.184 -2.17439 0.773887 0
M  V30 2391 C 222.154 -1.64132 -0.254899 0
M  V30 2392 O 223.339 -1.90345 -0.13168 0
M  V30 2393 C 220.479 -3.44373 0.223917 0
M  V30 2394 C 219.592 -4.1168 1.30934 0
M  V30 2395 C 218.727 -5.263 0.71984 0
M  V30 2396 C 217.766 -5.85493 1.78507 0
M  V30 2397 N 216.903 -6.91507 1.21502 0
M  V30 2398 H 221.743 -2.45962 1.68246 0
M  V30 2399 H 219.28 -1.20744 0.840191 0
M  V30 2400 H 221.238 -4.17047 -0.112921 0
M  V30 2401 H 219.868 -3.16232 -0.647851 0
M  V30 2402 H 218.92 -3.37073 1.76312 0
M  V30 2403 H 220.232 -4.51729 2.11524 0
M  V30 2404 H 219.386 -6.05785 0.333094 0
M  V30 2405 H 218.125 -4.87559 -0.117377 0
M  V30 2406 H 217.13 -5.04686 2.18111 0
M  V30 2407 H 218.355 -6.26301 2.62533 0
M  V30 2408 H 216.301 -6.54783 0.399455 0
M  V30 2409 H 216.218 -7.30214 1.95763 0
M  V30 2410 H 217.486 -7.74795 0.855181 0
M  V30 2411 N 221.715 -0.905404 -1.28997 0
M  V30 2412 C 223.126 -0.581953 -1.77398 0
M  V30 2413 C 223.477 0.902552 -1.74208 0
M  V30 2414 O 222.602 1.70584 -1.33154 0
M  V30 2415 C 223.197 -1.04961 -3.22131 0
M  V30 2416 C 221.756 -0.777229 -3.68288 0
M  V30 2417 C 220.903 -1.22109 -2.48967 0
M  V30 2418 H 223.854 -1.08754 -1.15578 0
M  V30 2419 H 223.875 -0.387387 -3.78523 0
M  V30 2420 H 223.387 -2.13008 -3.24421 0
M  V30 2421 H 221.488 0.290383 -3.71467 0
M  V30 2422 H 221.601 -1.37911 -4.58822 0
M  V30 2423 H 219.965 -0.639971 -2.46529 0
M  V30 2424 H 220.748 -2.30972 -2.53982 0
M  V30 2425 N 223.193 1.4272 -0.668489 0
M  V30 2426 C 224.421 2.05966 -0.196348 0
M  V30 2427 C 224.836 1.50191 1.14403 0
M  V30 2428 O 224.193 0.639208 1.7094 0
M  V30 2429 C 224.244 3.61314 -0.115815 0
M  V30 2430 O 223.965 4.1502 -1.40322 0
M  V30 2431 C 225.466 4.41663 0.380579 0
M  V30 2432 H 222.686 0.663954 -0.0969829 0
M  V30 2433 H 225.23 1.82966 -0.913446 0
M  V30 2434 H 223.385 3.83448 0.551931 0
M  V30 2435 H 223.799 5.08832 -1.27243 0
M  V30 2436 H 225.273 5.5065 0.385848 0
M  V30 2437 H 225.75 4.15792 1.41471 0
M  V30 2438 H 226.356 4.24534 -0.255209 0
M  V30 2439 N 224.671 0.411399 1.52136 0
M  V30 2440 C 226.082 -0.0576826 1.86611 0
M  V30 2441 C 226.433 -1.44238 1.33003 0
M  V30 2442 O 225.558 -2.05759 0.670228 0
M  V30 2443 C 226.153 -0.111448 3.38617 0
M  V30 2444 C 224.712 -0.52487 3.72723 0
M  V30 2445 C 223.859 0.299176 2.75681 0
M  V30 2446 H 226.81 0.628368 1.4573 0
M  V30 2447 H 226.831 -0.926252 3.69054 0
M  V30 2448 H 226.343 0.896488 3.77604 0
M  V30 2449 H 224.444 -1.53936 3.39315 0
M  V30 2450 H 224.557 -0.267681 4.78352 0
M  V30 2451 H 222.921 -0.238814 2.53578 0
M  V30 2452 H 223.704 1.3055 3.17508 0
M  V30 2453 N 226.149 -1.5696 0.141893 0
M  V30 2454 C 227.096 -2.16501 -0.799737 0
M  V30 2455 C 228.066 -1.09643 -1.24771 0
M  V30 2456 O 229.251 -1.3766 -1.32115 0
M  V30 2457 C 226.391 -2.78679 -2.03549 0
M  V30 2458 C 225.504 -3.99914 -1.6338 0
M  V30 2459 C 224.639 -4.50106 -2.82096 0
M  V30 2460 C 223.678 -5.63819 -2.38275 0
M  V30 2461 N 222.815 -6.08651 -3.49983 0
M  V30 2462 H 227.655 -2.96632 -0.285179 0
M  V30 2463 H 225.192 -1.46533 -0.129053 0
M  V30 2464 H 227.15 -3.1287 -2.75986 0
M  V30 2465 H 225.78 -2.012 -2.52425 0
M  V30 2466 H 224.832 -3.71735 -0.807279 0
M  V30 2467 H 226.144 -4.82311 -1.27192 0
M  V30 2468 H 225.298 -4.86325 -3.62729 0
M  V30 2469 H 224.037 -3.66706 -3.21525 0
M  V30 2470 H 223.042 -5.2718 -1.56081 0
M  V30 2471 H 224.267 -6.49 -1.99938 0
M  V30 2472 H 222.213 -5.28188 -3.89042 0
M  V30 2473 H 222.13 -6.85961 -3.17794 0
M  V30 2474 H 223.398 -6.49515 -4.30988 0
M  V30 2475 N 227.627 0.131896 -1.57047 0
M  V30 2476 C 229.043 0.485031 -1.52051 0
M  V30 2477 C 229.243 1.82563 -0.85281 0
M  V30 2478 O 228.299 2.48817 -0.429694 0
M  V30 2479 C 229.612 0.481409 -2.96821 0
M  V30 2480 C 231.16 0.565868 -3.07842 0
M  V30 2481 C 231.635 0.592762 -4.54148 0
M  V30 2482 N 233.126 0.654564 -4.58552 0
M  V30 2483 C 233.861 0.696608 -5.69153 0
M  V30 2484 N 233.357 0.697078 -6.89284 0
M  V30 2485 N 235.15 0.738639 -5.57226 0
M  V30 2486 H 227.301 -0.746664 -1.98843 0
M  V30 2487 H 229.564 -0.273999 -0.90754 0
M  V30 2488 H 229.27 -0.435731 -3.4899 0
M  V30 2489 H 229.144 1.3139 -3.53577 0
M  V30 2490 H 231.531 1.47343 -2.55684 0
M  V30 2491 H 231.612 -0.29406 -2.54104 0
M  V30 2492 H 231.256 -0.310701 -5.06949 0
M  V30 2493 H 231.186 1.46939 -5.05684 0
M  V30 2494 H 233.677 0.660887 -3.72076 0
M  V30 2495 H 233.99 0.731426 -7.69331 0
M  V30 2496 H 232.335 0.66471 -6.91814 0
M  V30 2497 H 235.526 0.735545 -4.62285 0
M  V30 2498 H 235.699 0.767938 -6.43434 0
M  V30 2499 N 229.106 1.52395 0.401703 0
M  V30 2500 C 230.336 1.70429 1.1678 0
M  V30 2501 C 230.744 0.416702 1.84554 0
M  V30 2502 O 230.087 -0.617697 1.73003 0
M  V30 2503 C 230.149 2.78919 2.26814 0
M  V30 2504 C 229.813 4.20437 1.79113 0
M  V30 2505 C 230.81 5.04028 1.27482 0
M  V30 2506 C 228.495 4.66704 1.85722 0
M  V30 2507 C 230.489 6.31961 0.830913 0
M  V30 2508 C 228.176 5.94625 1.40942 0
M  V30 2509 C 229.174 6.77082 0.897128 0
M  V30 2510 O 228.862 8.02607 0.455822 0
M  V30 2511 H 228.594 0.574272 0.356634 0
M  V30 2512 H 231.148 1.99767 0.477724 0
M  V30 2513 H 229.378 2.44973 2.99207 0
M  V30 2514 H 231.067 2.8548 2.88541 0
M  V30 2515 H 231.833 4.69471 1.21744 0
M  V30 2516 H 227.712 4.0262 2.24539 0
M  V30 2517 H 231.256 6.96271 0.430368 0
M  V30 2518 H 227.153 6.28688 1.46362 0
M  V30 2519 H 227.921 8.16453 0.578457 0
M  V30 2520 N 230.584 -0.659388 1.43143 0
M  V30 2521 C 231.531 -1.77249 1.47822 0
M  V30 2522 C 232.501 -1.62818 0.328558 0
M  V30 2523 O 233.686 -1.83151 0.534838 0
M  V30 2524 C 230.826 -3.15371 1.40126 0
M  V30 2525 C 229.939 -3.4098 2.65249 0
M  V30 2526 C 229.074 -4.68915 2.49584 0
M  V30 2527 C 228.113 -4.87608 3.70006 0
M  V30 2528 N 227.25 -6.06796 3.53189 0
M  V30 2529 H 232.09 -1.72584 2.42938 0
M  V30 2530 H 229.627 -0.842297 1.20598 0
M  V30 2531 H 231.585 -3.9521 1.33659 0
M  V30 2532 H 230.215 -3.19121 0.485964 0
M  V30 2533 H 229.267 -2.55282 2.8202 0
M  V30 2534 H 230.579 -3.50681 3.54717 0
M  V30 2535 H 229.733 -5.56871 2.4079 0
M  V30 2536 H 228.472 -4.61524 1.5763 0
M  V30 2537 H 227.477 -3.9809 3.79215 0
M  V30 2538 H 228.702 -4.96834 4.62961 0
M  V30 2539 H 226.648 -6.00549 2.63965 0
M  V30 2540 H 226.565 -6.17428 4.36255 0
M  V30 2541 H 227.833 -6.9739 3.48236 0
M  V30 2542 N 232.062 -1.29571 -0.897171 0
M  V30 2543 C 233.311 -1.1706 -1.64256 0
M  V30 2544 C 233.624 0.276476 -1.93636 0
M  V30 2545 O 234.83 0.52294 -2.66416 0
M  V30 2546 C 233.286 -2.0475 -2.95982 0
M  V30 2547 C 232.894 -3.54295 -2.74187 0
M  V30 2548 C 234.638 -2.0097 -3.73914 0
M  V30 2549 C 232.545 -4.34081 -4.01656 0
M  V30 2550 H 231.475 -0.43452 -0.616205 0
M  V30 2551 H 234.126 -1.54229 -0.994268 0
M  V30 2552 H 232.508 -1.60452 -3.62038 0
M  V30 2553 H 233.682 -4.06662 -2.1671 0
M  V30 2554 H 231.997 -3.59773 -2.09648 0
M  V30 2555 H 234.594 -2.57838 -4.68427 0
M  V30 2556 H 234.937 -0.990273 -4.0435 0
M  V30 2557 H 235.47 -2.43325 -3.14703 0
M  V30 2558 H 232.209 -5.36671 -3.76384 0
M  V30 2559 H 231.729 -3.86483 -4.58684 0
M  V30 2560 H 233.408 -4.44877 -4.69781 0
M  V30 2561 N 233.54 1.10788 -1.12088 0
M  V30 2562 C 234.47 2.19083 -0.807755 0
M  V30 2563 C 235.451 1.6858 0.226859 0
M  V30 2564 O 236.636 1.93997 0.0888475 0
M  V30 2565 C 233.766 3.46344 -0.257576 0
M  V30 2566 C 232.72 4.101 -1.22483 0
M  V30 2567 C 232.046 5.32016 -0.535052 0
M  V30 2568 C 233.346 4.54236 -2.57811 0
M  V30 2569 H 235.04 2.45534 -1.71328 0
M  V30 2570 H 232.586 1.1801 -0.825205 0
M  V30 2571 H 234.539 4.21392 -0.0262679 0
M  V30 2572 H 233.263 3.19373 0.683278 0
M  V30 2573 H 231.922 3.37054 -1.44189 0
M  V30 2574 H 231.57 5.01319 0.410827 0
M  V30 2575 H 231.27 5.75625 -1.18024 0
M  V30 2576 H 232.794 6.09799 -0.312695 0
M  V30 2577 H 234.208 5.20575 -2.40155 0
M  V30 2578 H 232.605 5.08682 -3.18375 0
M  V30 2579 H 233.675 3.6734 -3.16528 0
M  V30 2580 N 235.018 0.912232 1.28515 0
M  V30 2581 C 235.948 0.416403 2.29757 0
M  V30 2582 C 236.929 -0.515194 1.6211 0
M  V30 2583 O 238.114 -0.423253 1.89532 0
M  V30 2584 C 235.244 -0.34572 3.45575 0
M  V30 2585 C 234.198 0.496599 4.25109 0
M  V30 2586 C 233.524 -0.393771 5.33248 0
M  V30 2587 C 234.824 1.75307 4.92001 0
M  V30 2588 H 236.518 1.26249 2.7148 0
M  V30 2589 H 234.064 0.608515 1.30511 0
M  V30 2590 H 236.017 -0.703422 4.15488 0
M  V30 2591 H 234.741 -1.2257 3.02728 0
M  V30 2592 H 233.4 0.8368 3.56922 0
M  V30 2593 H 233.048 -1.27225 4.86644 0
M  V30 2594 H 232.748 0.166209 5.87365 0
M  V30 2595 H 234.272 -0.747389 6.06009 0
M  V30 2596 H 235.686 1.46437 5.54283 0
M  V30 2597 H 234.083 2.25534 5.56106 0
M  V30 2598 H 235.153 2.48176 4.16577 0
M  V30 2599 N 236.496 -1.42363 0.676048 0
M  V30 2600 C 237.406 -2.346 -0.00153389 0
M  V30 2601 C 238.422 -1.5516 -0.787485 0
M  V30 2602 O 239.598 -1.87723 -0.729521 0
M  V30 2603 C 236.663 -3.33705 -0.940298 0
M  V30 2604 C 235.724 -4.29042 -0.148739 0
M  V30 2605 C 234.957 -5.23413 -1.04279 0
M  V30 2606 O 235.18 -5.22749 -2.28232 0
M  V30 2607 O 234.114 -5.99795 -0.502925 0
M  V30 2608 H 237.94 -2.94082 0.758268 0
M  V30 2609 H 235.525 -1.42888 0.436289 0
M  V30 2610 H 237.407 -3.94586 -1.47917 0
M  V30 2611 H 236.082 -2.76695 -1.67993 0
M  V30 2612 H 234.989 -3.71571 0.43427 0
M  V30 2613 H 236.322 -4.89097 0.551805 0
M  V30 2614 N 237.974 -0.419461 -1.51915 0
M  V30 2615 C 238.937 0.389116 -2.25873 0
M  V30 2616 C 239.937 0.964924 -1.28631 0
M  V30 2617 O 241.127 0.842179 -1.52489 0
M  V30 2618 C 238.259 1.54874 -3.03689 0
M  V30 2619 H 239.452 -0.258799 -2.98781 0
M  V30 2620 H 237.005 -0.172209 -1.55348 0
M  V30 2621 H 237.74 2.23323 -2.35154 0
M  V30 2622 H 237.525 1.14223 -3.75094 0
M  V30 2623 H 239.015 2.12046 -3.59759 0
M  V30 2624 N 239.452 1.56882 -0.150215 0
M  V30 2625 C 240.399 2.16922 0.788244 0
M  V30 2626 C 241.369 1.10303 1.24187 0
M  V30 2627 O 242.554 1.38359 1.31383 0
M  V30 2628 C 239.694 2.79754 2.02068 0
M  V30 2629 C 238.807 4.00775 1.61257 0
M  V30 2630 C 237.942 4.51595 2.79705 0
M  V30 2631 C 236.981 5.65074 2.35282 0
M  V30 2632 N 236.118 6.10499 3.4675 0
M  V30 2633 H 240.958 2.96779 0.269444 0
M  V30 2634 H 238.495 1.46599 0.12128 0
M  V30 2635 H 240.453 3.14329 2.74323 0
M  V30 2636 H 239.083 2.02536 2.51354 0
M  V30 2637 H 238.135 3.72158 0.787553 0
M  V30 2638 H 239.447 4.82978 1.24633 0
M  V30 2639 H 238.601 4.88242 3.60145 0
M  V30 2640 H 237.34 3.68406 3.19576 0
M  V30 2641 H 236.345 5.28 1.53283 0
M  V30 2642 H 237.57 6.50052 1.96493 0
M  V30 2643 H 235.516 5.30243 3.86236 0
M  V30 2644 H 235.433 6.87637 3.14152 0
M  V30 2645 H 236.701 6.51791 4.27537 0
M  V30 2646 N 240.93 -0.123565 1.57115 0
M  V30 2647 C 241.893 -1.13583 1.99076 0
M  V30 2648 C 242.893 -1.34564 0.880296 0
M  V30 2649 O 244.083 -1.31158 1.14644 0
M  V30 2650 C 241.215 -2.49128 2.32698 0
M  V30 2651 H 242.408 -0.775287 2.89706 0
M  V30 2652 H 239.961 -0.36771 1.51913 0
M  V30 2653 H 240.696 -2.90111 1.44934 0
M  V30 2654 H 240.481 -2.35255 3.13684 0
M  V30 2655 H 241.971 -3.2199 2.65918 0
M  V30 2656 N 242.408 -1.52605 -0.393616 0
M  V30 2657 C 243.655 -1.67424 -1.1391 0
M  V30 2658 C 243.983 -0.411859 -1.90089 0
M  V30 2659 O 243.238 0.605626 -1.86093 0
M  V30 2660 C 243.537 -2.85721 -2.14705 0
M  V30 2661 C 243.203 -4.23342 -1.55218 0
M  V30 2662 C 241.865 -4.60771 -1.3872 0
M  V30 2663 C 244.217 -5.09041 -1.11924 0
M  V30 2664 C 241.545 -5.81563 -0.774689 0
M  V30 2665 C 243.897 -6.30452 -0.520853 0
M  V30 2666 C 242.561 -6.66617 -0.343134 0
M  V30 2667 H 241.831 -0.612648 -0.416826 0
M  V30 2668 H 244.478 -1.8674 -0.424315 0
M  V30 2669 H 242.783 -2.60803 -2.92385 0
M  V30 2670 H 244.48 -2.94382 -2.72288 0
M  V30 2671 H 241.07 -3.93855 -1.69045 0
M  V30 2672 H 245.254 -4.80695 -1.23473 0
M  V30 2673 H 240.51 -6.08196 -0.625154 0
M  V30 2674 H 244.684 -6.96175 -0.177065 0
M  V30 2675 H 242.311 -7.60083 0.133571 0
M  V30 2676 N 243.887 0.651787 -1.4349 0
M  V30 2677 C 245.298 1.233 -1.40193 0
M  V30 2678 C 245.649 1.9591 -0.106727 0
M  V30 2679 O 244.774 2.01316 0.793773 0
M  V30 2680 C 245.369 2.24257 -2.53957 0
M  V30 2681 C 243.928 2.77852 -2.5392 0
M  V30 2682 C 243.075 1.52517 -2.3159 0
M  V30 2683 H 246.026 0.443717 -1.52371 0
M  V30 2684 H 246.047 3.0646 -2.25528 0
M  V30 2685 H 245.559 1.71382 -3.4821 0
M  V30 2686 H 243.66 3.34786 -1.63551 0
M  V30 2687 H 243.773 3.25299 -3.51735 0
M  V30 2688 H 242.137 1.79915 -1.80285 0
M  V30 2689 H 242.92 1.01574 -3.27929 0
M  V30 2690 N 245.365 1.30045 0.890287 0
M  V30 2691 C 246.59 1.21598 1.68014 0
M  V30 2692 C 247.015 -0.218678 1.86825 0
M  V30 2693 O 246.373 -1.15756 1.39536 0
M  V30 2694 C 246.421 1.94434 3.03691 0
M  V30 2695 O 245.525 1.2678 3.92429 0
M  V30 2696 H 244.866 0.420856 0.513592 0
M  V30 2697 H 247.396 1.71775 1.11151 0
M  V30 2698 H 247.406 2.03251 3.5377 0
M  V30 2699 H 246.081 2.98777 2.89318 0
M  V30 2700 H 244.658 1.26282 3.50866 0
M  V30 2701 N 246.843 -1.10192 1.12674 0
M  V30 2702 C 248.12 -1.78717 0.794965 0
M  V30 2703 C 248.5 -1.98628 -0.714853 0
M  V30 2704 O 247.848 -1.58135 -1.64941 0
M  V30 2705 C 248.058 -3.11546 1.5729 0
M  V30 2706 C 249.406 -3.86382 1.76052 0
M  V30 2707 O 250.43 -3.21274 1.53823 0
M  V30 2708 O 249.289 -5.03246 2.13087 0
M  V30 2709 H 246.383 -0.774702 0.289423 0
M  V30 2710 H 248.929 -1.16819 1.23091 0
M  V30 2711 H 247.701 -2.92489 2.59935 0
M  V30 2712 H 247.324 -3.81164 1.13137 0
M  V30 2713 N 248.321 -0.919034 -1.28029 0
M  V30 2714 C 249.271 -0.382574 -2.24767 0
M  V30 2715 C 250.255 0.508286 -1.52661 0
M  V30 2716 O 251.447 0.347145 -1.73562 0
M  V30 2717 C 248.576 0.371432 -3.41285 0
M  V30 2718 C 247.662 -0.535449 -4.20706 0
M  V30 2719 N 248.053 -1.65141 -4.78082 0
M  V30 2720 C 246.351 -0.336824 -4.44726 0
M  V30 2721 C 247.052 -2.21475 -5.37888 0
M  V30 2722 N 246.028 -1.50537 -5.22341 0
M  V30 2723 H 249.83 -1.23477 -2.66703 0
M  V30 2724 H 247.344 -0.772299 -1.42861 0
M  V30 2725 H 249.341 0.772638 -4.09678 0
M  V30 2726 H 248.001 1.22066 -3.00882 0
M  V30 2727 H 249.012 -2.03392 -4.7629 0
M  V30 2728 H 245.689 0.47246 -4.14818 0
M  V30 2729 H 247.079 -3.15379 -5.93284 0
M  V30 2730 N 249.799 1.42003 -0.683588 0
M  V30 2731 C 251.029 2.05448 -0.217866 0
M  V30 2732 C 251.437 1.51491 1.13346 0
M  V30 2733 O 250.78 0.653048 1.717 0
M  V30 2734 C 250.842 3.59399 -0.0850118 0
M  V30 2735 C 250.506 4.36093 -1.36645 0
M  V30 2736 C 251.503 4.66169 -2.30179 0
M  V30 2737 C 249.188 4.75578 -1.61649 0
M  V30 2738 C 251.182 5.34676 -3.46988 0
M  V30 2739 C 248.869 5.43824 -2.78745 0
M  V30 2740 C 249.867 5.73299 -3.71238 0
M  V30 2741 O 249.555 6.40142 -4.86285 0
M  V30 2742 H 249.287 0.668344 -0.101454 0
M  V30 2743 H 251.841 1.82974 -0.933248 0
M  V30 2744 H 250.071 3.80566 0.686031 0
M  V30 2745 H 251.76 4.04457 0.341973 0
M  V30 2746 H 252.526 4.36156 -2.12115 0
M  V30 2747 H 248.405 4.52025 -0.905243 0
M  V30 2748 H 251.949 5.57599 -4.19201 0
M  V30 2749 H 247.846 5.73254 -2.96732 0
M  V30 2750 H 248.614 6.58636 -4.85944 0
M  V30 2751 N 251.277 0.427512 1.51691 0
M  V30 2752 C 252.24 -0.377132 2.26076 0
M  V30 2753 C 253.24 -0.958089 1.29141 0
M  V30 2754 O 254.43 -0.83408 1.52934 0
M  V30 2755 C 251.562 -1.53262 3.04506 0
M  V30 2756 H 252.755 0.27464 2.9864 0
M  V30 2757 H 250.308 0.180445 1.55255 0
M  V30 2758 H 251.043 -2.22072 2.36335 0
M  V30 2759 H 250.828 -1.12232 3.75694 0
M  V30 2760 H 252.318 -2.10135 3.60878 0
M  V30 2761 N 252.755 -1.56801 0.158532 0
M  V30 2762 C 254.004 -1.95665 -0.489702 0
M  V30 2763 C 254.317 -1.04654 -1.65248 0
M  V30 2764 O 255.523 -1.33146 -2.3661 0
M  V30 2765 C 253.979 -3.47874 -0.922582 0
M  V30 2766 C 253.587 -4.47489 0.213893 0
M  V30 2767 C 255.331 -3.95583 -1.53996 0
M  V30 2768 C 253.238 -5.90921 -0.237903 0
M  V30 2769 H 252.168 -0.730516 -0.186716 0
M  V30 2770 H 254.819 -1.81861 0.244722 0
M  V30 2771 H 253.201 -3.57051 -1.71261 0
M  V30 2772 H 254.375 -4.50017 0.991036 0
M  V30 2773 H 252.69 -4.09764 0.740407 0
M  V30 2774 H 255.287 -5.0019 -1.8898 0
M  V30 2775 H 255.63 -3.37789 -2.43319 0
M  V30 2776 H 256.163 -3.8937 -0.814611 0
M  V30 2777 H 252.902 -6.52559 0.620236 0
M  V30 2778 H 252.422 -5.91729 -0.980676 0
M  V30 2779 H 254.101 -6.43352 -0.686067 0
M  V30 2780 N 254.233 0.115231 -1.57178 0
M  V30 2781 C 255.143 1.15994 -2.03918 0
M  V30 2782 C 256.159 1.45103 -0.960268 0
M  V30 2783 O 257.335 1.56144 -1.27204 0
M  V30 2784 C 254.4 2.46568 -2.43732 0
M  V30 2785 C 253.461 2.24822 -3.65723 0
M  V30 2786 C 252.694 3.4917 -4.03629 0
M  V30 2787 O 252.917 4.56623 -3.41835 0
M  V30 2788 O 251.851 3.39949 -4.96708 0
M  V30 2789 H 255.677 0.793019 -2.93164 0
M  V30 2790 H 253.262 0.3263 -1.45793 0
M  V30 2791 H 255.144 3.23492 -2.70057 0
M  V30 2792 H 253.819 2.82726 -1.57631 0
M  V30 2793 H 252.726 1.45744 -3.44542 0
M  V30 2794 H 254.059 1.93566 -4.52541 0
M  V30 2795 N 255.711 1.52812 0.385517 0
M  V30 2796 C 256.936 1.72207 1.15583 0
M  V30 2797 C 257.361 0.441034 1.82857 0
M  V30 2798 O 256.719 -0.603465 1.70962 0
M  V30 2799 C 256.767 2.87476 2.17692 0
M  V30 2800 O 255.871 2.54693 3.24354 0
M  V30 2801 H 255.212 0.572526 0.336319 0
M  V30 2802 H 257.742 1.99618 0.448744 0
M  V30 2803 H 257.752 3.13072 2.6163 0
M  V30 2804 H 256.427 3.80408 1.68115 0
M  V30 2805 H 255.004 2.3985 2.85529 0
M  V30 2806 N 257.189 -0.644168 1.43834 0
M  V30 2807 C 258.121 -1.76955 1.45669 0
M  V30 2808 C 259.134 -1.58956 0.351666 0
M  V30 2809 O 260.323 -1.6751 0.616644 0
M  V30 2810 C 257.423 -3.14507 1.26248 0
M  V30 2811 C 256.596 -3.59083 2.49757 0
M  V30 2812 C 255.655 -4.75467 2.25427 0
M  V30 2813 O 254.681 -4.84444 2.98836 0
M  V30 2814 N 255.883 -5.66289 1.27661 0
M  V30 2815 H 258.648 -1.75856 2.42682 0
M  V30 2816 H 256.209 -0.828312 1.39106 0
M  V30 2817 H 258.201 -3.90067 1.0784 0
M  V30 2818 H 256.771 -3.10325 0.376478 0
M  V30 2819 H 255.991 -2.7387 2.8353 0
M  V30 2820 H 257.279 -3.85613 3.31934 0
M  V30 2821 H 256.677 -5.61718 0.670064 0
M  V30 2822 H 255.234 -6.41533 1.15234 0
M  V30 2823 N 258.668 -1.30515 -0.883378 0
M  V30 2824 C 259.598 -1.19607 -2.00541 0
M  V30 2825 C 260.579 -0.086346 -1.69881 0
M  V30 2826 O 261.764 -0.268654 -1.92333 0
M  V30 2827 C 258.894 -0.888758 -3.35736 0
M  V30 2828 C 257.848 -1.95659 -3.8066 0
M  V30 2829 C 257.174 -1.50224 -5.13164 0
M  V30 2830 C 258.474 -3.36788 -3.99213 0
M  V30 2831 H 260.168 -2.13476 -2.09925 0
M  V30 2832 H 257.714 -1.02775 -1.00863 0
M  V30 2833 H 259.667 -0.799094 -4.13754 0
M  V30 2834 H 258.391 0.0856125 -3.26488 0
M  V30 2835 H 257.05 -2.03591 -3.04871 0
M  V30 2836 H 256.698 -0.516092 -5.00345 0
M  V30 2837 H 256.398 -2.2165 -5.44192 0
M  V30 2838 H 257.922 -1.42639 -5.93706 0
M  V30 2839 H 259.336 -3.31605 -4.67665 0
M  V30 2840 H 257.733 -4.06314 -4.41621 0
M  V30 2841 H 258.803 -3.78561 -3.03017 0
M  V30 2842 N 260.146 1.09593 -1.13257 0
M  V30 2843 C 261.078 2.16015 -0.766167 0
M  V30 2844 C 262.091 1.61423 0.211303 0
M  V30 2845 O 263.28 1.78498 -0.00863946 0
M  V30 2846 C 260.38 3.38706 -0.114662 0
M  V30 2847 C 259.553 4.22717 -1.12379 0
M  V30 2848 C 258.612 5.23835 -0.498301 0
M  V30 2849 O 257.638 5.573 -1.15781 0
M  V30 2850 N 258.84 5.75886 0.730417 0
M  V30 2851 H 261.605 2.48055 -1.68193 0
M  V30 2852 H 259.166 1.25292 -1.02535 0
M  V30 2853 H 261.158 4.03464 0.315991 0
M  V30 2854 H 259.728 3.04569 0.704011 0
M  V30 2855 H 258.948 3.54122 -1.73179 0
M  V30 2856 H 260.236 4.75673 -1.80589 0
M  V30 2857 H 259.634 5.50911 1.28504 0
M  V30 2858 H 258.191 6.42387 1.10376 0
M  V30 2859 N 261.624 0.925811 1.2754 0
M  V30 2860 C 262.554 0.440748 2.29303 0
M  V30 2861 C 263.535 -0.497971 1.62648 0
M  V30 2862 O 264.72 -0.403126 1.8997 0
M  V30 2863 C 261.85 -0.309048 3.45922 0
M  V30 2864 C 260.804 0.54166 4.24559 0
M  V30 2865 C 260.13 -0.337191 5.33636 0
M  V30 2866 C 261.43 1.80516 4.90114 0
M  V30 2867 H 263.124 1.29121 2.70126 0
M  V30 2868 H 260.67 0.622323 1.29858 0
M  V30 2869 H 262.623 -0.659315 4.1621 0
M  V30 2870 H 261.347 -1.19352 3.04011 0
M  V30 2871 H 260.006 0.874609 3.56014 0
M  V30 2872 H 259.654 -1.22056 4.87966 0
M  V30 2873 H 259.354 0.228497 5.87156 0
M  V30 2874 H 260.878 -0.683072 6.06767 0
M  V30 2875 H 262.292 1.52307 5.52698 0
M  V30 2876 H 260.689 2.3142 5.53683 0
M  V30 2877 H 261.759 2.52581 4.13921 0
M  V30 2878 N 263.102 -1.41638 0.69111 0
M  V30 2879 C 264.052 -2.28 -0.000107832 0
M  V30 2880 C 265.036 -1.41964 -0.757304 0
M  V30 2881 O 266.228 -1.65274 -0.633532 0
M  V30 2882 C 263.357 -3.30209 -0.938983 0
M  V30 2883 C 262.443 -4.23725 -0.17827 0
M  V30 2884 N 262.834 -4.99017 0.825563 0
M  V30 2885 C 261.132 -4.44071 -0.414392 0
M  V30 2886 C 261.833 -5.67431 1.28052 0
M  V30 2887 N 260.809 -5.40197 0.607304 0
M  V30 2888 H 264.611 -2.83644 0.769617 0
M  V30 2889 H 262.125 -1.53797 0.521562 0
M  V30 2890 H 264.122 -3.90898 -1.44929 0
M  V30 2891 H 262.782 -2.76126 -1.70836 0
M  V30 2892 H 263.793 -5.03671 1.20566 0
M  V30 2893 H 260.47 -4.01004 -1.162 0
M  V30 2894 H 261.86 -6.37801 2.11327 0
M  V30 2895 N 264.58 -0.43555 -1.51462 0
M  V30 2896 C 265.828 0.131254 -2.01673 0
M  V30 2897 C 266.149 1.43368 -1.32177 0
M  V30 2898 O 265.419 1.90524 -0.455769 0
M  V30 2899 H 263.999 0.0514954 -0.745223 0
M  V30 2900 H 266.661 -0.577847 -1.86137 0
M  V30 2901 H 265.757 0.308446 -3.10572 0
M  V30 2902 N 266.058 1.56714 -0.166846 0
M  V30 2903 C 266.988 2.20754 0.760913 0
M  V30 2904 C 267.969 1.16178 1.24244 0
M  V30 2905 O 269.154 1.44592 1.29641 0
M  V30 2906 C 266.284 2.84478 1.99223 0
M  V30 2907 C 265.238 3.95053 1.64672 0
M  V30 2908 C 264.564 4.45805 2.95232 0
M  V30 2909 C 265.864 5.14865 0.878155 0
M  V30 2910 H 267.558 2.98537 0.22713 0
M  V30 2911 H 265.104 1.43596 0.107805 0
M  V30 2912 H 267.057 3.27951 2.64624 0
M  V30 2913 H 265.781 2.04056 2.55007 0
M  V30 2914 H 264.44 3.52228 1.01641 0
M  V30 2915 H 264.088 3.62181 3.49047 0
M  V30 2916 H 263.788 5.204 2.7287 0
M  V30 2917 H 265.312 4.91962 3.6167 0
M  V30 2918 H 266.726 5.55059 1.43466 0
M  V30 2919 H 265.123 5.95348 0.753738 0
M  V30 2920 H 266.193 4.84735 -0.126377 0
M  V30 2921 N 267.536 -0.106894 1.57237 0
M  V30 2922 C 268.484 -1.14944 2.02215 0
M  V30 2923 C 269.478 -1.42167 0.92114 0
M  V30 2924 O 270.684 -1.41987 1.10634 0
M  V30 2925 H 267.059 -0.387841 0.64427 0
M  V30 2926 H 269.03 -0.743683 2.88984 0
M  V30 2927 C 267.779 -2.4647 2.4525 0
M  V30 2928 H 267.102 -2.26363 3.29545 0
M  V30 2929 H 268.542 -3.17948 2.80508 0
M  V30 2930 C 267.001 -3.09921 1.321 0
M  V30 2931 O 267.531 -3.9651 0.643622 0
M  V30 2932 N 265.737 -2.69986 1.07497 0
M  V30 2933 H 265.284 -1.99667 1.62761 0
M  V30 2934 H 265.242 -3.12769 0.319876 0
M  V30 2935 N 269.014 -1.53014 -0.377408 0
M  V30 2936 C 270.263 -1.67845 -1.11853 0
M  V30 2937 C 270.576 -0.430625 -1.90801 0
M  V30 2938 O 271.782 -0.459261 -2.67587 0
M  V30 2939 C 270.238 -2.96668 -2.03756 0
M  V30 2940 C 269.846 -4.28671 -1.30175 0
M  V30 2941 C 271.59 -3.20865 -2.77932 0
M  V30 2942 C 269.497 -5.48591 -2.20911 0
M  V30 2943 H 268.427 -0.625343 -0.421263 0
M  V30 2944 H 271.078 -1.79514 -0.380409 0
M  V30 2945 H 269.46 -2.78773 -2.8125 0
M  V30 2946 H 270.634 -4.57157 -0.578259 0
M  V30 2947 H 268.949 -4.10825 -0.679108 0
M  V30 2948 H 271.546 -4.07642 -3.46024 0
M  V30 2949 H 271.889 -2.36424 -3.4265 0
M  V30 2950 H 272.422 -3.39379 -2.07525 0
M  V30 2951 H 269.161 -6.35474 -1.6079 0
M  V30 2952 H 268.681 -5.244 -2.91144 0
M  V30 2953 H 270.36 -5.8292 -2.80736 0
M  V30 2954 N 270.492 0.636531 -1.44174 0
M  V30 2955 C 271.402 1.77754 -1.53103 0
M  V30 2956 C 272.418 1.68928 -0.417034 0
M  V30 2957 O 273.594 1.89801 -0.6736 0
M  V30 2958 C 270.659 3.14115 -1.46741 0
M  V30 2959 C 269.72 3.34612 -2.68948 0
M  V30 2960 C 268.953 4.64467 -2.6288 0
M  V30 2961 O 269.176 5.44919 -1.68581 0
M  V30 2962 O 268.11 4.87049 -3.53648 0
M  V30 2963 H 271.936 1.73174 -2.49489 0
M  V30 2964 H 269.521 0.79709 -1.2636 0
M  V30 2965 H 271.403 3.95412 -1.45696 0
M  V30 2966 H 270.078 3.19249 -0.534975 0
M  V30 2967 H 268.985 2.53014 -2.75562 0
M  V30 2968 H 270.318 3.34336 -3.61221 0
M  V30 2969 N 271.97 1.30982 0.876444 0
M  V30 2970 C 272.88 1.2003 2.01569 0
M  V30 2971 C 273.896 0.11838 1.73597 0
M  V30 2972 O 275.072 0.33495 1.98595 0
M  V30 2973 C 272.137 0.901637 3.34771 0
M  V30 2974 C 271.198 2.06979 3.76109 0
M  V30 2975 C 270.431 1.78529 5.02954 0
M  V30 2976 O 270.654 0.717296 5.65872 0
M  V30 2977 O 269.588 2.64019 5.40905 0
M  V30 2978 H 273.414 2.15753 2.13739 0
M  V30 2979 H 270.999 1.10658 1.00375 0
M  V30 2980 H 272.881 0.750645 4.1466 0
M  V30 2981 H 271.556 -0.0256141 3.2369 0
M  V30 2982 H 270.463 2.27616 2.96887 0
M  V30 2983 H 271.796 2.97907 3.91807 0
M  V30 2984 N 273.449 -1.08991 1.13837 0
M  V30 2985 C 274.674 -1.85551 0.926585 0
M  V30 2986 C 275.099 -1.80782 -0.519566 0
M  V30 2987 O 274.457 -1.18855 -1.36906 0
M  V30 2988 C 274.505 -3.31266 1.42462 0
M  V30 2989 O 273.609 -4.07822 0.612789 0
M  V30 2990 H 272.95 -0.575192 0.331738 0
M  V30 2991 H 275.48 -1.37604 1.51414 0
M  V30 2992 H 275.49 -3.82112 1.43019 0
M  V30 2993 H 274.165 -3.34052 2.47754 0
M  V30 2994 H 272.742 -3.66731 0.675463 0
M  V30 2995 N 274.927 -0.932562 -1.27047 0
M  V30 2996 C 275.86 -0.379774 -2.25018 0
M  V30 2997 C 276.838 0.526587 -1.53837 0
M  V30 2998 O 278.022 0.465992 -1.82649 0
M  V30 2999 C 275.149 0.455187 -3.35627 0
M  V30 3000 C 274.195 -0.388428 -4.24728 0
M  V30 3001 S 275.028 -1.80701 -5.04091 0
M  V30 3002 C 276.184 -0.979865 -6.18182 0
M  V30 3003 H 276.417 -1.2101 -2.71558 0
M  V30 3004 H 273.95 -0.735078 -1.35779 0
M  V30 3005 H 275.908 0.931052 -3.99802 0
M  V30 3006 H 274.569 1.26009 -2.87716 0
M  V30 3007 H 273.762 0.25089 -5.03375 0
M  V30 3008 H 273.364 -0.798649 -3.65373 0
M  V30 3009 H 275.656 -0.218115 -6.77149 0
M  V30 3010 H 276.599 -1.73951 -6.86401 0
M  V30 3011 H 277.007 -0.51973 -5.62102 0
M  V30 3012 N 276.405 1.4127 -0.698611 0
M  V30 3013 C 277.821 1.55241 -0.370462 0
M  V30 3014 C 278.021 1.67351 1.12231 0
M  V30 3015 O 277.077 1.65363 1.90818 0
M  V30 3016 C 278.39 2.78997 -1.12165 0
M  V30 3017 C 279.938 2.92797 -1.1063 0
M  V30 3018 C 280.413 4.19445 -1.8393 0
M  V30 3019 N 281.904 4.26409 -1.80914 0
M  V30 3020 C 282.639 5.23271 -2.34467 0
M  V30 3021 N 282.135 6.26145 -2.96504 0
M  V30 3022 N 283.928 5.15232 -2.24706 0
M  V30 3023 H 276.079 1.31654 -1.66676 0
M  V30 3024 H 278.342 0.635393 -0.703548 0
M  V30 3025 H 278.048 2.76268 -2.17644 0
M  V30 3026 H 277.922 3.70606 -0.702209 0
M  V30 3027 H 280.309 2.95039 -0.0597713 0
M  V30 3028 H 280.39 2.02353 -1.56483 0
M  V30 3029 H 280.034 4.17964 -2.88563 0
M  V30 3030 H 279.964 5.08866 -1.35509 0
M  V30 3031 H 282.455 3.527 -1.35687 0
M  V30 3032 H 282.768 6.96451 -3.34927 0
M  V30 3033 H 281.113 6.26638 -3.00583 0
M  V30 3034 H 284.304 4.33789 -1.7591 0
M  V30 3035 H 284.477 5.90552 -2.66745 0
M  V30 3036 N 277.883 0.443576 1.51229 0
M  V30 3037 C 278.816 -0.410089 2.24485 0
M  V30 3038 C 279.794 -1.01949 1.26669 0
M  V30 3039 O 280.978 -1.06075 1.55821 0
M  V30 3040 C 278.105 -1.57211 3.00004 0
M  V30 3041 C 277.151 -1.08279 4.12526 0
M  V30 3042 S 277.984 -0.0197476 5.35496 0
M  V30 3043 C 279.14 -1.18629 6.14555 0
M  V30 3044 H 279.373 0.211832 2.96544 0
M  V30 3045 H 276.906 0.228156 1.52705 0
M  V30 3046 H 278.864 -2.23825 3.44111 0
M  V30 3047 H 277.525 -2.16547 2.27522 0
M  V30 3048 H 276.718 -1.95193 4.64667 0
M  V30 3049 H 276.32 -0.494797 3.70713 0
M  V30 3050 H 278.612 -2.10344 6.4402 0
M  V30 3051 H 279.555 -0.70472 7.04584 0
M  V30 3052 H 279.963 -1.42768 5.46148 0
M  V30 3053 N 279.361 -1.56624 0.175154 0
M  V30 3054 C 280.61 -1.96173 -0.468921 0
M  V30 3055 C 280.923 -1.06401 -1.64128 0
M  V30 3056 O 282.129 -1.35648 -2.35185 0
M  V30 3057 C 280.585 -3.48833 -0.885633 0
M  V30 3058 C 280.193 -4.47237 0.261343 0
M  V30 3059 C 281.937 -3.97194 -1.49791 0
M  V30 3060 C 279.844 -5.9114 -0.175214 0
M  V30 3061 H 278.774 -0.732455 -0.178958 0
M  V30 3062 H 281.425 -1.81591 0.263997 0
M  V30 3063 H 279.807 -3.58848 -1.67464 0
M  V30 3064 H 280.981 -4.4894 1.03871 0
M  V30 3065 H 279.296 -4.08956 0.783827 0
M  V30 3066 H 281.893 -5.02167 -1.83665 0
M  V30 3067 H 282.236 -3.40351 -2.39722 0
M  V30 3068 H 282.769 -3.90212 -0.773267 0
M  V30 3069 H 279.508 -6.51865 0.689414 0
M  V30 3070 H 279.028 -5.92735 -0.91786 0
M  V30 3071 H 280.707 -6.44044 -0.617792 0
M  V30 3072 N 280.839 0.0985539 -1.57292 0
M  V30 3073 C 281.786 1.11981 -2.01814 0
M  V30 3074 C 282.756 1.39999 -0.89384 0
M  V30 3075 O 283.941 1.5152 -1.15958 0
M  V30 3076 C 281.081 2.43577 -2.44467 0
M  V30 3077 C 280.194 2.2232 -3.70402 0
M  V30 3078 C 279.329 3.4729 -4.01949 0
M  V30 3079 C 278.368 3.2128 -5.21005 0
M  V30 3080 N 277.505 4.38507 -5.48321 0
M  V30 3081 H 282.345 0.733149 -2.88841 0
M  V30 3082 H 279.882 0.350482 -1.42864 0
M  V30 3083 H 281.84 3.20373 -2.6724 0
M  V30 3084 H 280.47 2.80097 -1.60455 0
M  V30 3085 H 279.522 1.36343 -3.55126 0
M  V30 3086 H 280.834 1.99089 -4.57345 0
M  V30 3087 H 279.988 4.32495 -4.25479 0
M  V30 3088 H 278.727 3.73572 -3.13521 0
M  V30 3089 H 277.732 2.34468 -4.97298 0
M  V30 3090 H 278.957 2.96348 -6.11028 0
M  V30 3091 H 276.903 4.64871 -4.62851 0
M  V30 3092 H 276.82 4.18455 -6.29628 0
M  V30 3093 H 278.088 5.24787 -5.76385 0
M  V30 3094 N 282.317 1.53212 0.369288 0
M  V30 3095 C 283.728 1.60943 0.946276 0
M  V30 3096 C 284.079 0.47452 1.90375 0
M  V30 3097 O 283.204 -0.399597 2.12679 0
M  V30 3098 C 283.799 2.91715 1.72302 0
M  V30 3099 C 282.358 3.01792 2.24941 0
M  V30 3100 C 281.505 2.56211 1.06072 0
M  V30 3101 H 284.456 1.58007 0.148198 0
M  V30 3102 H 284.477 2.79309 2.58393 0
M  V30 3103 H 283.989 3.74295 1.0259 0
M  V30 3104 H 282.09 2.23791 2.97906 0
M  V30 3105 H 282.203 4.06803 2.53077 0
M  V30 3106 H 280.567 2.10998 1.4266 0
M  V30 3107 H 281.35 3.41206 0.378639 0
M  V30 3108 N 283.795 -0.628877 1.44509 0
M  V30 3109 C 285.211 -0.947305 1.28446 0
M  V30 3110 C 285.411 -2.00275 0.221872 0
M  V30 3111 O 284.467 -2.49447 -0.391471 0
M  V30 3112 C 285.78 -1.40843 2.65676 0
M  V30 3113 C 287.328 -1.52379 2.73404 0
M  V30 3114 C 287.803 -2.01875 4.11109 0
M  V30 3115 N 289.294 -2.09142 4.13296 0
M  V30 3116 C 290.029 -2.48615 5.16699 0
M  V30 3117 N 289.525 -2.87209 6.30462 0
M  V30 3118 N 291.318 -2.48768 5.04054 0
M  V30 3119 H 283.469 0.0690977 2.12288 0
M  V30 3120 H 285.732 -0.0317164 0.947469 0
M  V30 3121 H 285.438 -0.707206 3.44516 0
M  V30 3122 H 285.312 -2.37902 2.92716 0
M  V30 3123 H 287.699 -2.21598 1.9488 0
M  V30 3124 H 287.78 -0.536898 2.50102 0
M  V30 3125 H 287.424 -1.3325 4.90109 0
M  V30 3126 H 287.354 -3.0144 4.31789 0
M  V30 3127 H 289.845 -1.81991 3.31191 0
M  V30 3128 H 290.158 -3.16149 7.05174 0
M  V30 3129 H 288.503 -2.84955 6.33897 0
M  V30 3130 H 291.694 -2.18009 4.14234 0
M  V30 3131 H 291.867 -2.79207 5.84763 0
M  V30 3132 N 285.273 -1.31445 -0.869486 0
M  V30 3133 C 286.183 -1.21097 -2.0093 0
M  V30 3134 C 287.199 -0.127584 -1.73532 0
M  V30 3135 O 288.375 -0.345477 -1.98415 0
M  V30 3136 C 285.44 -0.919378 -3.34288 0
M  V30 3137 C 284.501 -2.08971 -3.75006 0
M  V30 3138 C 283.734 -1.81194 -5.02001 0
M  V30 3139 O 283.957 -0.747296 -5.65484 0
M  V30 3140 O 282.891 -2.66883 -5.39497 0
M  V30 3141 H 286.717 -2.16883 -2.12592 0
M  V30 3142 H 284.302 -1.11189 -0.997868 0
M  V30 3143 H 286.184 -0.772625 -4.14257 0
M  V30 3144 H 284.859 0.00844772 -3.23699 0
M  V30 3145 H 283.766 -2.29187 -2.95676 0
M  V30 3146 H 285.099 -2.9998 -3.90221 0
M  V30 3147 N 286.751 1.08385 -1.14413 0
M  V30 3148 C 287.999 1.80419 -0.910679 0
M  V30 3149 C 288.32 1.86658 0.564243 0
M  V30 3150 O 287.59 1.35985 1.41014 0
M  V30 3151 H 286.17 0.668204 -0.333934 0
M  V30 3152 H 288.832 1.31037 -1.44275 0
M  V30 3153 H 287.928 2.83238 -1.31082 0
M  V30 3154 N 288.23 0.939286 1.26551 0
M  V30 3155 C 289.14 0.453432 2.30176 0
M  V30 3156 C 290.156 -0.471649 1.67486 0
M  V30 3157 O 291.332 -0.35164 1.98306 0
M  V30 3158 C 288.397 -0.275326 3.45605 0
M  V30 3159 C 287.458 0.686084 4.23782 0
M  V30 3160 C 286.691 -0.00798994 5.33699 0
M  V30 3161 O 286.914 -1.22528 5.57085 0
M  V30 3162 O 285.848 0.669746 5.98162 0
M  V30 3163 H 289.674 1.31416 2.73795 0
M  V30 3164 H 287.259 0.705095 1.31715 0
M  V30 3165 H 289.141 -0.685911 4.1578 0
M  V30 3166 H 287.816 -1.11147 3.0402 0
M  V30 3167 H 286.723 1.14658 3.56096 0
M  V30 3168 H 288.056 1.48979 4.69112 0
M  V30 3169 N 289.708 -1.40897 0.706093 0
M  V30 3170 C 290.618 -2.3455 0.0482286 0
M  V30 3171 C 291.634 -1.56796 -0.754396 0
M  V30 3172 O 292.81 -1.89228 -0.689538 0
M  V30 3173 C 289.875 -3.35625 -0.869303 0
M  V30 3174 C 288.936 -4.29261 -0.0576994 0
M  V30 3175 C 288.169 -5.25508 -0.931531 0
M  V30 3176 O 288.392 -5.27472 -2.17092 0
M  V30 3177 O 287.326 -6.00727 -0.375587 0
M  V30 3178 H 291.152 -2.92407 0.820476 0
M  V30 3179 H 288.737 -1.4193 0.4665 0
M  V30 3180 H 290.619 -3.97635 -1.39514 0
M  V30 3181 H 289.294 -2.80196 -1.62086 0
M  V30 3182 H 288.201 -3.70566 0.512988 0
M  V30 3183 H 289.534 -4.87817 0.655426 0
M  V30 3184 N 291.186 -0.45159 -1.50991 0
M  V30 3185 C 292.414 0.108334 -2.06616 0
M  V30 3186 C 292.829 1.35224 -1.31757 0
M  V30 3187 O 292.186 1.78475 -0.381174 0
M  V30 3188 C 292.237 0.41619 -3.59096 0
M  V30 3189 O 291.958 -0.778361 -4.3113 0
M  V30 3190 C 293.459 1.02523 -4.31282 0
M  V30 3191 H 290.679 0.00159995 -0.670998 0
M  V30 3192 H 293.223 -0.634771 -1.94399 0
M  V30 3193 H 291.378 1.10921 -3.71181 0
M  V30 3194 H 291.792 -0.511181 -5.22003 0
M  V30 3195 H 293.266 1.19053 -5.39009 0
M  V30 3196 H 293.743 2.01013 -3.905 0
M  V30 3197 H 294.349 0.371173 -4.23677 0
M  V30 3198 N 292.664 1.56529 -0.183458 0
M  V30 3199 C 293.594 2.21549 0.737456 0
M  V30 3200 C 294.575 1.17489 1.23005 0
M  V30 3201 O 295.76 1.45959 1.281 0
M  V30 3202 C 292.89 2.86575 1.96194 0
M  V30 3203 C 291.844 3.96778 1.60473 0
M  V30 3204 C 291.17 4.48911 2.90487 0
M  V30 3205 C 292.47 5.15767 0.823497 0
M  V30 3206 H 294.164 2.98761 0.195453 0
M  V30 3207 H 291.71 1.43702 0.0925686 0
M  V30 3208 H 293.663 3.30739 2.61131 0
M  V30 3209 H 292.387 2.06749 2.52828 0
M  V30 3210 H 291.046 3.53286 0.978997 0
M  V30 3211 H 290.694 3.65862 3.45186 0
M  V30 3212 H 290.394 5.23265 2.67335 0
M  V30 3213 H 291.918 4.95771 3.56432 0
M  V30 3214 H 293.332 5.56549 1.37571 0
M  V30 3215 H 291.729 5.96114 0.690551 0
M  V30 3216 H 292.799 4.84574 -0.177782 0
M  V30 3217 N 294.142 -0.090211 1.57342 0
M  V30 3218 C 295.558 -0.444547 1.53284 0
M  V30 3219 C 295.758 -1.80238 0.900914 0
M  V30 3220 O 294.814 -2.4759 0.495513 0
M  V30 3221 C 296.127 -0.402543 2.97993 0
M  V30 3222 C 297.675 -0.48405 3.09234 0
M  V30 3223 C 298.15 -0.472144 4.5556 0
M  V30 3224 N 299.641 -0.532757 4.60126 0
M  V30 3225 C 300.376 -0.545462 5.708 0
M  V30 3226 N 299.872 -0.514082 6.9089 0
M  V30 3227 N 301.665 -0.59064 5.58988 0
M  V30 3228 H 293.816 0.799121 1.96794 0
M  V30 3229 H 296.079 0.297965 0.899956 0
M  V30 3230 H 295.785 0.528106 3.47712 0
M  V30 3231 H 295.659 -1.21969 3.56936 0
M  V30 3232 H 298.046 -1.40512 2.595 0
M  V30 3233 H 298.127 0.361328 2.53235 0
M  V30 3234 H 297.771 0.445 5.05947 0
M  V30 3235 H 297.701 -1.3348 5.09402 0
M  V30 3236 H 300.192 -0.562006 3.73698 0
M  V30 3237 H 300.505 -0.527195 7.71 0
M  V30 3238 H 298.85 -0.481054 6.93333 0
M  V30 3239 H 302.041 -0.61272 4.64073 0
M  V30 3240 H 302.214 -0.597073 6.45243 0
M  V30 3241 N 295.62 -1.53406 -0.361157 0
M  V30 3242 C 296.869 -1.69022 -1.10066 0
M  V30 3243 C 297.182 -0.450838 -1.90333 0
M  V30 3244 O 298.388 -0.487617 -2.67085 0
M  V30 3245 C 296.844 -2.98812 -2.00598 0
M  V30 3246 C 296.452 -4.30027 -1.25621 0
M  V30 3247 C 298.196 -3.23795 -2.74513 0
M  V30 3248 C 296.103 -5.50903 -2.1508 0
M  V30 3249 H 295.033 -0.629776 -0.414606 0
M  V30 3250 H 297.684 -1.79907 -0.361348 0
M  V30 3251 H 296.066 -2.8174 -2.78278 0
M  V30 3252 H 297.24 -4.57745 -0.529739 0
M  V30 3253 H 295.555 -4.11522 -0.635496 0
M  V30 3254 H 298.152 -4.11289 -3.41681 0
M  V30 3255 H 298.495 -2.40045 -3.40123 0
M  V30 3256 H 299.028 -3.41561 -2.03914 0
M  V30 3257 H 295.767 -6.37143 -1.54041 0
M  V30 3258 H 295.287 -5.27459 -2.85565 0
M  V30 3259 H 296.966 -5.85865 -2.74538 0
M  V30 3260 N 297.098 0.621204 -1.44841 0
M  V30 3261 C 298.008 1.7612 -1.5498 0
M  V30 3262 C 299.024 1.68477 -0.434927 0
M  V30 3263 O 300.2 1.89076 -0.693693 0
M  V30 3264 C 297.265 3.1254 -1.50065 0
M  V30 3265 C 296.326 3.31741 -2.72482 0
M  V30 3266 C 295.559 4.61653 -2.67792 0
M  V30 3267 O 295.782 5.431 -1.74352 0
M  V30 3268 O 294.716 4.83271 -3.58794 0
M  V30 3269 H 298.542 1.70518 -2.51311 0
M  V30 3270 H 296.127 0.783643 -1.27198 0
M  V30 3271 H 298.009 3.93844 -1.49882 0
M  V30 3272 H 296.684 3.18663 -0.568806 0
M  V30 3273 H 295.591 2.50077 -2.7823 0
M  V30 3274 H 296.924 3.30486 -3.64746 0
M  V30 3275 N 298.576 1.31904 0.862503 0
M  V30 3276 C 299.853 1.12644 1.59908 0
M  V30 3277 C 300.233 -0.316104 2.0872 0
M  V30 3278 O 299.581 -1.31145 1.87118 0
M  V30 3279 C 299.791 2.1472 2.7513 0
M  V30 3280 C 301.139 2.47637 3.44907 0
M  V30 3281 O 302.163 2.13205 2.85346 0
M  V30 3282 O 301.022 3.06632 4.52371 0
M  V30 3283 H 298.116 0.43416 0.703871 0
M  V30 3284 H 300.662 1.43408 0.907314 0
M  V30 3285 H 299.434 3.1172 2.3653 0
M  V30 3286 H 299.057 1.84905 3.51989 0
M  V30 3287 N 300.054 -1.07777 1.14986 0
M  V30 3288 C 301.303 -1.79669 0.916617 0
M  V30 3289 C 301.616 -1.87474 -0.557917 0
M  V30 3290 O 302.822 -2.55845 -0.908617 0
M  V30 3291 C 301.278 -3.22848 1.59051 0
M  V30 3292 C 300.886 -3.23257 3.10176 0
M  V30 3293 C 302.63 -3.99379 1.43864 0
M  V30 3294 C 300.537 -4.61063 3.70372 0
M  V30 3295 H 299.467 -0.673349 0.33929 0
M  V30 3296 H 302.118 -1.21003 1.37951 0
M  V30 3297 H 300.5 -3.8168 1.0553 0
M  V30 3298 H 301.674 -2.74095 3.70417 0
M  V30 3299 H 299.989 -2.60222 3.25074 0
M  V30 3300 H 302.586 -5.0122 1.86232 0
M  V30 3301 H 302.929 -4.14511 0.385564 0
M  V30 3302 H 303.462 -3.47032 1.94457 0
M  V30 3303 H 300.201 -4.51135 4.7556 0
M  V30 3304 H 299.721 -5.1048 3.14913 0
M  V30 3305 H 301.4 -5.30034 3.71043 0
M  V30 3306 N 301.532 -0.945985 -1.26051 0
M  V30 3307 C 302.462 -0.477172 -2.28572 0
M  V30 3308 C 303.443 0.472032 -1.63419 0
M  V30 3309 O 304.628 0.372853 -1.90587 0
M  V30 3310 C 301.758 0.253975 -3.4637 0
M  V30 3311 C 300.712 -0.609135 -4.23643 0
M  V30 3312 C 300.038 0.252252 -5.34105 0
M  V30 3313 C 301.338 -1.8829 -4.8718 0
M  V30 3314 H 303.032 -1.33402 -2.68038 0
M  V30 3315 H 300.578 -0.642904 -1.28852 0
M  V30 3316 H 302.531 0.593016 -4.17207 0
M  V30 3317 H 301.255 1.145 -3.05871 0
M  V30 3318 H 299.914 -0.931138 -3.54578 0
M  V30 3319 H 299.562 1.14278 -4.89846 0
M  V30 3320 H 299.262 -0.32188 -5.86718 0
M  V30 3321 H 300.786 0.586454 -6.07777 0
M  V30 3322 H 302.2 -1.61081 -5.50205 0
M  V30 3323 H 300.597 -2.40199 -5.49931 0
M  V30 3324 H 301.667 -2.59134 -4.09851 0
M  V30 3325 N 303.011 1.40521 -0.713556 0
M  V30 3326 C 303.921 2.34522 -0.0606667 0
M  V30 3327 C 304.937 1.57193 0.74607 0
M  V30 3328 O 306.113 1.89591 0.679493 0
M  V30 3329 C 303.178 3.36081 0.851491 0
M  V30 3330 C 302.239 4.29286 0.0349339 0
M  V30 3331 C 301.472 5.25994 0.903649 0
M  V30 3332 O 301.695 5.28616 2.14292 0
M  V30 3333 O 300.629 6.00918 0.343723 0
M  V30 3334 H 304.455 2.91968 -0.835972 0
M  V30 3335 H 302.04 1.41681 -0.47402 0
M  V30 3336 H 303.922 3.98369 1.37404 0
M  V30 3337 H 302.597 2.81052 1.60598 0
M  V30 3338 H 301.504 3.70289 -0.532633 0
M  V30 3339 H 302.837 4.87462 -0.681287 0
M  V30 3340 N 304.489 0.459591 1.5075 0
M  V30 3341 C 305.735 -0.0994966 2.02556 0
M  V30 3342 C 306.068 -1.40399 1.3417 0
M  V30 3343 O 305.343 -1.88892 0.463683 0
M  V30 3344 C 305.626 -0.295242 3.58888 0
M  V30 3345 C 305.479 1.02947 4.37861 0
M  V30 3346 C 306.798 -1.05502 4.27267 0
M  V30 3347 H 303.917 -0.034686 0.736183 0
M  V30 3348 H 306.559 0.602938 1.8018 0
M  V30 3349 H 304.709 -0.893563 3.78084 0
M  V30 3350 H 306.381 1.66348 4.30263 0
M  V30 3351 H 304.624 1.62885 4.02058 0
M  V30 3352 H 305.295 0.846281 5.45474 0
M  V30 3353 H 307.771 -0.547993 4.12476 0
M  V30 3354 H 306.647 -1.16077 5.36486 0
M  V30 3355 H 306.908 -2.08875 3.89645 0
M  V30 3356 N 305.967 -1.56429 0.191757 0
M  V30 3357 C 307.216 -1.9666 -0.448088 0
M  V30 3358 C 307.529 -1.08136 -1.62991 0
M  V30 3359 O 308.735 -1.38135 -2.33733 0
M  V30 3360 C 307.191 -3.49753 -0.848585 0
M  V30 3361 C 306.799 -4.46935 0.308764 0
M  V30 3362 C 308.543 -3.9876 -1.4557 0
M  V30 3363 C 306.45 -5.91293 -0.112506 0
M  V30 3364 H 305.38 -0.734312 -0.171179 0
M  V30 3365 H 308.031 -1.81301 0.283242 0
M  V30 3366 H 306.413 -3.60604 -1.63649 0
M  V30 3367 H 307.587 -4.47813 1.08627 0
M  V30 3368 H 305.902 -4.08102 0.827158 0
M  V30 3369 H 308.499 -5.04086 -1.78328 0
M  V30 3370 H 308.842 -3.42875 -2.36099 0
M  V30 3371 H 309.375 -3.9101 -0.731836 0
M  V30 3372 H 306.114 -6.51097 0.758514 0
M  V30 3373 H 305.634 -5.93676 -0.854941 0
M  V30 3374 H 307.313 -6.44663 -0.549448 0
M  V30 3375 N 307.445 0.0818655 -1.57387 0
M  V30 3376 C 308.355 1.11642 -2.06333 0
M  V30 3377 C 309.371 1.43033 -0.99083 0
M  V30 3378 O 310.547 1.53411 -1.30488 0
M  V30 3379 C 307.612 2.41342 -2.48907 0
M  V30 3380 C 306.673 2.17014 -3.7041 0
M  V30 3381 C 305.906 3.4053 -4.10944 0
M  V30 3382 O 306.129 4.4927 -3.51444 0
M  V30 3383 O 305.063 3.29336 -5.03807 0
M  V30 3384 H 308.889 0.730657 -2.9478 0
M  V30 3385 H 306.474 0.295301 -1.46452 0
M  V30 3386 H 308.356 3.17691 -2.76858 0
M  V30 3387 H 307.031 2.79319 -1.63593 0
M  V30 3388 H 305.938 1.38403 -3.47556 0
M  V30 3389 H 307.271 1.83923 -4.56545 0
M  V30 3390 N 308.923 1.53595 0.353017 0
M  V30 3391 C 309.87 1.80919 1.43308 0
M  V30 3392 C 310.84 0.654288 1.5267 0
M  V30 3393 O 312.025 0.897759 1.6836 0
M  V30 3394 C 309.165 2.01605 2.80089 0
M  V30 3395 C 308.278 3.29321 2.79593 0
M  V30 3396 C 307.413 3.40125 4.0803 0
M  V30 3397 C 306.452 4.61826 4.01725 0
M  V30 3398 N 305.589 4.69716 5.21834 0
M  V30 3399 H 310.429 2.73074 1.19308 0
M  V30 3400 H 307.966 1.35263 0.578131 0
M  V30 3401 H 309.924 2.11586 3.59565 0
M  V30 3402 H 308.554 1.12772 3.0246 0
M  V30 3403 H 307.606 3.28229 1.92276 0
M  V30 3404 H 308.918 4.18884 2.70809 0
M  V30 3405 H 308.072 3.49488 4.95927 0
M  V30 3406 H 306.811 2.48601 4.19582 0
M  V30 3407 H 305.816 4.52552 3.12213 0
M  V30 3408 H 307.041 5.54705 3.91764 0
M  V30 3409 H 304.987 3.81097 5.33948 0
M  V30 3410 H 304.904 5.53202 5.1527 0
M  V30 3411 H 306.172 4.83376 6.11529 0
M  V30 3412 N 310.401 -0.613514 1.45168 0
M  V30 3413 C 311.311 -1.75296 1.55912 0
M  V30 3414 C 312.327 -1.68244 0.443856 0
M  V30 3415 O 313.503 -1.88706 0.70371 0
M  V30 3416 C 310.568 -3.1174 1.5172 0
M  V30 3417 C 309.629 -3.30291 2.74238 0
M  V30 3418 C 308.862 -4.60226 2.70236 0
M  V30 3419 O 309.085 -5.42168 1.77229 0
M  V30 3420 O 308.019 -4.81361 3.61352 0
M  V30 3421 H 311.845 -1.69183 2.52212 0
M  V30 3422 H 309.43 -0.776886 1.27612 0
M  V30 3423 H 311.312 -3.93044 1.51968 0
M  V30 3424 H 309.987 -3.18357 0.585697 0
M  V30 3425 H 308.894 -2.48598 2.79553 0
M  V30 3426 H 310.227 -3.28547 3.66494 0
M  V30 3427 N 311.879 -1.3236 -0.855495 0
M  V30 3428 C 313.127 -1.22629 -1.60644 0
M  V30 3429 C 313.448 0.212136 -1.93843 0
M  V30 3430 O 312.718 1.13666 -1.59552 0
M  V30 3431 H 311.298 -0.450882 -0.595579 0
M  V30 3432 H 313.96 -1.65871 -1.02337 0
M  V30 3433 H 313.056 -1.80832 -2.54374 0
M  V30 3434 N 313.357 1.07166 -1.15556 0
M  V30 3435 C 314.634 1.76546 -0.842069 0
M  V30 3436 C 315.014 2.00453 0.661939 0
M  V30 3437 O 314.362 1.62452 1.60691 0
M  V30 3438 C 314.572 3.07266 -1.65495 0
M  V30 3439 C 315.92 3.81578 -1.86234 0
M  V30 3440 O 316.944 3.17083 -1.62287 0
M  V30 3441 O 315.803 4.97419 -2.26355 0
M  V30 3442 H 312.897 0.766756 -0.309862 0
M  V30 3443 H 315.443 1.13514 -1.26145 0
M  V30 3444 H 314.215 2.85494 -2.67598 0
M  V30 3445 H 313.838 3.7803 -1.23203 0
M  V30 3446 N 314.835 0.952656 1.25548 0
M  V30 3447 C 316.06 0.623025 1.97821 0
M  V30 3448 C 316.485 -0.7976 1.70352 0
M  V30 3449 O 315.843 -1.53905 0.958283 0
M  V30 3450 C 315.891 0.885532 3.49558 0
M  V30 3451 O 314.995 -0.0366641 4.12384 0
M  V30 3452 H 314.336 0.237082 0.620232 0
M  V30 3453 H 316.866 1.27871 1.59719 0
M  V30 3454 H 316.876 0.811009 3.99858 0
M  V30 3455 H 315.551 1.92094 3.6888 0
M  V30 3456 H 314.128 0.0898954 3.72792 0
M  V30 3457 N 316.313 -1.40141 0.720998 0
M  V30 3458 C 317.562 -2.0002 0.259804 0
M  V30 3459 C 317.875 -1.57839 -1.15526 0
M  V30 3460 O 319.081 -2.10455 -1.71525 0
M  V30 3461 C 317.537 -3.57516 0.413566 0
M  V30 3462 C 317.145 -4.08667 1.83562 0
M  V30 3463 C 318.889 -4.24498 0.0134387 0
M  V30 3464 C 316.796 -5.58686 1.93968 0
M  V30 3465 H 315.726 -0.748195 0.0933806 0
M  V30 3466 H 318.377 -1.60313 0.892866 0
M  V30 3467 H 316.759 -3.9495 -0.288169 0
M  V30 3468 H 317.933 -3.82598 2.56817 0
M  V30 3469 H 316.248 -3.543 2.1877 0
M  V30 3470 H 318.845 -5.34654 0.0703954 0
M  V30 3471 H 319.188 -4.03375 -1.02927 0
M  V30 3472 H 319.721 -3.92188 0.665815 0
M  V30 3473 H 316.46 -5.8467 2.96379 0
M  V30 3474 H 315.98 -5.86602 1.25131 0
M  V30 3475 H 317.659 -6.23875 1.71431 0
M  V30 3476 N 317.792 -0.46758 -1.50504 0
M  V30 3477 C 318.755 0.317059 -2.26996 0
M  V30 3478 C 319.755 0.923513 -1.31635 0
M  V30 3479 O 320.945 0.793239 -1.55091 0
M  V30 3480 C 318.077 1.45134 -3.08462 0
M  V30 3481 H 319.27 -0.353723 -2.97807 0
M  V30 3482 H 316.823 -0.221545 -1.54722 0
M  V30 3483 H 317.558 2.15728 -2.4214 0
M  V30 3484 H 317.343 1.02232 -3.78538 0
M  V30 3485 H 318.833 2.00493 -3.66323 0
M  V30 3486 N 319.27 1.56325 -0.20005 0
M  V30 3487 C 320.516 1.98012 0.438059 0
M  V30 3488 C 320.849 1.08702 1.60927 0
M  V30 3489 O 320.124 0.140064 1.93995 0
M  V30 3490 C 320.407 3.48841 0.893419 0
M  V30 3491 C 320.26 4.48928 -0.279947 0
M  V30 3492 C 321.579 4.03498 1.75719 0
M  V30 3493 H 318.698 0.719918 0.157757 0
M  V30 3494 H 321.34 1.87743 -0.291968 0
M  V30 3495 H 319.49 3.57723 1.51547 0
M  V30 3496 H 321.162 4.52079 -0.91772 0
M  V30 3497 H 319.405 4.23694 -0.930919 0
M  V30 3498 H 320.076 5.5194 0.0812601 0
M  V30 3499 H 322.552 3.97427 1.23253 0
M  V30 3500 H 321.428 5.09393 2.04476 0
M  V30 3501 H 321.689 3.4906 2.71311 0
M  V30 3502 N 320.748 -0.0735177 1.57428 0
M  V30 3503 C 321.997 -0.771809 1.86349 0
M  V30 3504 C 322.31 -1.78828 0.792452 0
M  V30 3505 O 323.516 -2.53602 0.96945 0
M  V30 3506 C 321.972 -1.42358 3.30548 0
M  V30 3507 C 321.58 -0.445761 4.45777 0
M  V30 3508 C 323.324 -2.10434 3.6867 0
M  V30 3509 C 321.231 -1.10335 5.81016 0
M  V30 3510 H 320.161 -0.291999 0.695164 0
M  V30 3511 H 322.812 -0.0250749 1.83483 0
M  V30 3512 H 321.194 -2.21852 3.28021 0
M  V30 3513 H 322.368 0.319239 4.59693 0
M  V30 3514 H 320.683 0.130457 4.16196 0
M  V30 3515 H 323.28 -2.60405 4.67004 0
M  V30 3516 H 323.623 -2.90298 2.98383 0
M  V30 3517 H 324.156 -1.37773 3.7318 0
M  V30 3518 H 320.895 -0.345061 6.54591 0
M  V30 3519 H 320.415 -1.83925 5.70904 0
M  V30 3520 H 322.094 -1.62367 6.26295 0
M  V30 3521 N 322.226 -1.5378 -0.344866 0
M  V30 3522 C 323.156 -1.84662 -1.42906 0
M  V30 3523 C 324.137 -0.701648 -1.54955 0
M  V30 3524 O 325.322 -0.953438 -1.69184 0
M  V30 3525 C 322.452 -2.05503 -2.79974 0
M  V30 3526 C 321.406 -3.21318 -2.82734 0
M  V30 3527 C 320.732 -3.2749 -4.22675 0
M  V30 3528 C 322.032 -4.59456 -2.48389 0
M  V30 3529 H 323.726 -2.75461 -1.17311 0
M  V30 3530 H 321.272 -1.32542 -0.562896 0
M  V30 3531 H 323.225 -2.25691 -3.55867 0
M  V30 3532 H 321.949 -1.11434 -3.07002 0
M  V30 3533 H 320.608 -3.00984 -2.09294 0
M  V30 3534 H 320.256 -2.31019 -4.4681 0
M  V30 3535 H 319.956 -4.05316 -4.25433 0
M  V30 3536 H 321.48 -3.49887 -5.00412 0
M  V30 3537 H 322.894 -4.79667 -3.13995 0
M  V30 3538 H 321.291 -5.39675 -2.62432 0
M  V30 3539 H 322.361 -4.63155 -1.4358 0
M  V30 3540 N 323.704 0.605807 -1.45491 0
M  V30 3541 C 324.951 1.36476 -1.49601 0
M  V30 3542 C 325.279 1.94007 -0.138452 0
M  V30 3543 O 324.534 1.75638 0.863114 0
M  V30 3544 C 324.833 2.53012 -2.52428 0
M  V30 3545 C 324.499 2.13617 -3.97087 0
M  V30 3546 C 323.161 2.02587 -4.36477 0
M  V30 3547 C 325.513 1.82899 -4.88055 0
M  V30 3548 C 322.841 1.59064 -5.64726 0
M  V30 3549 C 325.193 1.40861 -6.16718 0
M  V30 3550 C 323.857 1.28391 -6.55036 0
M  V30 3551 H 323.127 0.499402 -0.547429 0
M  V30 3552 H 325.774 0.684546 -1.78847 0
M  V30 3553 H 324.079 3.26379 -2.16758 0
M  V30 3554 H 325.776 3.1124 -2.52845 0
M  V30 3555 H 322.366 2.23129 -3.65939 0
M  V30 3556 H 326.55 1.90317 -4.58359 0
M  V30 3557 H 321.806 1.48034 -5.93208 0
M  V30 3558 H 325.98 1.16138 -6.86648 0
M  V30 3559 H 323.607 0.944403 -7.54311 0
M  V30 3560 N 325.182 1.32811 0.848464 0
M  V30 3561 C 326.407 1.26882 1.6406 0
M  V30 3562 C 326.832 -0.15913 1.87426 0
M  V30 3563 O 326.19 -1.11258 1.43148 0
M  V30 3564 C 326.238 2.03997 2.97351 0
M  V30 3565 O 325.342 1.39201 3.88197 0
M  V30 3566 H 324.683 0.436982 0.499943 0
M  V30 3567 H 327.213 1.75224 1.0563 0
M  V30 3568 H 327.223 2.14403 3.47124 0
M  V30 3569 H 325.898 3.0783 2.79666 0
M  V30 3570 H 324.475 1.37381 3.46671 0
M  V30 3571 N 326.66 -1.06551 1.16123 0
M  V30 3572 C 327.908 -1.78947 0.939267 0
M  V30 3573 C 328.229 -1.87532 -0.534476 0
M  V30 3574 O 327.499 -1.38211 -1.38833 0
M  V30 3575 H 326.079 -0.662807 0.344523 0
M  V30 3576 H 328.741 -1.28725 1.46342 0
M  V30 3577 H 327.837 -2.81117 1.35572 0
M  V30 3578 N 328.138 -0.959301 -1.25041 0
M  V30 3579 C 329.384 -0.617525 -1.9317 0
M  V30 3580 C 329.717 0.843981 -1.74902 0
M  V30 3581 O 328.992 1.60615 -1.09696 0
M  V30 3582 C 329.275 -0.982736 -3.46431 0
M  V30 3583 C 329.128 -2.50032 -3.73904 0
M  V30 3584 C 330.447 -0.511176 -4.37121 0
M  V30 3585 H 327.566 -0.22582 -0.701552 0
M  V30 3586 H 330.208 -1.19679 -1.4757 0
M  V30 3587 H 328.358 -0.489806 -3.854 0
M  V30 3588 H 330.03 -3.06737 -3.44544 0
M  V30 3589 H 328.273 -2.93598 -3.19348 0
M  V30 3590 H 328.944 -2.70635 -4.81103 0
M  V30 3591 H 331.42 -0.934075 -4.0548 0
M  V30 3592 H 330.296 -0.795361 -5.43107 0
M  V30 3593 H 330.557 0.588834 -4.38161 0
M  V30 3594 N 329.616 1.39756 -0.72842 0
M  V30 3595 C 330.566 2.2792 -0.0603424 0
M  V30 3596 C 331.55 1.43922 0.719399 0
M  V30 3597 O 332.742 1.66895 0.589489 0
M  V30 3598 C 329.871 3.32582 0.851104 0
M  V30 3599 C 328.957 4.24049 0.0658641 0
M  V30 3600 N 329.348 4.96653 -0.957578 0
M  V30 3601 C 327.646 4.45013 0.296509 0
M  V30 3602 C 328.347 5.63836 -1.43052 0
M  V30 3603 N 327.323 5.38397 -0.750315 0
M  V30 3604 H 331.125 2.81504 -0.84455 0
M  V30 3605 H 328.639 1.5236 -0.562155 0
M  V30 3606 H 330.636 3.94603 1.34514 0
M  V30 3607 H 329.296 2.80558 1.63454 0
M  V30 3608 H 330.307 5.00297 -1.33877 0
M  V30 3609 H 326.984 4.03943 1.05527 0
M  V30 3610 H 328.374 6.31974 -2.28163 0
M  V30 3611 N 331.094 0.475555 1.50254 0
M  V30 3612 C 332.341 -0.0778919 2.0235 0
M  V30 3613 C 332.669 -1.39319 1.35722 0
M  V30 3614 O 331.924 -1.89888 0.473395 0
M  V30 3615 C 332.223 -0.305114 3.56095 0
M  V30 3616 C 331.889 0.92903 4.41225 0
M  V30 3617 C 330.551 1.26739 4.6421 0
M  V30 3618 C 332.903 1.75054 4.90923 0
M  V30 3619 C 330.231 2.42724 5.34137 0
M  V30 3620 C 332.583 2.9017 5.62125 0
M  V30 3621 C 331.247 3.24416 5.83362 0
M  V30 3622 H 330.517 -0.0285027 0.740452 0
M  V30 3623 H 333.164 0.630543 1.80821 0
M  V30 3624 H 331.469 -1.09584 3.76163 0
M  V30 3625 H 333.166 -0.747377 3.93974 0
M  V30 3626 H 329.756 0.655428 4.23559 0
M  V30 3627 H 333.94 1.50231 4.73016 0
M  V30 3628 H 329.196 2.69525 5.48786 0
M  V30 3629 H 333.37 3.54169 5.99614 0
M  V30 3630 H 330.997 4.14396 6.37323 0
M  V30 3631 N 332.573 -1.56217 0.208337 0
M  V30 3632 C 333.803 -2.02043 -0.431523 0
M  V30 3633 C 334.211 -1.08755 -1.54819 0
M  V30 3634 O 333.554 -0.0870009 -1.83494 0
M  V30 3635 C 333.616 -3.44239 -1.03633 0
M  V30 3636 C 333.28 -4.56965 -0.0567502 0
M  V30 3637 C 334.277 -5.14624 0.738773 0
M  V30 3638 C 331.962 -5.02266 0.0581736 0
M  V30 3639 C 333.956 -6.16045 1.63605 0
M  V30 3640 C 331.643 -6.03528 0.959001 0
M  V30 3641 C 332.641 -6.60293 1.7465 0
M  V30 3642 O 332.329 -7.59586 2.6322 0
M  V30 3643 H 332.061 -0.666772 -0.111313 0
M  V30 3644 H 334.615 -2.02919 0.318277 0
M  V30 3645 H 332.845 -3.40391 -1.83497 0
M  V30 3646 H 334.534 -3.73793 -1.58221 0
M  V30 3647 H 335.3 -4.80483 0.660364 0
M  V30 3648 H 331.179 -4.57771 -0.544633 0
M  V30 3649 H 334.723 -6.60279 2.25116 0
M  V30 3650 H 330.62 -6.37092 1.03848 0
M  V30 3651 H 331.388 -7.77057 2.57148 0
M  V30 3652 N 334.051 0.0651679 -1.57465 0
M  V30 3653 C 335.279 0.775808 -1.91804 0
M  V30 3654 C 335.694 1.70782 -0.804916 0
M  V30 3655 O 335.051 1.81153 0.221311 0
M  V30 3656 C 335.102 1.56381 -3.25925 0
M  V30 3657 O 334.823 0.669248 -4.32958 0
M  V30 3658 C 336.324 2.37485 -3.7432 0
M  V30 3659 H 333.544 0.2202 -0.63384 0
M  V30 3660 H 336.088 0.0334587 -2.04473 0
M  V30 3661 H 334.243 2.25837 -3.14764 0
M  V30 3662 H 334.657 1.21801 -5.10162 0
M  V30 3663 H 336.131 2.88223 -4.70778 0
M  V30 3664 H 336.608 3.17307 -3.03666 0
M  V30 3665 H 337.214 1.73173 -3.88447 0
M  V30 3666 N 335.529 1.53961 0.336706 0
M  V30 3667 C 336.777 1.71197 1.07405 0
M  V30 3668 C 337.098 0.481475 1.88962 0
M  V30 3669 O 336.368 -0.504585 1.8929 0
M  V30 3670 H 334.948 0.631185 0.399517 0
M  V30 3671 H 337.61 1.91232 0.376323 0
M  V30 3672 H 336.706 2.58587 1.74755 0
M  V30 3673 N 337.007 -0.598083 1.45811 0
M  V30 3674 C 337.939 -1.72231 1.51225 0
M  V30 3675 C 338.952 -1.57757 0.402059 0
M  V30 3676 O 340.141 -1.65464 0.669624 0
M  V30 3677 C 337.241 -3.10331 1.3619 0
M  V30 3678 C 336.414 -3.50955 2.61054 0
M  V30 3679 C 335.473 -4.68055 2.40439 0
M  V30 3680 O 334.499 -4.74691 3.14097 0
M  V30 3681 N 335.701 -5.61941 1.45612 0
M  V30 3682 H 338.466 -1.68046 2.48154 0
M  V30 3683 H 336.027 -0.783637 1.41671 0
M  V30 3684 H 338.019 -3.86439 1.20195 0
M  V30 3685 H 336.589 -3.0897 0.475015 0
M  V30 3686 H 335.809 -2.64711 2.92099 0
M  V30 3687 H 337.097 -3.74858 3.44034 0
M  V30 3688 H 336.495 -5.59301 0.848431 0
M  V30 3689 H 335.052 -6.37542 1.35585 0
M  V30 3690 N 338.485 -1.33259 -0.841409 0
M  V30 3691 C 339.435 -1.19872 -1.93945 0
M  V30 3692 C 340.419 -0.102269 -1.60575 0
M  V30 3693 O 341.611 -0.330114 -1.73894 0
M  V30 3694 C 338.74 -0.937517 -3.30251 0
M  V30 3695 C 337.826 -2.07629 -3.69799 0
M  V30 3696 N 338.217 -3.32604 -3.81062 0
M  V30 3697 C 336.515 -1.98242 -3.9952 0
M  V30 3698 C 337.216 -4.07275 -4.15333 0
M  V30 3699 N 336.192 -3.35691 -4.27566 0
M  V30 3700 H 339.994 -2.14604 -2.00805 0
M  V30 3701 H 337.508 -1.2523 -1.03398 0
M  V30 3702 H 339.505 -0.822545 -4.08705 0
M  V30 3703 H 338.165 0.00128798 -3.247 0
M  V30 3704 H 339.176 -3.67382 -3.65035 0
M  V30 3705 H 335.853 -1.12005 -4.02195 0
M  V30 3706 H 337.243 -5.1511 -4.31406 0
M  V30 3707 N 339.963 1.05934 -1.16686 0
M  V30 3708 C 341.21 1.788 -0.950622 0
M  V30 3709 C 341.538 1.87384 0.521305 0
M  V30 3710 O 340.793 1.36438 1.40297 0
M  V30 3711 C 341.092 3.23105 -1.52767 0
M  V30 3712 C 340.758 3.34594 -3.02254 0
M  V30 3713 C 339.42 3.37437 -3.43059 0
M  V30 3714 C 341.772 3.36219 -3.98254 0
M  V30 3715 C 339.1 3.39525 -4.78477 0
M  V30 3716 C 341.452 3.39845 -5.33562 0
M  V30 3717 C 340.116 3.40971 -5.73842 0
M  V30 3718 H 339.386 0.654275 -0.347857 0
M  V30 3719 H 342.033 1.24555 -1.45459 0
M  V30 3720 H 340.338 3.80227 -0.94524 0
M  V30 3721 H 342.035 3.7809 -1.336 0
M  V30 3722 H 338.625 3.3309 -2.6972 0
M  V30 3723 H 342.809 3.33231 -3.67792 0
M  V30 3724 H 338.065 3.38703 -5.09009 0
M  V30 3725 H 342.239 3.4005 -6.07733 0
M  V30 3726 H 339.866 3.42342 -6.78753 0
M  V30 3727 N 341.441 0.965919 1.2453 0
M  V30 3728 C 342.389 0.486506 2.27455 0
M  V30 3729 C 343.383 -0.449041 1.6334 0
M  V30 3730 O 344.589 -0.324527 1.7705 0
M  V30 3731 H 340.964 0.138857 0.739069 0
M  V30 3732 H 342.935 1.3666 2.65267 0
M  V30 3733 C 341.684 -0.209481 3.47068 0
M  V30 3734 H 341.007 0.50129 3.96645 0
M  V30 3735 H 342.447 -0.508775 4.20936 0
M  V30 3736 C 340.906 -1.43586 3.0477 0
M  V30 3737 O 341.436 -2.53299 3.11773 0
M  V30 3738 N 339.642 -1.30126 2.59838 0
M  V30 3739 H 339.189 -0.408583 2.54339 0
M  V30 3740 H 339.147 -2.12294 2.31902 0
M  V30 3741 N 342.919 -1.39368 0.735821 0
M  V30 3742 C 344.168 -1.99733 0.281004 0
M  V30 3743 C 344.481 -1.59055 -1.13846 0
M  V30 3744 O 345.687 -2.12262 -1.69284 0
M  V30 3745 C 344.143 -3.57057 0.451462 0
M  V30 3746 C 343.751 -4.06697 1.87886 0
M  V30 3747 C 345.495 -4.2446 0.0584616 0
M  V30 3748 C 343.402 -5.56598 1.99883 0
M  V30 3749 H 342.332 -0.747163 0.101311 0
M  V30 3750 H 344.983 -1.59357 0.909819 0
M  V30 3751 H 343.365 -3.95234 -0.246263 0
M  V30 3752 H 344.539 -3.79853 2.60861 0
M  V30 3753 H 342.854 -3.5196 2.22515 0
M  V30 3754 H 345.451 -5.34549 0.127099 0
M  V30 3755 H 345.794 -4.04444 -0.986433 0
M  V30 3756 H 346.327 -3.9146 0.707374 0
M  V30 3757 H 343.066 -5.81494 3.02564 0
M  V30 3758 H 342.586 -5.85242 1.31346 0
M  V30 3759 H 344.265 -6.22022 1.78039 0
M  V30 3760 N 344.397 -0.483516 -1.5 0
M  V30 3761 C 345.808 -0.0314176 -1.86674 0
M  V30 3762 C 346.159 1.37728 -1.39733 0
M  V30 3763 O 345.284 2.02327 -0.767635 0
M  V30 3764 C 345.879 -0.0502376 -3.38763 0
M  V30 3765 C 344.438 0.346442 -3.74802 0
M  V30 3766 C 343.585 -0.430366 -2.7394 0
M  V30 3767 H 346.536 -0.697182 -1.42566 0
M  V30 3768 H 346.557 0.749116 -3.73053 0
M  V30 3769 H 346.069 -1.07563 -3.72897 0
M  V30 3770 H 344.17 1.37572 -3.46273 0
M  V30 3771 H 344.283 0.0391486 -4.79084 0
M  V30 3772 H 342.647 0.117557 -2.54429 0
M  V30 3773 H 343.43 -1.4555 -3.10918 0
M  V30 3774 N 345.875 1.56104 -0.216619 0
M  V30 3775 C 346.838 2.18819 0.681962 0
M  V30 3776 C 347.838 1.14866 1.12528 0
M  V30 3777 O 349.028 1.40128 1.03488 0
M  V30 3778 C 346.16 2.80756 1.93362 0
M  V30 3779 H 347.353 2.99595 0.135254 0
M  V30 3780 H 344.906 1.56265 0.0330003 0
M  V30 3781 H 345.641 2.03837 2.52232 0
M  V30 3782 H 345.426 3.56876 1.62426 0
M  V30 3783 H 346.916 3.28844 2.57393 0
M  V30 3784 N 347.353 -0.0568162 1.57498 0
M  V30 3785 C 348.602 -0.752001 1.87157 0
M  V30 3786 C 348.915 -1.77978 0.811375 0
M  V30 3787 O 350.121 -2.52559 0.996293 0
M  V30 3788 C 348.577 -1.38844 3.3204 0
M  V30 3789 C 348.185 -0.398456 4.46225 0
M  V30 3790 C 349.929 -2.06512 3.70882 0
M  V30 3791 C 347.836 -1.04166 5.82154 0
M  V30 3792 H 346.766 -0.28461 0.698222 0
M  V30 3793 H 349.417 -0.00561272 1.83499 0
M  V30 3794 H 347.799 -2.1836 3.30356 0
M  V30 3795 H 348.973 0.367977 4.59328 0
M  V30 3796 H 347.288 0.174592 4.16034 0
M  V30 3797 H 349.885 -2.55437 4.6974 0
M  V30 3798 H 350.228 -2.87117 3.01445 0
M  V30 3799 H 350.761 -1.33808 3.7462 0
M  V30 3800 H 347.5 -0.275614 6.5492 0
M  V30 3801 H 347.02 -1.7786 5.72823 0
M  V30 3802 H 348.699 -1.55715 6.27982 0
M  V30 3803 N 348.832 -1.54138 -0.328536 0
M  V30 3804 C 350.06 -1.76062 -1.08673 0
M  V30 3805 C 350.475 -0.506852 -1.81869 0
M  V30 3806 O 349.832 0.522223 -1.74869 0
M  V30 3807 C 349.883 -2.95054 -2.08866 0
M  V30 3808 O 349.604 -4.15583 -1.38644 0
M  V30 3809 C 351.105 -3.2915 -2.96943 0
M  V30 3810 H 348.325 -0.587889 -0.323461 0
M  V30 3811 H 350.869 -2.0101 -0.376175 0
M  V30 3812 H 349.024 -2.72394 -2.75464 0
M  V30 3813 H 349.438 -4.82481 -2.05699 0
M  V30 3814 H 350.912 -4.15723 -3.63151 0
M  V30 3815 H 351.389 -2.461 -3.63774 0
M  V30 3816 H 351.995 -3.53871 -2.35914 0
M  V30 3817 N 350.31 0.590341 -1.46126 0
M  V30 3818 C 351.257 1.69994 -1.56111 0
M  V30 3819 C 352.227 1.61065 -0.405867 0
M  V30 3820 O 353.412 1.8039 -0.621613 0
M  V30 3821 C 350.552 3.08326 -1.55013 0
M  V30 3822 C 349.665 3.27936 -2.81215 0
M  V30 3823 C 348.8 4.56473 -2.71673 0
M  V30 3824 C 347.839 4.694 -3.92849 0
M  V30 3825 N 346.976 5.89254 -3.81738 0
M  V30 3826 H 351.816 1.60797 -2.50895 0
M  V30 3827 H 349.353 0.783799 -1.24479 0
M  V30 3828 H 351.311 3.88383 -1.52362 0
M  V30 3829 H 349.941 3.16439 -0.637667 0
M  V30 3830 H 348.993 2.41536 -2.93879 0
M  V30 3831 H 350.305 3.33357 -3.71045 0
M  V30 3832 H 349.459 5.44748 -2.67085 0
M  V30 3833 H 348.198 4.53477 -1.7947 0
M  V30 3834 H 347.203 3.79544 -3.97777 0
M  V30 3835 H 348.428 4.7418 -4.86138 0
M  V30 3836 H 346.374 5.87271 -2.92317 0
M  V30 3837 H 346.291 5.95911 -4.65217 0
M  V30 3838 H 347.559 6.79981 -3.81112 0
M  V30 3839 N 351.788 1.33704 0.83433 0
M  V30 3840 C 352.751 1.24244 1.92603 0
M  V30 3841 C 353.751 0.160383 1.59998 0
M  V30 3842 O 354.941 0.412228 1.69252 0
M  V30 3843 C 352.073 0.91555 3.28376 0
M  V30 3844 H 353.266 2.21287 2.02416 0
M  V30 3845 H 350.819 1.17827 1.02696 0
M  V30 3846 H 351.554 -0.0521886 3.24258 0
M  V30 3847 H 351.339 1.69811 3.53422 0
M  V30 3848 H 352.829 0.874231 4.08347 0
M  V30 3849 N 353.266 -1.05314 1.17247 0
M  V30 3850 C 354.514 -1.77941 0.958194 0
M  V30 3851 C 354.835 -1.88089 -0.514556 0
M  V30 3852 O 354.105 -1.39676 -1.37359 0
M  V30 3853 H 352.685 -0.659116 0.351533 0
M  V30 3854 H 355.347 -1.27166 1.47699 0
M  V30 3855 H 354.443 -2.79663 1.38546 0
M  V30 3856 N 354.744 -0.972509 -1.24016 0
M  V30 3857 C 355.676 -0.464375 -2.24446 0
M  V30 3858 C 356.689 0.4295 -1.57032 0
M  V30 3859 O 357.878 0.234902 -1.76948 0
M  V30 3860 C 354.978 0.348385 -3.37105 0
M  V30 3861 C 354.151 -0.53673 -4.34094 0
M  V30 3862 C 353.21 0.220838 -5.25736 0
M  V30 3863 O 352.236 -0.386867 -5.67884 0
M  V30 3864 N 353.438 1.50907 -5.60542 0
M  V30 3865 H 356.203 -1.32788 -2.68677 0
M  V30 3866 H 353.764 -0.844877 -1.38107 0
M  V30 3867 H 355.756 0.863341 -3.95384 0
M  V30 3868 H 354.326 1.11285 -2.92121 0
M  V30 3869 H 353.546 -1.23261 -3.74433 0
M  V30 3870 H 354.834 -1.14022 -4.95859 0
M  V30 3871 H 354.232 2.02444 -5.28236 0
M  V30 3872 H 352.789 1.96962 -6.21329 0
M  V30 3873 N 356.222 1.38976 -0.743202 0
M  V30 3874 C 357.185 2.28901 -0.117014 0
M  V30 3875 C 358.185 1.46698 0.658503 0
M  V30 3876 O 359.375 1.67274 0.486305 0
M  V30 3877 C 356.507 3.30309 0.84315 0
M  V30 3878 H 357.7 2.8578 -0.909373 0
M  V30 3879 H 355.253 1.47761 -0.509547 0
M  V30 3880 H 355.988 2.785 1.66157 0
M  V30 3881 H 355.773 3.91029 0.289594 0
M  V30 3882 H 357.263 3.97577 1.2776 0
M  V30 3883 N 357.7 0.491464 1.49741 0
M  V30 3884 C 358.647 -0.292027 2.28945 0
M  V30 3885 C 359.617 -0.968973 1.34908 0
M  V30 3886 O 360.802 -0.97748 1.6386 0
M  V30 3887 C 357.942 -1.35617 3.17336 0
M  V30 3888 C 357.055 -0.691957 4.26422 0
M  V30 3889 C 356.19 -1.73572 5.02042 0
M  V30 3890 C 355.229 -1.05286 6.02977 0
M  V30 3891 N 354.366 -2.0404 6.71798 0
M  V30 3892 H 359.206 0.389654 2.95442 0
M  V30 3893 H 356.743 0.204003 1.45679 0
M  V30 3894 H 358.701 -1.98502 3.66951 0
M  V30 3895 H 357.331 -2.00674 2.52844 0
M  V30 3896 H 356.383 0.0499523 3.80367 0
M  V30 3897 H 357.695 -0.153946 4.98562 0
M  V30 3898 H 356.849 -2.43987 5.55478 0
M  V30 3899 H 355.588 -2.30757 4.29654 0
M  V30 3900 H 354.593 -0.334446 5.48782 0
M  V30 3901 H 355.818 -0.487636 6.77347 0
M  V30 3902 H 353.764 -2.60205 6.02187 0
M  V30 3903 H 353.681 -1.55279 7.39881 0
M  V30 3904 H 354.949 -2.73772 7.29842 0
M  V30 3905 N 359.178 -1.55987 0.224894 0
M  V30 3906 C 360.426 -1.97998 -0.405099 0
M  V30 3907 C 360.747 -1.11387 -1.60056 0
M  V30 3908 O 360.017 -0.191645 -1.9496 0
M  V30 3909 H 358.597 -0.731235 -0.152658 0
M  V30 3910 H 361.259 -1.92279 0.318567 0
M  V30 3911 H 360.355 -3.03463 -0.729167 0
M  V30 3912 N 360.656 0.0484629 -1.57525 0
M  V30 3913 C 361.896 0.748196 -1.90214 0
M  V30 3914 C 362.26 1.73545 -0.821347 0
M  V30 3915 O 363.461 2.48201 -1.03198 0
M  V30 3916 C 361.732 1.41727 -3.28098 0
M  V30 3917 S 363.291 2.14884 -3.82584 0
M  V30 3918 H 360.109 0.248307 -0.666232 0
M  V30 3919 H 362.711 0.00343188 -1.955 0
M  V30 3920 H 361.415 0.685244 -4.04639 0
M  V30 3921 H 360.946 2.20099 -3.26068 0
M  V30 3922 H 362.961 3.41755 -3.59747 0
M  V30 3923 N 362.134 1.5431 0.320358 0
M  V30 3924 C 363.364 1.7638 1.07582 0
M  V30 3925 C 363.772 0.513944 1.82086 0
M  V30 3926 O 363.115 -0.525123 1.76035 0
M  V30 3927 C 363.177 2.9055 2.1171 0
M  V30 3928 C 362.841 4.2934 1.56575 0
M  V30 3929 C 363.838 5.10077 1.00586 0
M  V30 3930 C 361.523 4.75893 1.60722 0
M  V30 3931 C 363.517 6.35477 0.494756 0
M  V30 3932 C 361.204 6.0126 1.09224 0
M  V30 3933 C 362.202 6.80886 0.53696 0
M  V30 3934 O 361.89 8.03894 0.0297371 0
M  V30 3935 H 361.622 0.592369 0.325692 0
M  V30 3936 H 364.176 2.02019 0.37116 0
M  V30 3937 H 362.406 2.60489 2.85801 0
M  V30 3938 H 364.095 3.00373 2.73003 0
M  V30 3939 H 364.861 4.75265 0.966869 0
M  V30 3940 H 360.74 4.13957 2.02882 0
M  V30 3941 H 364.284 6.97574 0.0606842 0
M  V30 3942 H 360.181 6.35562 1.12831 0
M  V30 3943 H 360.949 8.18372 0.14486 0
M  V30 3944 N 363.613 -0.582584 1.46437 0
M  V30 3945 C 364.859 -1.34278 1.51978 0
M  V30 3946 C 365.192 -1.93446 0.170973 0
M  V30 3947 O 364.467 -1.76481 -0.817608 0
M  V30 3948 C 364.75 -2.47203 2.61845 0
M  V30 3949 C 364.603 -1.93069 4.06257 0
M  V30 3950 C 365.922 -3.49247 2.67795 0
M  V30 3951 H 363.041 -0.486876 0.553282 0
M  V30 3952 H 365.683 -0.654437 1.78374 0
M  V30 3953 H 363.833 -3.0592 2.39469 0
M  V30 3954 H 365.505 -1.38808 4.3992 0
M  V30 3955 H 363.748 -1.23898 4.1573 0
M  V30 3956 H 364.419 -2.74586 4.7886 0
M  V30 3957 H 366.895 -3.00411 2.8791 0
M  V30 3958 H 365.771 -4.25719 3.46489 0
M  V30 3959 H 366.032 -4.06482 1.73852 0
M  V30 3960 N 365.091 -1.34144 -0.827227 0
M  V30 3961 C 366.339 -1.26009 -1.58007 0
M  V30 3962 C 366.66 0.170971 -1.94249 0
M  V30 3963 O 365.93 1.10256 -1.61927 0
M  V30 3964 H 364.51 -0.463414 -0.585881 0
M  V30 3965 H 367.172 -1.68005 -0.987951 0
M  V30 3966 H 366.268 -1.86187 -2.50481 0
M  V30 3967 N 366.569 1.04691 -1.17803 0
M  V30 3968 C 367.816 1.77782 -0.969532 0
M  V30 3969 C 368.144 1.87926 0.501401 0
M  V30 3970 O 367.399 1.37918 1.38842 0
M  V30 3971 C 367.698 3.21467 -1.56186 0
M  V30 3972 C 367.364 3.3137 -3.05786 0
M  V30 3973 C 366.026 3.3378 -3.46619 0
M  V30 3974 C 368.378 3.31976 -4.01797 0
M  V30 3975 C 365.706 3.34431 -4.82051 0
M  V30 3976 C 368.058 3.34167 -5.37136 0
M  V30 3977 C 366.722 3.34866 -5.77426 0
M  V30 3978 H 365.992 0.650549 -0.354777 0
M  V30 3979 H 368.639 1.23006 -1.46772 0
M  V30 3980 H 366.944 3.79203 -0.985515 0
M  V30 3981 H 368.641 3.76652 -1.37602 0
M  V30 3982 H 365.231 3.3021 -2.73238 0
M  V30 3983 H 369.415 3.29311 -3.71306 0
M  V30 3984 H 364.671 3.33285 -5.12573 0
M  V30 3985 H 368.845 3.33585 -6.11305 0
M  V30 3986 H 366.472 3.35124 -6.82346 0
M  V30 3987 N 368.047 0.979072 1.23499 0
M  V30 3988 C 369.324 0.563674 1.87302 0
M  V30 3989 C 369.704 -0.959199 1.88049 0
M  V30 3990 O 369.052 -1.83535 1.36114 0
M  V30 3991 C 369.262 1.16822 3.28867 0
M  V30 3992 C 370.61 1.26014 4.0547 0
M  V30 3993 O 371.634 1.12158 3.38082 0
M  V30 3994 O 370.493 1.48044 5.26066 0
M  V30 3995 H 367.587 0.189602 0.804972 0
M  V30 3996 H 370.133 1.07407 1.31384 0
M  V30 3997 H 368.905 2.21049 3.22883 0
M  V30 3998 H 368.528 0.642564 3.92373 0
M  V30 3999 N 369.525 -1.3858 0.750561 0
M  V30 4000 C 370.455 -2.33102 0.136237 0
M  V30 4001 C 371.436 -1.54713 -0.706965 0
M  V30 4002 O 372.621 -1.83043 -0.648769 0
M  V30 4003 C 369.751 -3.38882 -0.760017 0
M  V30 4004 C 368.705 -4.27995 -0.0197785 0
M  V30 4005 C 368.031 -5.24605 -1.03408 0
M  V30 4006 C 369.331 -5.09554 1.14684 0
M  V30 4007 H 371.025 -2.84726 0.925822 0
M  V30 4008 H 368.571 -1.36898 0.446654 0
M  V30 4009 H 370.524 -4.0397 -1.19943 0
M  V30 4010 H 369.248 -2.85734 -1.58189 0
M  V30 4011 H 367.907 -3.64409 0.400184 0
M  V30 4012 H 367.555 -4.67746 -1.84994 0
M  V30 4013 H 367.255 -5.85081 -0.543464 0
M  V30 4014 H 368.779 -5.9257 -1.47288 0
M  V30 4015 H 370.193 -5.67899 0.785118 0
M  V30 4016 H 368.59 -5.7925 1.56812 0
M  V30 4017 H 369.66 -4.4347 1.96118 0
M  V30 4018 N 371.003 -0.499398 -1.49478 0
M  V30 4019 C 371.966 0.268838 -2.27618 0
M  V30 4020 C 372.966 0.895383 -1.33565 0
M  V30 4021 O 374.156 0.760164 -1.56739 0
M  V30 4022 C 371.288 1.38559 -3.11471 0
M  V30 4023 H 372.481 -0.416812 -2.96989 0
M  V30 4024 H 370.034 -0.254313 -1.54217 0
M  V30 4025 H 370.769 2.10544 -2.46661 0
M  V30 4026 H 370.554 0.941797 -3.80621 0
M  V30 4027 H 372.044 1.92678 -3.70493 0
M  V30 4028 N 372.481 1.55866 -0.233164 0
M  V30 4029 C 373.431 2.17442 0.685774 0
M  V30 4030 C 374.415 1.12617 1.14918 0
M  V30 4031 O 375.607 1.3857 1.10124 0
M  V30 4032 C 372.736 2.86685 1.88856 0
M  V30 4033 C 371.822 3.98749 1.4443 0
M  V30 4034 N 372.213 5.00744 0.713364 0
M  V30 4035 C 370.511 4.11052 1.73068 0
M  V30 4036 C 371.212 5.79673 0.485205 0
M  V30 4037 N 370.188 5.33454 1.04536 0
M  V30 4038 H 373.99 2.93659 0.119022 0
M  V30 4039 H 371.504 1.62362 -0.0348995 0
M  V30 4040 H 373.501 3.29218 2.55776 0
M  V30 4041 H 372.161 2.11967 2.45967 0
M  V30 4042 H 373.172 5.16613 0.364861 0
M  V30 4043 H 369.849 3.47495 2.31416 0
M  V30 4044 H 371.239 6.71829 -0.097365 0
M  V30 4045 N 373.959 -0.0401083 1.57549 0
M  V30 4046 C 374.922 -1.02871 2.04817 0
M  V30 4047 C 375.922 -1.29708 0.950388 0
M  V30 4048 O 377.112 -1.24897 1.21435 0
M  V30 4049 C 374.244 -2.36443 2.45576 0
M  V30 4050 H 375.437 -0.620631 2.93408 0
M  V30 4051 H 372.99 -0.286667 1.53649 0
M  V30 4052 H 373.725 -2.82021 1.60108 0
M  V30 4053 H 373.51 -2.18296 3.25713 0
M  V30 4054 H 375 -3.07441 2.82612 0
M  V30 4055 N 375.437 -1.54477 -0.31217 0
M  V30 4056 C 376.683 -1.73483 -1.0503 0
M  V30 4057 C 377.016 -0.513125 -1.87298 0
M  V30 4058 O 376.291 0.489864 -1.8823 0
M  V30 4059 C 376.574 -3.01723 -1.96558 0
M  V30 4060 C 376.427 -4.3417 -1.17545 0
M  V30 4061 C 377.746 -3.25772 -2.95907 0
M  V30 4062 H 374.865 -0.631222 -0.380432 0
M  V30 4063 H 377.507 -1.87184 -0.325932 0
M  V30 4064 H 375.657 -2.90174 -2.58324 0
M  V30 4065 H 377.329 -4.5762 -0.581513 0
M  V30 4066 H 375.572 -4.31159 -0.477925 0
M  V30 4067 H 376.243 -5.20143 -1.84811 0
M  V30 4068 H 378.719 -3.36857 -2.44267 0
M  V30 4069 H 377.595 -4.16838 -3.57123 0
M  V30 4070 H 377.856 -2.43537 -3.68974 0
M  V30 4071 N 376.915 0.57481 -1.46744 0
M  V30 4072 C 378.163 1.33009 -1.52161 0
M  V30 4073 C 378.484 1.94185 -0.178092 0
M  V30 4074 O 377.754 1.7899 0.796196 0
M  V30 4075 H 376.334 0.493873 -0.560445 0
M  V30 4076 H 378.996 0.672589 -1.82927 0
M  V30 4077 H 378.092 2.13273 -2.27862 0
M  V30 4078 N 378.394 1.34581 0.820102 0
M  V30 4079 C 379.342 1.26401 1.95258 0
M  V30 4080 C 380.336 0.161553 1.68628 0
M  V30 4081 O 381.542 0.326703 1.7701 0
M  V30 4082 H 377.917 0.392749 0.64129 0
M  V30 4083 H 379.888 2.22105 1.99279 0
M  V30 4084 C 378.637 1.03919 3.31807 0
M  V30 4085 H 377.96 1.87984 3.52848 0
M  V30 4086 H 379.4 1.02232 4.11491 0
M  V30 4087 C 377.859 -0.257433 3.35915 0
M  V30 4088 O 378.389 -1.25784 3.81499 0
M  V30 4089 N 376.595 -0.291524 2.89134 0
M  V30 4090 H 376.142 0.523161 2.52232 0
M  V30 4091 H 376.1 -1.15883 2.92264 0
M  V30 4092 N 379.872 -1.04064 1.18357 0
M  V30 4093 C 381.118 -1.77528 0.980397 0
M  V30 4094 C 381.451 -1.87948 -0.48879 0
M  V30 4095 O 380.726 -1.3876 -1.36293 0
M  V30 4096 C 381.009 -3.20797 1.63588 0
M  V30 4097 C 380.862 -3.1832 3.17793 0
M  V30 4098 C 382.181 -4.18911 1.34914 0
M  V30 4099 H 379.3 -0.644443 0.357578 0
M  V30 4100 H 381.942 -1.2156 1.46024 0
M  V30 4101 H 380.092 -3.68586 1.22788 0
M  V30 4102 H 381.764 -2.78521 3.67728 0
M  V30 4103 H 380.007 -2.56351 3.49952 0
M  V30 4104 H 380.678 -4.19489 3.58794 0
M  V30 4105 H 383.154 -3.7967 1.70265 0
M  V30 4106 H 382.03 -5.17374 1.83346 0
M  V30 4107 H 382.291 -4.41262 0.272027 0
M  V30 4108 N 381.35 -0.985608 -1.22978 0
M  V30 4109 C 382.26 -0.538548 -2.28335 0
M  V30 4110 C 383.276 0.409163 -1.69121 0
M  V30 4111 O 384.452 0.277797 -1.99475 0
M  V30 4112 C 381.517 0.146867 -3.46389 0
M  V30 4113 C 380.578 -0.842896 -4.20944 0
M  V30 4114 C 379.811 -0.190095 -5.33361 0
M  V30 4115 O 380.034 1.01767 -5.61248 0
M  V30 4116 O 378.968 -0.891289 -5.95264 0
M  V30 4117 H 382.794 -1.41487 -2.68729 0
M  V30 4118 H 380.379 -0.753495 -1.29007 0
M  V30 4119 H 382.261 0.531125 -4.1804 0
M  V30 4120 H 380.936 0.997871 -3.07935 0
M  V30 4121 H 379.843 -1.27795 -3.51595 0
M  V30 4122 H 381.176 -1.66287 -4.6326 0
M  V30 4123 N 382.828 1.3818 -0.7579 0
M  V30 4124 C 383.758 2.33027 -0.148597 0
M  V30 4125 C 384.739 1.55085 0.69875 0
M  V30 4126 O 385.924 1.83384 0.639053 0
M  V30 4127 C 383.054 3.3928 0.742034 0
M  V30 4128 C 382.008 4.28 -0.00291946 0
M  V30 4129 C 381.334 5.25146 1.00625 0
M  V30 4130 C 382.634 5.08938 -1.17385 0
M  V30 4131 H 384.328 2.84231 -0.940909 0
M  V30 4132 H 381.874 1.36659 -0.453908 0
M  V30 4133 H 383.827 4.046 1.17799 0
M  V30 4134 H 382.551 2.86569 1.56671 0
M  V30 4135 H 381.21 3.64192 -0.419504 0
M  V30 4136 H 380.858 4.68721 1.8251 0
M  V30 4137 H 380.558 5.85361 0.512428 0
M  V30 4138 H 382.082 5.93342 1.44143 0
M  V30 4139 H 383.496 5.67474 -0.815224 0
M  V30 4140 H 381.893 5.7841 -1.59882 0
M  V30 4141 H 382.963 4.42424 -1.98468 0
M  V30 4142 N 384.306 0.507319 1.49211 0
M  V30 4143 C 385.536 -0.0315292 2.06576 0
M  V30 4144 C 385.944 -1.30791 1.36713 0
M  V30 4145 O 385.287 -1.78324 0.441181 0
M  V30 4146 C 385.349 -0.349104 3.57801 0
M  V30 4147 C 385.013 0.830475 4.49391 0
M  V30 4148 C 386.01 1.72271 4.90529 0
M  V30 4149 C 383.695 1.03107 4.91604 0
M  V30 4150 C 385.689 2.79964 5.72625 0
M  V30 4151 C 383.376 2.11116 5.73475 0
M  V30 4152 C 384.374 2.99379 6.1389 0
M  V30 4153 O 384.062 4.05523 6.94123 0
M  V30 4154 H 383.794 0.0201002 0.675701 0
M  V30 4155 H 386.348 0.705737 1.92895 0
M  V30 4156 H 384.578 -1.14005 3.69513 0
M  V30 4157 H 386.267 -0.827319 3.97379 0
M  V30 4158 H 387.033 1.57958 4.58557 0
M  V30 4159 H 382.912 0.353417 4.59643 0
M  V30 4160 H 386.456 3.48884 6.04091 0
M  V30 4161 H 382.353 2.25421 6.0486 0
M  V30 4162 H 383.121 4.02953 7.1244 0
M  V30 4163 N 385.784 -1.5574 0.241426 0
M  V30 4164 C 386.714 -2.24133 -0.654722 0
M  V30 4165 C 387.695 -1.21974 -1.1856 0
M  V30 4166 O 388.88 -1.50612 -1.22595 0
M  V30 4167 C 386.01 -2.93659 -1.85423 0
M  V30 4168 C 384.964 -4.0246 -1.45636 0
M  V30 4169 C 384.29 -4.59383 -2.73626 0
M  V30 4170 C 385.59 -5.18468 -0.631506 0
M  V30 4171 H 387.284 -2.99281 -0.0844353 0
M  V30 4172 H 384.83 -1.43947 -0.0391707 0
M  V30 4173 H 386.783 -3.40203 -2.48676 0
M  V30 4174 H 385.507 -2.15991 -2.44981 0
M  V30 4175 H 384.166 -3.56676 -0.847202 0
M  V30 4176 H 383.814 -3.78422 -3.3137 0
M  V30 4177 H 383.514 -5.32826 -2.4773 0
M  V30 4178 H 385.038 -5.08658 -3.37786 0
M  V30 4179 H 386.452 -5.61272 -1.1682 0
M  V30 4180 H 384.849 -5.98266 -0.468831 0
M  V30 4181 H 385.919 -4.8358 0.357506 0
M  V30 4182 N 387.262 0.0317525 -1.57568 0
M  V30 4183 C 388.212 1.04101 -2.02847 0
M  V30 4184 C 389.196 1.3219 -0.917317 0
M  V30 4185 O 390.388 1.31819 -1.18121 0
M  V30 4186 C 387.517 2.34295 -2.5092 0
M  V30 4187 C 386.603 2.09308 -3.68851 0
M  V30 4188 N 386.994 1.5437 -4.81667 0
M  V30 4189 C 385.292 2.39604 -3.76172 0
M  V30 4190 C 385.993 1.45126 -5.63306 0
M  V30 4191 N 384.969 1.92589 -5.08341 0
M  V30 4192 H 388.771 0.610217 -2.87495 0
M  V30 4193 H 386.285 0.238108 -1.60645 0
M  V30 4194 H 388.282 3.07404 -2.81617 0
M  V30 4195 H 386.942 2.78055 -1.67677 0
M  V30 4196 H 387.953 1.22678 -5.03161 0
M  V30 4197 H 384.63 2.86457 -3.03724 0
M  V30 4198 H 386.02 1.03163 -6.63933 0
M  V30 4199 N 388.74 1.54641 0.303973 0
M  V30 4200 C 390.017 1.64455 1.05896 0
M  V30 4201 C 390.397 0.490923 2.05312 0
M  V30 4202 O 389.745 -0.512685 2.22674 0
M  V30 4203 C 389.955 3.02331 1.74347 0
M  V30 4204 C 391.303 3.59045 2.26653 0
M  V30 4205 O 392.327 3.04764 1.84384 0
M  V30 4206 O 391.186 4.54081 3.04093 0
M  V30 4207 H 388.28 0.666729 0.489287 0
M  V30 4208 H 390.826 1.66986 0.302298 0
M  V30 4209 H 389.598 3.77734 1.02142 0
M  V30 4210 H 389.221 3.03565 2.56777 0
M  V30 4211 N 390.218 -0.567019 1.47046 0
M  V30 4212 C 391.464 -1.32434 1.54379 0
M  V30 4213 C 391.819 -1.91365 0.199276 0
M  V30 4214 O 391.112 -1.74378 -0.793915 0
M  V30 4215 C 391.306 -2.4623 2.59047 0
M  V30 4216 C 391.135 -1.98448 4.03545 0
M  V30 4217 C 389.905 -1.82741 4.71098 0
M  V30 4218 C 392.103 -1.53477 4.90866 0
M  V30 4219 N 390.085 -1.29196 6.00151 0
M  V30 4220 C 391.456 -1.1163 6.09868 0
M  V30 4221 C 393.511 -1.41438 4.77388 0
M  V30 4222 C 392.214 -0.589425 7.16881 0
M  V30 4223 C 394.24 -0.901528 5.84488 0
M  V30 4224 C 393.602 -0.492932 7.02673 0
M  V30 4225 H 389.701 -0.477005 0.61967 0
M  V30 4226 H 392.285 -0.643856 1.83746 0
M  V30 4227 H 390.456 -3.11821 2.31564 0
M  V30 4228 H 392.188 -3.13213 2.56281 0
M  V30 4229 H 388.943 -2.05162 4.26855 0
M  V30 4230 H 389.367 -1.0454 6.6888 0
M  V30 4231 H 394.009 -1.71643 3.86392 0
M  V30 4232 H 391.727 -0.274994 8.07632 0
M  V30 4233 H 395.313 -0.812071 5.76105 0
M  V30 4234 H 394.193 -0.102227 7.84133 0
M  V30 4235 N 391.696 -1.35014 -0.812953 0
M  V30 4236 C 392.944 -1.27678 -1.56661 0
M  V30 4237 C 393.265 0.150359 -1.94419 0
M  V30 4238 O 392.535 1.08532 -1.63088 0
M  V30 4239 H 391.115 -0.469602 -0.580933 0
M  V30 4240 H 393.777 -1.69043 -0.970076 0
M  V30 4241 H 392.873 -1.88833 -2.48492 0
M  V30 4242 N 393.175 1.03435 -1.18907 0
M  V30 4243 C 394.421 1.77005 -0.989798 0
M  V30 4244 C 394.754 1.88205 0.478816 0
M  V30 4245 O 394.029 1.39481 1.35556 0
M  V30 4246 C 394.312 3.19925 -1.65287 0
M  V30 4247 C 394.165 3.1663 -3.19477 0
M  V30 4248 C 395.484 4.18189 -1.37134 0
M  V30 4249 H 392.603 0.642538 -0.360991 0
M  V30 4250 H 395.245 1.20784 -1.46667 0
M  V30 4251 H 393.395 3.67929 -1.24741 0
M  V30 4252 H 395.067 2.76567 -3.692 0
M  V30 4253 H 393.31 2.54491 -3.51307 0
M  V30 4254 H 393.981 4.1758 -3.61013 0
M  V30 4255 H 396.457 3.78761 -1.72276 0
M  V30 4256 H 395.333 5.16394 -1.86087 0
M  V30 4257 H 395.594 4.41112 -0.295424 0
M  V30 4258 N 394.653 0.992116 1.22453 0
M  V30 4259 C 395.93 0.583508 1.86694 0
M  V30 4260 C 396.31 -0.9392 1.89056 0
M  V30 4261 O 395.658 -1.82081 1.38053 0
M  V30 4262 C 395.868 1.20304 3.2761 0
M  V30 4263 C 397.216 1.30308 4.0411 0
M  V30 4264 O 398.24 1.15737 3.36873 0
M  V30 4265 O 397.099 1.53615 5.24466 0
M  V30 4266 H 394.193 0.198129 0.802916 0
M  V30 4267 H 396.739 1.08794 1.30238 0
M  V30 4268 H 395.511 2.24461 3.2052 0
M  V30 4269 H 395.134 0.684144 3.9167 0
M  V30 4270 N 396.131 -1.37776 0.765217 0
M  V30 4271 C 397.378 -1.99849 0.326588 0
M  V30 4272 C 397.706 -1.60746 -1.09504 0
M  V30 4273 O 396.961 -0.84202 -1.76659 0
M  V30 4274 C 397.26 -3.5504 0.410053 0
M  V30 4275 C 396.926 -4.13891 1.78899 0
M  V30 4276 C 395.588 -4.29678 2.16635 0
M  V30 4277 C 397.94 -4.46236 2.69301 0
M  V30 4278 C 395.268 -4.7511 3.44221 0
M  V30 4279 C 397.62 -4.93089 3.9629 0
M  V30 4280 C 396.284 -5.07082 4.34078 0
M  V30 4281 H 395.554 -0.7313 0.119507 0
M  V30 4282 H 398.201 -1.64645 0.977968 0
M  V30 4283 H 396.506 -3.90451 -0.324878 0
M  V30 4284 H 398.203 -4.00966 0.0520699 0
M  V30 4285 H 394.793 -4.02026 1.48569 0
M  V30 4286 H 398.977 -4.3363 2.41409 0
M  V30 4287 H 394.233 -4.84129 3.73402 0
M  V30 4288 H 398.407 -5.17084 4.66472 0
M  V30 4289 H 396.034 -5.42046 5.33001 0
M  V30 4290 N 397.609 -0.515225 -1.4894 0
M  V30 4291 C 398.572 0.244681 -2.2789 0
M  V30 4292 C 399.572 0.881166 -1.34507 0
M  V30 4293 O 400.762 0.743497 -1.57537 0
M  V30 4294 C 397.894 1.35247 -3.12923 0
M  V30 4295 H 399.087 -0.448289 -2.96531 0
M  V30 4296 H 396.64 -0.270656 -1.53939 0
M  V30 4297 H 397.375 2.07916 -2.48881 0
M  V30 4298 H 397.16 0.901374 -3.81599 0
M  V30 4299 H 398.65 1.88737 -3.72516 0
M  V30 4300 N 399.087 1.5561 -0.249682 0
M  V30 4301 C 400.327 2.00916 0.37579 0
M  V30 4302 C 400.691 1.13409 1.54927 0
M  V30 4303 O 401.892 1.48183 2.24266 0
M  V30 4304 C 400.163 3.48949 0.772633 0
M  V30 4305 S 401.722 4.16261 1.38824 0
M  V30 4306 H 398.54 0.70112 0.118117 0
M  V30 4307 H 401.142 1.92052 -0.365567 0
M  V30 4308 H 399.846 4.103 -0.090683 0
M  V30 4309 H 399.377 3.61745 1.5461 0
M  V30 4310 H 401.392 4.17778 2.67724 0
M  V30 4311 N 400.565 -0.0233959 1.57583 0
M  V30 4312 C 401.811 -0.708611 1.90657 0
M  V30 4313 C 402.166 -1.7266 0.848895 0
M  V30 4314 O 401.459 -1.91075 -0.141749 0
M  V30 4315 C 401.653 -1.41428 3.28227 0
M  V30 4316 C 401.482 -0.466155 4.47277 0
M  V30 4317 C 400.252 -0.085117 5.05228 0
M  V30 4318 C 402.45 0.257836 5.13653 0
M  V30 4319 N 400.432 0.863672 6.07794 0
M  V30 4320 C 401.803 1.06209 6.10835 0
M  V30 4321 C 403.858 0.324174 4.96844 0
M  V30 4322 C 402.561 1.9266 6.93018 0
M  V30 4323 C 404.587 1.17583 5.79593 0
M  V30 4324 C 403.949 1.96799 6.7635 0
M  V30 4325 H 400.048 -0.233222 0.746412 0
M  V30 4326 H 402.632 0.0314512 1.94675 0
M  V30 4327 H 400.803 -2.12477 3.25128 0
M  V30 4328 H 402.535 -2.05233 3.488 0
M  V30 4329 H 399.29 -0.448516 4.71471 0
M  V30 4330 H 399.714 1.33274 6.63752 0
M  V30 4331 H 404.356 -0.273975 4.21911 0
M  V30 4332 H 402.074 2.53552 7.67292 0
M  V30 4333 H 405.66 1.23076 5.68633 0
M  V30 4334 H 404.54 2.61635 7.39268 0
M  V30 4335 N 402.043 -1.548 -0.295768 0
M  V30 4336 C 403.283 -1.76069 -1.03823 0
M  V30 4337 C 403.647 -0.537992 -1.84309 0
M  V30 4338 O 404.848 -0.628514 -2.61349 0
M  V30 4339 C 403.119 -3.01705 -1.91596 0
M  V30 4340 S 404.678 -3.43998 -2.72416 0
M  V30 4341 H 401.496 -0.618852 -0.350062 0
M  V30 4342 H 404.098 -1.93009 -0.31106 0
M  V30 4343 H 402.802 -3.88812 -1.31351 0
M  V30 4344 H 402.333 -2.87366 -2.68671 0
M  V30 4345 H 404.348 -3.0148 -3.94112 0
M  V30 4346 N 403.521 0.559213 -1.47345 0
M  V30 4347 C 404.746 1.34676 -1.57725 0
M  V30 4348 C 405.171 1.86723 -0.227164 0
M  V30 4349 O 404.529 1.6286 0.796642 0
M  V30 4350 C 404.577 2.49399 -2.60447 0
M  V30 4351 O 403.681 3.51567 -2.15578 0
M  V30 4352 H 403.022 0.400115 -0.52991 0
M  V30 4353 H 405.552 0.676009 -1.93109 0
M  V30 4354 H 405.562 2.95996 -2.80803 0
M  V30 4355 H 404.237 2.10873 -3.58477 0
M  V30 4356 H 402.814 3.11289 -2.05313 0
M  V30 4357 N 404.999 1.35443 0.805782 0
M  V30 4358 C 406.229 1.31687 1.59192 0
M  V30 4359 C 406.637 -0.10756 1.88894 0
M  V30 4360 O 405.98 -1.07017 1.49309 0
M  V30 4361 C 406.042 2.05686 2.94845 0
M  V30 4362 C 405.706 3.54868 2.87954 0
M  V30 4363 C 406.703 4.49444 2.61335 0
M  V30 4364 C 404.388 3.97528 3.07046 0
M  V30 4365 C 406.382 5.84655 2.53885 0
M  V30 4366 C 404.069 5.32833 2.99219 0
M  V30 4367 C 405.067 6.26209 2.72674 0
M  V30 4368 O 404.755 7.59032 2.64811 0
M  V30 4369 H 404.487 0.453878 0.50097 0
M  V30 4370 H 407.041 1.78892 1.0093 0
M  V30 4371 H 405.271 1.5312 3.55093 0
M  V30 4372 H 406.96 1.94998 3.55993 0
M  V30 4373 H 407.726 4.17804 2.46303 0
M  V30 4374 H 403.605 3.25233 3.26718 0
M  V30 4375 H 407.149 6.57508 2.33086 0
M  V30 4376 H 403.046 5.64087 3.13809 0
M  V30 4377 H 403.814 7.68967 2.80413 0
M  V30 4378 N 406.477 -1.02803 1.19454 0
M  V30 4379 C 407.424 -2.11099 0.933046 0
M  V30 4380 C 408.394 -1.65571 -0.132447 0
M  V30 4381 O 409.579 -1.90797 0.00987576 0
M  V30 4382 C 406.719 -3.41763 0.478747 0
M  V30 4383 C 405.832 -4.00833 1.6111 0
M  V30 4384 C 404.967 -5.19511 1.10825 0
M  V30 4385 C 404.006 -5.70639 2.21445 0
M  V30 4386 N 403.143 -6.80589 1.72461 0
M  V30 4387 H 407.983 -2.32804 1.86028 0
M  V30 4388 H 405.52 -1.14179 0.927441 0
M  V30 4389 H 407.478 -4.16736 0.196745 0
M  V30 4390 H 406.108 -3.20166 -0.411493 0
M  V30 4391 H 405.16 -3.23066 2.00829 0
M  V30 4392 H 406.472 -4.34794 2.4445 0
M  V30 4393 H 405.626 -6.01645 0.781533 0
M  V30 4394 H 404.365 -4.87086 0.244606 0
M  V30 4395 H 403.37 -4.87116 2.54947 0
M  V30 4396 H 404.595 -6.05102 3.08267 0
M  V30 4397 H 402.541 -6.50016 0.884056 0
M  V30 4398 H 402.458 -7.13681 2.49389 0
M  V30 4399 H 403.726 -7.66317 1.42755 0
M  V30 4400 N 407.956 -0.998596 -1.21925 0
M  V30 4401 C 409.186 -0.695276 -1.94549 0
M  V30 4402 C 409.594 0.745079 -1.73911 0
M  V30 4403 O 408.937 1.51507 -1.03881 0
M  V30 4404 C 408.999 -0.928485 -3.47303 0
M  V30 4405 C 408.663 -2.35443 -3.91683 0
M  V30 4406 C 409.66 -3.33428 -3.98901 0
M  V30 4407 C 407.345 -2.69038 -4.24174 0
M  V30 4408 C 409.339 -4.63079 -4.37992 0
M  V30 4409 C 407.026 -3.98906 -4.62944 0
M  V30 4410 C 408.024 -4.95738 -4.69822 0
M  V30 4411 O 407.712 -6.23285 -5.07711 0
M  V30 4412 H 407.444 -0.255902 -0.625692 0
M  V30 4413 H 409.998 -1.33767 -1.5587 0
M  V30 4414 H 408.228 -0.228917 -3.86022 0
M  V30 4415 H 409.917 -0.619539 -4.01144 0
M  V30 4416 H 410.683 -3.08807 -3.73983 0
M  V30 4417 H 406.562 -1.94367 -4.18022 0
M  V30 4418 H 410.106 -5.38658 -4.43275 0
M  V30 4419 H 406.003 -4.23314 -4.87314 0
M  V30 4420 H 406.771 -6.27306 -5.25766 0
M  V30 4421 N 409.434 1.37368 -0.772513 0
M  V30 4422 C 410.364 2.32856 -0.173304 0
M  V30 4423 C 411.345 1.55818 0.682262 0
M  V30 4424 O 412.53 1.84052 0.619566 0
M  V30 4425 C 409.66 3.40048 0.706007 0
M  V30 4426 C 408.614 4.27973 -0.0483144 0
M  V30 4427 C 407.94 5.26184 0.950491 0
M  V30 4428 C 409.24 5.07665 -1.22776 0
M  V30 4429 H 410.934 2.83217 -0.971002 0
M  V30 4430 H 408.48 1.3617 -0.468377 0
M  V30 4431 H 410.433 4.05827 1.13501 0
M  V30 4432 H 409.157 2.88214 1.53623 0
M  V30 4433 H 407.816 3.63726 -0.458107 0
M  V30 4434 H 407.464 4.7063 1.77529 0
M  V30 4435 H 407.164 5.85872 0.450314 0
M  V30 4436 H 408.688 5.94838 1.37842 0
M  V30 4437 H 410.102 5.66578 -0.875366 0
M  V30 4438 H 408.499 5.76681 -1.66007 0
M  V30 4439 H 409.569 4.40294 -2.03149 0
M  V30 4440 N 410.912 0.523116 1.48665 0
M  V30 4441 C 411.86 -0.256859 2.31177 0
M  V30 4442 C 412.854 -0.94199 1.40794 0
M  V30 4443 O 414.06 -0.867157 1.57735 0
M  V30 4444 H 410.435 -0.1017 0.745091 0
M  V30 4445 H 412.406 0.458739 2.94853 0
M  V30 4446 C 411.155 -1.29503 3.22683 0
M  V30 4447 H 410.478 -0.777248 3.92172 0
M  V30 4448 H 411.918 -1.81233 3.83315 0
M  V30 4449 C 410.377 -2.32501 2.43813 0
M  V30 4450 O 410.907 -3.3881 2.15803 0
M  V30 4451 N 409.113 -2.05538 2.05432 0
M  V30 4452 H 408.66 -1.19104 2.28412 0
M  V30 4453 H 408.618 -2.74676 1.52973 0
M  V30 4454 N 412.39 -1.55475 0.257931 0
M  V30 4455 C 413.353 -2.20551 -0.623706 0
M  V30 4456 C 414.353 -1.17809 -1.09443 0
M  V30 4457 O 415.543 -1.42823 -0.997362 0
M  V30 4458 C 412.675 -2.85784 -1.8585 0
M  V30 4459 H 413.868 -2.99848 -0.0557743 0
M  V30 4460 H 411.421 -1.56298 0.0084422 0
M  V30 4461 H 412.156 -2.10453 -2.46739 0
M  V30 4462 H 411.941 -3.61057 -1.52907 0
M  V30 4463 H 413.431 -3.35553 -2.48584 0
M  V30 4464 N 413.868 0.0150385 -1.57593 0
M  V30 4465 C 415.116 0.701613 -1.8953 0
M  V30 4466 C 415.437 1.75139 -0.857396 0
M  V30 4467 O 414.707 1.95607 0.107194 0
M  V30 4468 H 413.287 0.26213 -0.699498 0
M  V30 4469 H 415.949 -0.0223304 -1.94887 0
M  V30 4470 H 415.045 1.18236 -2.88837 0
M  V30 4471 N 415.346 1.54954 0.287554 0
M  V30 4472 C 416.309 1.86076 1.33823 0
M  V30 4473 C 417.309 0.734414 1.43049 0
M  V30 4474 O 418.499 1.00266 1.42452 0
M  V30 4475 C 415.631 2.05305 2.72144 0
M  V30 4476 H 416.824 2.79984 1.07465 0
M  V30 4477 H 414.377 1.47223 0.524902 0
M  V30 4478 H 415.112 1.1373 3.03704 0
M  V30 4479 H 414.897 2.873 2.66836 0
M  V30 4480 H 416.387 2.30706 3.48087 0
M  V30 4481 N 416.824 -0.551391 1.4764 0
M  V30 4482 C 418.072 -1.30572 1.54258 0
M  V30 4483 C 418.393 -1.93877 0.208963 0
M  V30 4484 O 417.663 -1.80234 -0.767619 0
M  V30 4485 H 416.243 -0.484894 0.568231 0
M  V30 4486 H 418.905 -0.643402 1.83974 0
M  V30 4487 H 418.001 -2.09621 2.31226 0
M  V30 4488 N 418.302 -1.35869 -0.798587 0
M  V30 4489 C 419.55 -1.29332 -1.55298 0
M  V30 4490 C 419.871 0.129729 -1.94568 0
M  V30 4491 O 419.141 1.06796 -1.6423 0
M  V30 4492 H 417.721 -0.475737 -0.57592 0
M  V30 4493 H 420.383 -1.70062 -0.952093 0
M  V30 4494 H 419.479 -1.91458 -2.46476 0
M  V30 4495 N 419.78 1.02168 -1.19998 0
M  V30 4496 C 421.029 1.75091 -1.0013 0
M  V30 4497 C 421.342 1.89923 0.467835 0
M  V30 4498 O 422.548 2.59888 0.785515 0
M  V30 4499 C 421.004 3.14892 -1.74273 0
M  V30 4500 C 420.612 3.0809 -3.25245 0
M  V30 4501 C 422.356 3.9206 -1.62755 0
M  V30 4502 C 420.263 4.42867 -3.91948 0
M  V30 4503 H 419.193 0.656394 -0.37103 0
M  V30 4504 H 421.844 1.14284 -1.43567 0
M  V30 4505 H 420.226 3.7621 -1.2362 0
M  V30 4506 H 421.4 2.5611 -3.83072 0
M  V30 4507 H 419.715 2.44416 -3.3712 0
M  V30 4508 H 422.312 4.91764 -2.09934 0
M  V30 4509 H 422.655 4.12199 -0.582894 0
M  V30 4510 H 423.188 3.37359 -2.10793 0
M  V30 4511 H 419.927 4.27931 -4.96543 0
M  V30 4512 H 419.447 4.94874 -3.3891 0
M  V30 4513 H 421.126 5.11728 -3.95909 0
M  V30 4514 N 421.258 1.00505 1.21394 0
M  V30 4515 C 422.221 0.570459 2.21987 0
M  V30 4516 C 423.221 -0.353211 1.56873 0
M  V30 4517 O 424.411 -0.14349 1.73608 0
M  V30 4518 C 421.543 -0.168555 3.40483 0
M  V30 4519 H 422.736 1.46021 2.6195 0
M  V30 4520 H 420.289 0.793565 1.34656 0
M  V30 4521 H 421.024 -1.07374 3.06009 0
M  V30 4522 H 420.809 0.494823 3.88965 0
M  V30 4523 H 422.299 -0.460362 4.15055 0
M  V30 4524 N 422.737 -1.36956 0.779787 0
M  V30 4525 C 423.985 -1.99097 0.347079 0
M  V30 4526 C 424.306 -1.62206 -1.08232 0
M  V30 4527 O 423.576 -0.891373 -1.74446 0
M  V30 4528 H 422.156 -0.736409 0.125342 0
M  V30 4529 H 424.818 -1.67308 0.999696 0
M  V30 4530 H 423.914 -3.09107 0.431162 0
M  V30 4531 N 424.215 -0.530993 -1.48385 0
M  V30 4532 C 425.178 0.220497 -2.28137 0
M  V30 4533 C 426.178 0.866851 -1.35434 0
M  V30 4534 O 427.368 0.726746 -1.58316 0
M  V30 4535 C 424.5 1.31921 -3.1434 0
M  V30 4536 H 425.693 -0.479714 -2.96038 0
M  V30 4537 H 423.246 -0.286968 -1.53643 0
M  V30 4538 H 423.981 2.05264 -2.51072 0
M  V30 4539 H 423.766 0.86085 -3.82533 0
M  V30 4540 H 425.256 1.84776 -3.74497 0
M  V30 4541 N 425.693 1.55336 -0.266172 0
M  V30 4542 C 426.94 1.99397 0.353158 0
M  V30 4543 C 427.268 1.15451 1.56529 0
M  V30 4544 O 426.523 0.209974 1.9457 0
M  V30 4545 C 426.822 3.48606 0.787957 0
M  V30 4546 C 426.488 4.49773 -0.318541 0
M  V30 4547 C 425.15 4.77158 -0.62239 0
M  V30 4548 C 427.502 5.10212 -1.06459 0
M  V30 4549 C 424.83 5.62251 -1.67602 0
M  V30 4550 C 427.182 5.96449 -2.10788 0
M  V30 4551 C 425.846 6.22158 -2.41817 0
M  V30 4552 H 425.116 0.729644 0.12923 0
M  V30 4553 H 427.763 1.87732 -0.37802 0
M  V30 4554 H 426.068 3.57701 1.59866 0
M  V30 4555 H 427.765 3.80098 1.27775 0
M  V30 4556 H 424.355 4.2854 -0.0715925 0
M  V30 4557 H 428.539 4.89086 -0.843098 0
M  V30 4558 H 423.795 5.80419 -1.92155 0
M  V30 4559 H 427.969 6.42317 -2.69076 0
M  V30 4560 H 425.596 6.87888 -3.23596 0
M  V30 4561 N 427.171 -0.0066808 1.57599 0
M  V30 4562 C 428.42 -0.692078 1.89455 0
M  V30 4563 C 428.733 -1.75306 0.867586 0
M  V30 4564 O 429.939 -2.49262 1.07614 0
M  V30 4565 C 428.395 -1.2821 3.36289 0
M  V30 4566 C 428.003 -0.256291 4.47266 0
M  V30 4567 C 429.747 -1.94608 3.77264 0
M  V30 4568 C 427.654 -0.855927 5.85173 0
M  V30 4569 H 426.584 -0.262252 0.706923 0
M  V30 4570 H 429.235 0.052769 1.83424 0
M  V30 4571 H 427.617 -2.0774 3.37135 0
M  V30 4572 H 428.791 0.513923 4.57925 0
M  V30 4573 H 427.106 0.306862 4.15268 0
M  V30 4574 H 429.703 -2.40364 4.77629 0
M  V30 4575 H 430.046 -2.77382 3.10427 0
M  V30 4576 H 430.579 -1.21822 3.78688 0
M  V30 4577 H 427.318 -0.0671161 6.55466 0
M  V30 4578 H 426.838 -1.59546 5.78191 0
M  V30 4579 H 428.517 -1.35658 6.32618 0
M  V30 4580 N 428.649 -1.55105 -0.279332 0
M  V30 4581 C 429.599 -1.83937 -1.34727 0
M  V30 4582 C 430.583 -0.69785 -1.44979 0
M  V30 4583 O 431.775 -0.95904 -1.48766 0
M  V30 4584 C 428.904 -2.1092 -2.70864 0
M  V30 4585 C 427.99 -3.31314 -2.64748 0
M  V30 4586 N 428.381 -4.51371 -2.2825 0
M  V30 4587 C 426.679 -3.33777 -2.95819 0
M  V30 4588 C 427.38 -5.33447 -2.31969 0
M  V30 4589 N 426.356 -4.71697 -2.7019 0
M  V30 4590 H 430.158 -2.74309 -1.05506 0
M  V30 4591 H 427.672 -1.54896 -0.487959 0
M  V30 4592 H 429.669 -2.2973 -3.47893 0
M  V30 4593 H 428.329 -1.21828 -3.00979 0
M  V30 4594 H 429.34 -4.77584 -2.00335 0
M  V30 4595 H 426.017 -2.54858 -3.30687 0
M  V30 4596 H 427.407 -6.39424 -2.06365 0
M  V30 4597 N 430.127 0.543554 -1.4793 0
M  V30 4598 C 431.037 1.67657 -1.64098 0
M  V30 4599 C 432.053 1.65934 -0.523622 0
M  V30 4600 O 433.229 1.85133 -0.792943 0
M  V30 4601 C 430.294 3.04146 -1.66421 0
M  V30 4602 C 429.355 3.16831 -2.89684 0
M  V30 4603 C 428.588 4.46809 -2.91886 0
M  V30 4604 O 428.811 5.33095 -2.02895 0
M  V30 4605 O 427.745 4.63573 -3.83906 0
M  V30 4606 H 431.571 1.56957 -2.59997 0
M  V30 4607 H 429.156 0.715116 -1.31173 0
M  V30 4608 H 431.038 3.85346 -1.70548 0
M  V30 4609 H 429.713 3.152 -0.736923 0
M  V30 4610 H 428.62 2.34977 -2.91095 0
M  V30 4611 H 429.953 3.10687 -3.81752 0
M  V30 4612 N 431.605 1.3629 0.791371 0
M  V30 4613 C 432.552 1.30458 1.90393 0
M  V30 4614 C 433.522 0.173632 1.6519 0
M  V30 4615 O 434.707 0.35983 1.87376 0
M  V30 4616 C 431.847 1.09777 3.27174 0
M  V30 4617 C 430.96 2.31929 3.64462 0
M  V30 4618 C 430.095 2.04276 4.90352 0
M  V30 4619 C 429.134 3.224 5.20312 0
M  V30 4620 N 428.271 2.94424 6.37385 0
M  V30 4621 H 433.111 2.25589 1.94714 0
M  V30 4622 H 430.648 1.12122 0.952216 0
M  V30 4623 H 432.606 0.958133 4.06049 0
M  V30 4624 H 431.236 0.183014 3.22281 0
M  V30 4625 H 430.288 2.56703 2.80727 0
M  V30 4626 H 431.6 3.20085 3.82553 0
M  V30 4627 H 430.754 1.87231 5.77087 0
M  V30 4628 H 429.493 1.13428 4.74326 0
M  V30 4629 H 428.498 3.40005 4.32061 0
M  V30 4630 H 429.723 4.14071 5.38258 0
M  V30 4631 H 427.669 2.06185 6.22755 0
M  V30 4632 H 427.586 3.76118 6.55798 0
M  V30 4633 H 428.854 2.80953 7.27108 0
M  V30 4634 N 433.083 -1.0153 1.20538 0
M  V30 4635 C 434.033 -2.08482 0.922991 0
M  V30 4636 C 435.017 -1.60469 -0.117702 0
M  V30 4637 O 436.209 -1.76772 0.0898465 0
M  V30 4638 C 433.338 -3.39952 0.478312 0
M  V30 4639 C 432.424 -3.94662 1.5525 0
M  V30 4640 N 432.815 -4.22866 2.77521 0
M  V30 4641 C 431.113 -4.22825 1.41897 0
M  V30 4642 C 431.814 -4.67002 3.4682 0
M  V30 4643 N 430.79 -4.69356 2.74237 0
M  V30 4644 H 434.592 -2.28199 1.85209 0
M  V30 4645 H 432.106 -1.19512 1.09957 0
M  V30 4646 H 434.103 -4.16105 0.257408 0
M  V30 4647 H 432.763 -3.21648 -0.444148 0
M  V30 4648 H 433.774 -4.11732 3.1416 0
M  V30 4649 H 430.451 -4.13714 0.561015 0
M  V30 4650 H 431.841 -4.97632 4.51455 0
M  V30 4651 N 434.561 -1.01147 -1.20859 0
M  V30 4652 C 435.524 -0.582224 -2.21682 0
M  V30 4653 C 436.524 0.344887 -1.57058 0
M  V30 4654 O 437.714 0.134281 -1.73682 0
M  V30 4655 C 434.846 0.150496 -3.40568 0
M  V30 4656 H 436.039 -1.47408 -2.61172 0
M  V30 4657 H 433.592 -0.800695 -1.34233 0
M  V30 4658 H 434.327 1.0575 -3.06574 0
M  V30 4659 H 434.112 -0.515444 -3.88697 0
M  V30 4660 H 435.602 0.438344 -4.15293 0
M  V30 4661 N 436.039 1.36541 -0.78704 0
M  V30 4662 C 436.989 2.27459 -0.156957 0
M  V30 4663 C 437.973 1.46843 0.657709 0
M  V30 4664 O 439.165 1.69245 0.518173 0
M  V30 4665 C 436.294 3.35893 0.709278 0
M  V30 4666 C 435.38 4.23947 -0.114049 0
M  V30 4667 N 435.771 4.92145 -1.16736 0
M  V30 4668 C 434.069 4.4587 0.107497 0
M  V30 4669 C 434.77 5.57261 -1.66837 0
M  V30 4670 N 433.746 5.3473 -0.977992 0
M  V30 4671 H 437.548 2.77669 -0.963185 0
M  V30 4672 H 435.062 1.49839 -0.62627 0
M  V30 4673 H 437.059 3.99953 1.17656 0
M  V30 4674 H 435.719 2.87238 1.51408 0
M  V30 4675 H 436.73 4.94169 -1.54976 0
M  V30 4676 H 433.407 4.08056 0.882994 0
M  V30 4677 H 434.797 6.21728 -2.54762 0
M  V30 4678 N 437.518 0.538854 1.48102 0
M  V30 4679 C 438.746 0.0123136 2.06896 0
M  V30 4680 C 439.161 -1.27312 1.39417 0
M  V30 4681 O 438.518 -1.75949 0.484582 0
M  V30 4682 C 438.569 -0.206118 3.60912 0
M  V30 4683 O 438.29 1.0284 4.25859 0
M  V30 4684 C 439.791 -0.772033 4.36526 0
M  V30 4685 H 437.011 0.0375239 0.66995 0
M  V30 4686 H 439.555 0.747032 1.90367 0
M  V30 4687 H 437.71 -0.89091 3.77017 0
M  V30 4688 H 438.124 0.814654 5.18135 0
M  V30 4689 H 439.598 -0.874251 5.45033 0
M  V30 4690 H 440.075 -1.77904 4.01555 0
M  V30 4691 H 440.681 -0.123526 4.25121 0
M  V30 4692 N 438.996 -1.55193 0.274407 0
M  V30 4693 C 440.245 -1.98758 -0.343213 0
M  V30 4694 C 440.558 -1.16624 -1.5703 0
M  V30 4695 O 441.764 -1.5033 -2.26082 0
M  V30 4696 C 440.22 -3.53759 -0.661996 0
M  V30 4697 C 439.828 -4.4467 0.54524 0
M  V30 4698 C 441.572 -4.05916 -1.24228 0
M  V30 4699 C 439.479 -5.91058 0.201084 0
M  V30 4700 H 438.409 -0.742353 -0.132014 0
M  V30 4701 H 441.06 -1.79545 0.378948 0
M  V30 4702 H 439.442 -3.68772 -1.44304 0
M  V30 4703 H 440.616 -4.41426 1.32212 0
M  V30 4704 H 438.931 -4.03143 1.04232 0
M  V30 4705 H 441.528 -5.12831 -1.51357 0
M  V30 4706 H 441.871 -3.54908 -2.17592 0
M  V30 4707 H 442.404 -3.9434 -0.523542 0
M  V30 4708 H 439.143 -6.46161 1.10258 0
M  V30 4709 H 438.663 -5.97373 -0.539045 0
M  V30 4710 H 440.342 -6.46669 -0.206954 0
M  V30 4711 N 440.474 -0.00167713 -1.576 0
M  V30 4712 C 441.421 0.989195 -2.08527 0
M  V30 4713 C 442.391 1.34031 -0.981065 0
M  V30 4714 O 443.576 1.43839 -1.2536 0
M  V30 4715 C 440.716 2.27537 -2.59463 0
M  V30 4716 C 439.829 1.98314 -3.83791 0
M  V30 4717 C 438.964 3.21025 -4.23222 0
M  V30 4718 C 438.003 2.87495 -5.40382 0
M  V30 4719 N 437.14 4.02749 -5.75098 0
M  V30 4720 H 441.98 0.547973 -2.92919 0
M  V30 4721 H 439.517 0.258917 -1.44803 0
M  V30 4722 H 441.475 3.02729 -2.87073 0
M  V30 4723 H 440.105 2.69325 -1.77943 0
M  V30 4724 H 439.157 1.13482 -3.63078 0
M  V30 4725 H 440.469 1.69601 -4.69081 0
M  V30 4726 H 439.623 4.04561 -4.52123 0
M  V30 4727 H 438.362 3.52877 -3.36644 0
M  V30 4728 H 437.367 2.02367 -5.11202 0
M  V30 4729 H 438.592 2.56889 -6.28637 0
M  V30 4730 H 436.538 4.34494 -4.91478 0
M  V30 4731 H 436.455 3.77566 -6.54966 0
M  V30 4732 H 437.723 4.87068 -6.08592 0
M  V30 4733 N 441.952 1.55251 0.271103 0
M  V30 4734 C 443.363 1.66635 0.842007 0
M  V30 4735 C 443.714 0.594631 1.86972 0
M  V30 4736 O 442.839 -0.263532 2.14789 0
M  V30 4737 C 443.434 3.02082 1.53401 0
M  V30 4738 C 441.993 3.15487 2.05293 0
M  V30 4739 C 441.14 2.62438 0.895631 0
M  V30 4740 H 444.091 1.58629 0.0474117 0
M  V30 4741 H 444.112 2.95176 2.40107 0
M  V30 4742 H 443.624 3.80062 0.785786 0
M  V30 4743 H 441.725 2.42284 2.83071 0
M  V30 4744 H 441.838 4.22075 2.26693 0
M  V30 4745 H 440.202 2.19644 1.28953 0
M  V30 4746 H 440.985 3.42923 0.160878 0
M  V30 4747 N 443.43 -0.535701 1.48216 0
M  V30 4748 C 444.393 -1.623 1.61838 0
M  V30 4749 C 445.393 -1.53087 0.492024 0
M  V30 4750 O 446.583 -1.5686 0.757668 0
M  V30 4751 C 443.715 -3.01907 1.58319 0
M  V30 4752 H 444.908 -1.51564 2.58783 0
M  V30 4753 H 442.461 -0.757317 1.36727 0
M  V30 4754 H 443.196 -3.18155 0.628299 0
M  V30 4755 H 442.981 -3.10003 2.40085 0
M  V30 4756 H 444.471 -3.80969 1.71033 0
M  V30 4757 N 444.908 -1.36708 -0.784132 0
M  V30 4758 C 445.838 -1.34153 -1.91116 0
M  V30 4759 C 446.819 -0.212121 -1.68772 0
M  V30 4760 O 448.004 -0.410581 -1.8981 0
M  V30 4761 C 445.134 -1.13535 -3.28218 0
M  V30 4762 C 444.088 -2.23356 -3.65097 0
M  V30 4763 C 443.414 -1.87875 -5.00607 0
M  V30 4764 C 444.714 -3.65473 -3.73131 0
M  V30 4765 H 446.408 -2.28459 -1.93512 0
M  V30 4766 H 443.954 -1.09973 -0.929618 0
M  V30 4767 H 445.907 -1.10381 -4.06687 0
M  V30 4768 H 444.631 -0.156804 -3.26223 0
M  V30 4769 H 443.29 -2.25645 -2.88929 0
M  V30 4770 H 442.938 -0.885814 -4.95139 0
M  V30 4771 H 442.638 -2.61406 -5.26252 0
M  V30 4772 H 444.162 -1.86286 -5.81489 0
M  V30 4773 H 445.576 -3.65382 -4.41779 0
M  V30 4774 H 443.973 -4.37953 -4.10265 0
M  V30 4775 H 445.043 -3.99995 -2.74102 0
M  V30 4776 N 446.386 1.0089 -1.21074 0
M  V30 4777 C 447.632 1.74866 -1.02712 0
M  V30 4778 C 447.965 1.89178 0.438787 0
M  V30 4779 O 447.24 1.42325 1.32567 0
M  V30 4780 C 447.523 3.16347 -1.72036 0
M  V30 4781 C 447.376 3.09782 -3.26121 0
M  V30 4782 C 448.695 4.15187 -1.45973 0
M  V30 4783 H 445.814 0.634736 -0.374539 0
M  V30 4784 H 448.456 1.17646 -1.49196 0
M  V30 4785 H 446.606 3.65201 -1.32517 0
M  V30 4786 H 448.278 2.68673 -3.74983 0
M  V30 4787 H 446.521 2.46982 -3.56626 0
M  V30 4788 H 447.192 4.09829 -3.6979 0
M  V30 4789 H 449.668 3.75022 -1.80272 0
M  V30 4790 H 448.544 5.12331 -1.96999 0
M  V30 4791 H 448.805 4.40386 -0.388924 0
M  V30 4792 N 447.864 1.01787 1.20321 0
M  V30 4793 C 449.112 0.706538 1.89347 0
M  V30 4794 C 449.433 -0.766289 1.79313 0
M  V30 4795 O 448.703 -1.55126 1.19635 0
M  V30 4796 H 447.283 0.258348 0.700903 0
M  V30 4797 H 449.945 1.28974 1.46122 0
M  V30 4798 H 449.041 0.991066 2.95946 0
M  V30 4799 N 449.342 -1.36122 0.79427 0
M  V30 4800 C 450.588 -1.99846 0.378542 0
M  V30 4801 C 450.943 -1.61898 -1.03955 0
M  V30 4802 O 450.236 -0.866013 -1.70912 0
M  V30 4803 C 450.43 -3.5409 0.48527 0
M  V30 4804 C 450.259 -4.0702 1.91219 0
M  V30 4805 C 449.029 -4.36944 2.53787 0
M  V30 4806 C 451.227 -4.26435 2.87502 0
M  V30 4807 N 449.209 -4.75727 3.88017 0
M  V30 4808 C 450.58 -4.68077 4.06576 0
M  V30 4809 C 452.635 -4.08616 2.84495 0
M  V30 4810 C 451.338 -4.93765 5.23057 0
M  V30 4811 C 453.364 -4.35453 4.00169 0
M  V30 4812 C 452.726 -4.77355 5.17988 0
M  V30 4813 H 448.825 -0.759549 0.186034 0
M  V30 4814 H 451.409 -1.65043 1.0329 0
M  V30 4815 H 449.58 -3.88151 -0.139023 0
M  V30 4816 H 451.312 -4.04675 0.0453192 0
M  V30 4817 H 448.067 -4.26822 2.05231 0
M  V30 4818 H 448.491 -4.99396 4.57092 0
M  V30 4819 H 453.133 -3.75373 1.94564 0
M  V30 4820 H 450.851 -5.25887 6.1357 0
M  V30 4821 H 454.437 -4.2323 3.99208 0
M  V30 4822 H 453.317 -4.97718 6.06008 0
M  V30 4823 N 450.82 -0.546701 -1.47814 0
M  V30 4824 C 452.067 -0.0187407 -2.02491 0
M  V30 4825 C 452.395 1.32685 -1.42215 0
M  V30 4826 O 451.65 1.87413 -0.563454 0
M  V30 4827 C 451.949 0.134869 -3.57145 0
M  V30 4828 C 451.615 -1.13849 -4.3629 0
M  V30 4829 C 450.277 -1.48743 -4.57634 0
M  V30 4830 C 452.629 -1.98277 -4.82012 0
M  V30 4831 C 449.957 -2.67932 -5.21948 0
M  V30 4832 C 452.309 -3.16659 -5.4764 0
M  V30 4833 C 450.973 -3.51879 -5.67219 0
M  V30 4834 H 450.243 -0.0068577 -0.740968 0
M  V30 4835 H 452.89 -0.716097 -1.77607 0
M  V30 4836 H 451.195 0.915118 -3.80963 0
M  V30 4837 H 452.892 0.558556 -3.97091 0
M  V30 4838 H 449.482 -0.856767 -4.19949 0
M  V30 4839 H 453.666 -1.72628 -4.6531 0
M  V30 4840 H 448.922 -2.95401 -5.35302 0
M  V30 4841 H 453.096 -3.82374 -5.82033 0
M  V30 4842 H 450.723 -4.44331 -6.16825 0
M  V30 4843 N 452.299 1.55045 -0.282633 0
M  V30 4844 C 453.547 1.99365 0.331334 0
M  V30 4845 C 453.868 1.1725 1.55812 0
M  V30 4846 O 453.138 0.263871 1.94115 0
M  V30 4847 H 451.718 0.736397 0.125414 0
M  V30 4848 H 454.38 1.90964 -0.389711 0
M  V30 4849 H 453.476 3.0596 0.616036 0
M  V30 4850 N 453.777 0.010035 1.57597 0
M  V30 4851 C 454.727 -0.986858 2.05536 0
M  V30 4852 C 455.711 -1.29711 0.952042 0
M  V30 4853 O 456.903 -1.28641 1.21575 0
M  V30 4854 C 454.032 -2.2756 2.57043 0
M  V30 4855 C 453.118 -1.99455 3.74271 0
M  V30 4856 N 453.509 -1.41546 4.85591 0
M  V30 4857 C 451.807 -2.29547 3.82393 0
M  V30 4858 C 452.508 -1.3014 5.66956 0
M  V30 4859 N 451.484 -1.79044 5.13268 0
M  V30 4860 H 455.286 -0.533778 2.89012 0
M  V30 4861 H 452.8 -0.195432 1.6122 0
M  V30 4862 H 454.797 -2.99829 2.89669 0
M  V30 4863 H 453.457 -2.73512 1.7499 0
M  V30 4864 H 454.468 -1.09294 5.06236 0
M  V30 4865 H 451.145 -2.78304 3.11213 0
M  V30 4866 H 452.535 -0.855237 6.66435 0
M  V30 4867 N 455.255 -1.55392 -0.262866 0
M  V30 4868 C 456.165 -1.92077 -1.34698 0
M  V30 4869 C 457.181 -0.819227 -1.53508 0
M  V30 4870 O 458.357 -1.11921 -1.67439 0
M  V30 4871 C 455.422 -2.19407 -2.68443 0
M  V30 4872 C 454.483 -3.42905 -2.58292 0
M  V30 4873 C 453.716 -3.68921 -3.85659 0
M  V30 4874 O 453.939 -2.97275 -4.8681 0
M  V30 4875 O 452.873 -4.62455 -3.85252 0
M  V30 4876 H 456.699 -2.84384 -1.06581 0
M  V30 4877 H 454.284 -1.42069 -0.462264 0
M  V30 4878 H 456.166 -2.38365 -3.47506 0
M  V30 4879 H 454.841 -1.30282 -2.96325 0
M  V30 4880 H 453.748 -3.29272 -1.7757 0
M  V30 4881 H 455.081 -4.32282 -2.35358 0
M  V30 4882 N 456.733 0.527833 -1.48498 0
M  V30 4883 C 457.663 1.64136 -1.66077 0
M  V30 4884 C 458.644 1.62286 -0.509625 0
M  V30 4885 O 459.829 1.79449 -0.742413 0
M  V30 4886 C 456.959 3.02717 -1.70234 0
M  V30 4887 C 455.913 3.19426 -2.8487 0
M  V30 4888 C 455.239 4.5909 -2.74118 0
M  V30 4889 C 456.539 3.01993 -4.26142 0
M  V30 4890 H 458.233 1.4968 -2.593 0
M  V30 4891 H 455.779 0.718654 -1.24785 0
M  V30 4892 H 457.732 3.80491 -1.8112 0
M  V30 4893 H 456.456 3.18201 -0.735911 0
M  V30 4894 H 455.115 2.4407 -2.73542 0
M  V30 4895 H 454.763 4.71413 -1.7544 0
M  V30 4896 H 454.463 4.71214 -3.51042 0
M  V30 4897 H 455.987 5.3896 -2.86974 0
M  V30 4898 H 457.401 3.69558 -4.38292 0
M  V30 4899 H 455.798 3.2561 -5.04082 0
M  V30 4900 H 456.868 1.98396 -4.42456 0
M  V30 4901 N 458.211 1.37122 0.776871 0
M  V30 4902 C 459.436 1.354 1.57104 0
M  V30 4903 C 459.861 -0.0595562 1.88006 0
M  V30 4904 O 459.219 -1.03514 1.48844 0
M  V30 4905 C 459.267 2.19472 2.8612 0
M  V30 4906 O 458.371 1.59582 3.80273 0
M  V30 4907 H 457.712 0.462869 0.476076 0
M  V30 4908 H 460.242 1.80577 0.961932 0
M  V30 4909 H 460.252 2.32502 3.35271 0
M  V30 4910 H 458.927 3.22222 2.62956 0
M  V30 4911 H 457.504 1.55564 3.38902 0
M  V30 4912 N 459.689 -1.00246 1.21608 0
M  V30 4913 C 460.917 -1.77631 1.06089 0
M  V30 4914 C 461.332 -1.84746 -0.38916 0
M  V30 4915 O 460.689 -1.31068 -1.26994 0
M  V30 4916 C 460.74 -3.21415 1.65453 0
M  V30 4917 O 460.461 -3.14703 3.04785 0
M  V30 4918 C 461.962 -4.15289 1.55079 0
M  V30 4919 H 459.182 -0.558162 0.37242 0
M  V30 4920 H 461.726 -1.26093 1.60999 0
M  V30 4921 H 459.881 -3.70053 1.14629 0
M  V30 4922 H 460.295 -4.05056 3.33212 0
M  V30 4923 H 461.769 -5.13965 2.01355 0
M  V30 4924 H 462.246 -4.36279 0.505665 0
M  V30 4925 H 462.852 -3.72543 2.05163 0
M  V30 4926 N 461.167 -1.02423 -1.1978 0
M  V30 4927 C 462.583 -0.740459 -1.41384 0
M  V30 4928 C 462.783 0.676827 -1.89793 0
M  V30 4929 O 461.839 1.4435 -2.0717 0
M  V30 4930 C 463.152 -1.77264 -2.42895 0
M  V30 4931 C 464.7 -1.79165 -2.56649 0
M  V30 4932 C 465.175 -2.8133 -3.6141 0
M  V30 4933 N 466.666 -2.80118 -3.68901 0
M  V30 4934 C 467.401 -3.55824 -4.49641 0
M  V30 4935 N 466.897 -4.41231 -5.34123 0
M  V30 4936 N 468.69 -3.44387 -4.44246 0
M  V30 4937 H 460.841 -1.9391 -0.866764 0
M  V30 4938 H 463.104 -0.838074 -0.443098 0
M  V30 4939 H 462.81 -2.7884 -2.14339 0
M  V30 4940 H 462.684 -1.59108 -3.42001 0
M  V30 4941 H 465.071 -0.782702 -2.84531 0
M  V30 4942 H 465.152 -2.01396 -1.57713 0
M  V30 4943 H 464.796 -3.82394 -3.34271 0
M  V30 4944 H 464.726 -2.56359 -4.59986 0
M  V30 4945 H 467.217 -2.1817 -3.08562 0
M  V30 4946 H 467.53 -4.95747 -5.92836 0
M  V30 4947 H 465.875 -4.45306 -5.33599 0
M  V30 4948 H 469.066 -2.7708 -3.77285 0
M  V30 4949 H 469.239 -4.0364 -5.06931 0
M  V30 4950 N 462.645 1.35699 -0.801477 0
M  V30 4951 C 463.892 1.98913 -0.379459 0
M  V30 4952 C 464.22 1.63592 1.05204 0
M  V30 4953 O 463.475 0.888563 1.74365 0
M  V30 4954 C 463.774 3.53828 -0.504041 0
M  V30 4955 C 463.44 4.09002 -1.8981 0
M  V30 4956 C 462.102 4.23783 -2.27951 0
M  V30 4957 C 464.454 4.38939 -2.81038 0
M  V30 4958 C 461.782 4.65816 -3.56696 0
M  V30 4959 C 464.134 4.82409 -4.09224 0
M  V30 4960 C 462.798 4.95395 -4.4737 0
M  V30 4961 H 462.068 0.727874 -0.138854 0
M  V30 4962 H 464.715 1.61994 -1.02128 0
M  V30 4963 H 463.02 3.91175 0.221242 0
M  V30 4964 H 464.717 4.00687 -0.158361 0
M  V30 4965 H 461.307 3.97946 -1.59176 0
M  V30 4966 H 465.491 4.27077 -2.52821 0
M  V30 4967 H 460.747 4.74059 -3.86106 0
M  V30 4968 H 464.921 5.04535 -4.80018 0
M  V30 4969 H 462.548 5.27724 -5.47185 0
M  V30 4970 N 464.123 0.554532 1.47522 0
M  V30 4971 C 465.07 -0.19466 2.29978 0
M  V30 4972 C 466.04 -0.910882 1.38896 0
M  V30 4973 O 467.225 -0.907102 1.67858 0
M  V30 4974 C 464.365 -1.22035 3.22802 0
M  V30 4975 C 463.478 -0.510474 4.28973 0
M  V30 4976 C 462.613 -1.52123 5.08952 0
M  V30 4977 C 461.652 -0.796173 6.069 0
M  V30 4978 N 460.789 -1.75363 6.79847 0
M  V30 4979 H 465.629 0.51461 2.93523 0
M  V30 4980 H 463.166 0.265607 1.44682 0
M  V30 4981 H 465.124 -1.8276 3.7504 0
M  V30 4982 H 463.754 -1.89769 2.61127 0
M  V30 4983 H 462.806 0.211234 3.79813 0
M  V30 4984 H 464.118 0.0576503 4.98767 0
M  V30 4985 H 463.272 -2.20207 5.65326 0
M  V30 4986 H 462.011 -2.12327 4.39054 0
M  V30 4987 H 461.016 -0.101388 5.49707 0
M  V30 4988 H 462.241 -0.199911 6.78806 0
M  V30 4989 H 460.187 -2.3443 6.12682 0
M  V30 4990 H 460.104 -1.23759 7.45801 0
M  V30 4991 H 461.372 -2.4257 7.40797 0
M  V30 4992 N 465.601 -1.54893 0.290851 0
M  V30 4993 C 466.534 -2.19289 -0.631489 0
M  V30 4994 C 467.512 -1.15893 -1.14051 0
M  V30 4995 O 468.696 -1.4449 -1.21058 0
M  V30 4996 C 465.823 -2.82866 -1.86291 0
M  V30 4997 C 464.869 -3.997 -1.48801 0
M  V30 4998 S 465.702 -5.32641 -0.552644 0
M  V30 4999 C 466.858 -5.99696 -1.79209 0
M  V30 5000 H 467.091 -2.9718 -0.0843791 0
M  V30 5001 H 464.624 -1.54218 0.075031 0
M  V30 5002 H 466.582 -3.20124 -2.56964 0
M  V30 5003 H 465.243 -2.04839 -2.38117 0
M  V30 5004 H 464.436 -4.42932 -2.40473 0
M  V30 5005 H 464.038 -3.63947 -0.861321 0
M  V30 5006 H 466.33 -6.19886 -2.734 0
M  V30 5007 H 467.273 -6.94071 -1.40251 0
M  V30 5008 H 467.681 -5.29226 -1.96419 0
M  V30 5009 N 467.08 -0.0183926 -1.57589 0
M  V30 5010 C 468.357 0.700621 -1.82622 0
M  V30 5011 C 468.737 1.90951 -0.90005 0
M  V30 5012 O 468.085 2.28452 0.0469145 0
M  V30 5013 C 468.295 1.08899 -3.31575 0
M  V30 5014 C 469.643 1.48514 -3.9778 0
M  V30 5015 O 470.667 1.18227 -3.36007 0
M  V30 5016 O 469.526 2.04903 -5.06633 0
M  V30 5017 H 466.62 0.342743 -0.752633 0
M  V30 5018 H 469.166 -0.0452548 -1.6964 0
M  V30 5019 H 467.938 0.228113 -3.90635 0
M  V30 5020 H 467.561 1.89338 -3.49624 0
M  V30 5021 N 468.558 1.5553 0.254621 0
M  V30 5022 C 469.506 1.9048 1.33492 0
M  V30 5023 C 470.5 0.78304 1.50216 0
M  V30 5024 O 471.706 0.967582 1.51782 0
M  V30 5025 H 468.081 0.604846 0.44684 0
M  V30 5026 H 470.052 2.80688 1.01275 0
M  V30 5027 C 468.801 2.20928 2.68489 0
M  V30 5028 H 468.124 3.06742 2.56417 0
M  V30 5029 H 469.564 2.49291 3.42972 0
M  V30 5030 C 468.023 1.023 3.20993 0
M  V30 5031 O 468.553 0.267027 4.00811 0
M  V30 5032 N 466.759 0.815714 2.78917 0
M  V30 5033 H 466.306 1.43217 2.14119 0
M  V30 5034 H 466.264 0.0236532 3.14391 0
M  V30 5035 N 470.036 -0.519951 1.48776 0
M  V30 5036 C 470.983 -1.62352 1.64044 0
M  V30 5037 C 471.953 -1.58945 0.482251 0
M  V30 5038 O 473.138 -1.77219 0.706971 0
M  V30 5039 C 470.278 -3.00579 1.69547 0
M  V30 5040 C 469.391 -3.14145 2.96541 0
M  V30 5041 C 468.526 -4.42991 2.93142 0
M  V30 5042 C 467.565 -4.50122 4.14797 0
M  V30 5043 N 466.702 -5.7037 4.09418 0
M  V30 5044 H 471.542 -1.48643 2.58281 0
M  V30 5045 H 469.079 -0.723516 1.28077 0
M  V30 5046 H 471.037 -3.80671 1.70719 0
M  V30 5047 H 469.667 -3.13036 0.787918 0
M  V30 5048 H 468.719 -2.27239 3.05068 0
M  V30 5049 H 470.031 -3.15275 3.86527 0
M  V30 5050 H 469.185 -5.31385 2.92772 0
M  V30 5051 H 467.924 -4.44398 2.00902 0
M  V30 5052 H 466.929 -3.60133 4.15433 0
M  V30 5053 H 468.154 -4.50445 5.08208 0
M  V30 5054 H 466.1 -5.72655 3.20004 0
M  V30 5055 H 466.017 -5.73036 4.93119 0
M  V30 5056 H 467.285 -6.61023 4.13121 0
M  V30 5057 N 471.514 -1.37532 -0.769588 0
M  V30 5058 C 472.444 -1.36172 -1.89682 0
M  V30 5059 C 473.425 -0.23001 -1.68538 0
M  V30 5060 O 474.61 -0.43069 -1.89364 0
M  V30 5061 C 471.74 -1.1701 -3.26995 0
M  V30 5062 C 470.694 -2.27216 -3.62708 0
M  V30 5063 C 470.02 -1.93174 -4.98586 0
M  V30 5064 C 471.32 -3.6941 -3.69234 0
M  V30 5065 H 473.014 -2.30499 -1.91078 0
M  V30 5066 H 470.56 -1.10953 -0.917902 0
M  V30 5067 H 472.513 -1.14688 -4.05493 0
M  V30 5068 H 471.237 -0.191395 -3.26039 0
M  V30 5069 H 469.896 -2.28697 -2.86519 0
M  V30 5070 H 469.544 -0.938281 -4.94171 0
M  V30 5071 H 469.244 -2.66973 -5.23449 0
M  V30 5072 H 470.768 -1.92443 -5.79481 0
M  V30 5073 H 472.182 -3.70047 -4.37879 0
M  V30 5074 H 470.579 -4.4228 -4.05597 0
M  V30 5075 H 471.649 -4.0288 -2.69844 0
M  V30 5076 N 472.992 0.995999 -1.22138 0
M  V30 5077 C 473.924 2.08745 -0.946485 0
M  V30 5078 C 474.937 1.62633 0.0737356 0
M  V30 5079 O 476.126 1.77782 -0.159886 0
M  V30 5080 C 473.226 3.36516 -0.401305 0
M  V30 5081 C 472.399 4.11672 -1.47801 0
M  V30 5082 C 471.458 5.17728 -0.940461 0
M  V30 5083 O 470.484 5.45482 -1.62596 0
M  V30 5084 N 471.686 5.80005 0.239723 0
M  V30 5085 H 474.451 2.32908 -1.88611 0
M  V30 5086 H 472.012 1.16152 -1.12785 0
M  V30 5087 H 474.004 4.04691 -0.0270837 0
M  V30 5088 H 472.574 3.0944 0.443354 0
M  V30 5089 H 471.794 3.38171 -2.02568 0
M  V30 5090 H 473.082 4.58657 -2.20253 0
M  V30 5091 H 472.48 5.5982 0.813518 0
M  V30 5092 H 471.037 6.4943 0.555361 0
M  V30 5093 N 474.47 1.03057 1.19235 0
M  V30 5094 C 475.4 0.633497 2.24742 0
M  V30 5095 C 476.381 -0.358335 1.66283 0
M  V30 5096 O 477.566 -0.240676 1.92703 0
M  V30 5097 C 474.696 -0.0147648 3.47297 0
M  V30 5098 C 473.65 0.899527 4.18441 0
M  V30 5099 C 472.976 0.116281 5.34574 0
M  V30 5100 C 474.276 2.21404 4.73051 0
M  V30 5101 H 475.97 1.5155 2.58211 0
M  V30 5102 H 473.516 0.73014 1.24117 0
M  V30 5103 H 475.469 -0.304202 4.20301 0
M  V30 5104 H 474.193 -0.931577 3.13032 0
M  V30 5105 H 472.852 1.17319 3.47321 0
M  V30 5106 H 472.5 -0.802619 4.96555 0
M  V30 5107 H 472.2 0.725293 5.83107 0
M  V30 5108 H 473.724 -0.166376 6.10373 0
M  V30 5109 H 475.138 1.98601 5.37802 0
M  V30 5110 H 473.535 2.77512 5.32078 0
M  V30 5111 H 474.605 2.86752 3.91026 0
M  V30 5112 N 475.948 -1.35272 0.808662 0
M  V30 5113 C 477.197 -1.97963 0.386483 0
M  V30 5114 C 477.51 -1.64866 -1.05255 0
M  V30 5115 O 478.716 -2.20937 -1.57794 0
M  V30 5116 C 477.172 -3.54162 0.640096 0
M  V30 5117 C 476.78 -3.96166 2.0918 0
M  V30 5118 C 478.524 -4.23553 0.283376 0
M  V30 5119 C 476.431 -5.4522 2.29106 0
M  V30 5120 H 475.361 -0.740742 0.140774 0
M  V30 5121 H 478.012 -1.5431 0.993012 0
M  V30 5122 H 476.394 -3.95983 -0.0364117 0
M  V30 5123 H 477.568 -3.65491 2.80629 0
M  V30 5124 H 475.883 -3.3967 2.40859 0
M  V30 5125 H 478.48 -5.33124 0.410273 0
M  V30 5126 H 478.823 -4.09105 -0.770659 0
M  V30 5127 H 479.356 -3.8716 0.913884 0
M  V30 5128 H 476.095 -5.64638 3.32962 0
M  V30 5129 H 475.615 -5.77457 1.62184 0
M  V30 5130 H 477.294 -6.1171 2.1076 0
M  V30 5131 N 477.426 -0.562348 -1.47226 0
M  V30 5132 C 478.837 -0.130325 -1.86245 0
M  V30 5133 C 479.188 1.30128 -1.46838 0
M  V30 5134 O 478.313 1.97974 -0.873805 0
M  V30 5135 C 478.908 -0.229738 -3.3802 0
M  V30 5136 C 477.467 0.14728 -3.76112 0
M  V30 5137 C 476.614 -0.574971 -2.71274 0
M  V30 5138 H 479.565 -0.771773 -1.3867 0
M  V30 5139 H 479.586 0.550316 -3.76499 0
M  V30 5140 H 479.098 -1.27178 -3.66671 0
M  V30 5141 H 477.199 1.19023 -3.53078 0
M  V30 5142 H 477.312 -0.214858 -4.78618 0
M  V30 5143 H 475.676 -0.0174756 -2.54694 0
M  V30 5144 H 476.459 -1.61827 -3.02766 0
M  V30 5145 N 478.904 1.54736 -0.299062 0
M  V30 5146 C 480.152 1.99706 0.31017 0
M  V30 5147 C 480.473 1.18896 1.54559 0
M  V30 5148 O 479.743 0.284445 1.93824 0
M  V30 5149 H 478.323 0.737686 0.117596 0
M  V30 5150 H 480.985 1.9054 -0.409943 0
M  V30 5151 H 480.081 3.06596 0.58355 0
M  V30 5152 N 480.382 0.0267497 1.57577 0
M  V30 5153 C 481.628 -0.653371 1.91987 0
M  V30 5154 C 481.961 -1.71915 0.903263 0
M  V30 5155 O 481.236 -1.94358 -0.0743387 0
M  V30 5156 C 481.519 -1.272 3.36886 0
M  V30 5157 C 481.372 -0.215938 4.49281 0
M  V30 5158 C 482.691 -2.19069 3.81703 0
M  V30 5159 H 479.81 -0.236047 0.698177 0
M  V30 5160 H 482.452 0.0835236 1.89816 0
M  V30 5161 H 480.602 -1.90005 3.38866 0
M  V30 5162 H 482.274 0.41449 4.59434 0
M  V30 5163 H 480.517 0.458855 4.31366 0
M  V30 5164 H 481.188 -0.688347 5.47691 0
M  V30 5165 H 483.664 -1.66253 3.81444 0
M  V30 5166 H 482.54 -2.59307 4.83788 0
M  V30 5167 H 482.801 -3.08087 3.17072 0
M  V30 5168 N 481.861 -1.55662 -0.24637 0
M  V30 5169 C 483.101 -1.79283 -0.981685 0
M  V30 5170 C 483.465 -0.596356 -1.82504 0
M  V30 5171 O 484.666 -0.711342 -2.59217 0
M  V30 5172 C 482.937 -3.07648 -1.819 0
M  V30 5173 S 484.496 -3.52491 -2.61334 0
M  V30 5174 H 481.314 -0.629676 -0.330196 0
M  V30 5175 H 483.916 -1.93901 -0.249498 0
M  V30 5176 H 482.62 -3.92794 -1.18915 0
M  V30 5177 H 482.151 -2.95768 -2.59393 0
M  V30 5178 H 484.166 -3.13866 -3.84321 0
M  V30 5179 N 483.339 0.512053 -1.4905 0
M  V30 5180 C 484.587 1.26436 -1.57665 0
M  V30 5181 C 484.908 1.93255 -0.260293 0
M  V30 5182 O 484.178 1.82206 0.719564 0
M  V30 5183 H 482.758 0.469658 -0.580888 0
M  V30 5184 H 485.42 0.594398 -1.85615 0
M  V30 5185 H 484.516 2.03417 -2.36702 0
M  V30 5186 N 484.817 1.37938 0.762283 0
M  V30 5187 C 486.064 1.33668 1.52115 0
M  V30 5188 C 486.392 -0.0759538 1.94352 0
M  V30 5189 O 485.647 -1.05121 1.6507 0
M  V30 5190 C 485.946 2.23042 2.79261 0
M  V30 5191 C 485.612 3.71159 2.56031 0
M  V30 5192 C 484.274 4.11523 2.49404 0
M  V30 5193 C 486.626 4.64955 2.35513 0
M  V30 5194 C 483.954 5.43784 2.20263 0
M  V30 5195 C 486.306 5.97464 2.07894 0
M  V30 5196 C 484.97 6.36922 1.99718 0
M  V30 5197 H 484.24 0.489127 0.556629 0
M  V30 5198 H 486.887 1.70224 0.877262 0
M  V30 5199 H 485.192 1.79512 3.48256 0
M  V30 5200 H 486.889 2.17047 3.37182 0
M  V30 5201 H 483.479 3.39153 2.62056 0
M  V30 5202 H 487.663 4.34623 2.39617 0
M  V30 5203 H 482.919 5.73307 2.12435 0
M  V30 5204 H 487.093 6.6969 1.91019 0
M  V30 5205 H 484.72 7.39331 1.76902 0
M  V30 5206 N 486.295 -0.989507 1.22664 0
M  V30 5207 C 487.711 -1.25395 0.987331 0
M  V30 5208 C 487.911 -1.9899 -0.317056 0
M  V30 5209 O 486.967 -2.30141 -1.03882 0
M  V30 5210 C 488.28 -2.06242 2.18826 0
M  V30 5211 C 489.828 -2.19413 2.23219 0
M  V30 5212 C 490.303 -3.03648 3.42873 0
M  V30 5213 N 491.794 -3.11234 3.43056 0
M  V30 5214 C 492.529 -3.7671 4.32293 0
M  V30 5215 N 492.025 -4.44085 5.31752 0
M  V30 5216 N 493.818 -3.73505 4.2006 0
M  V30 5217 H 485.969 -0.496212 2.06522 0
M  V30 5218 H 488.232 -0.281784 0.905153 0
M  V30 5219 H 487.938 -1.59531 3.13437 0
M  V30 5220 H 487.812 -3.06996 2.19165 0
M  V30 5221 H 490.199 -2.65336 1.29154 0
M  V30 5222 H 490.28 -1.18078 2.26917 0
M  V30 5223 H 489.924 -2.58424 4.37241 0
M  V30 5224 H 489.854 -4.05132 3.36416 0
M  V30 5225 H 492.345 -2.63287 2.71088 0
M  V30 5226 H 492.658 -4.91797 5.96117 0
M  V30 5227 H 491.003 -4.42822 5.35662 0
M  V30 5228 H 494.194 -3.20033 3.41609 0
M  V30 5229 H 494.367 -4.24253 4.8981 0
M  V30 5230 N 487.773 -1.03688 -1.18687 0
M  V30 5231 C 489.022 -0.733235 -1.879 0
M  V30 5232 C 489.335 0.741745 -1.8099 0
M  V30 5233 O 490.541 1.15875 -2.4553 0
M  V30 5234 C 488.997 -1.26127 -3.37076 0
M  V30 5235 C 488.605 -2.76461 -3.52524 0
M  V30 5236 C 490.349 -1.03398 -4.11715 0
M  V30 5237 C 488.256 -3.22642 -4.95637 0
M  V30 5238 H 487.186 -0.270584 -0.703776 0
M  V30 5239 H 489.837 -1.25222 -1.34133 0
M  V30 5240 H 488.219 -0.670165 -3.90288 0
M  V30 5241 H 489.393 -3.41296 -3.09602 0
M  V30 5242 H 487.708 -2.97559 -2.91286 0
M  V30 5243 H 490.305 -1.3542 -5.17267 0
M  V30 5244 H 490.648 0.0289246 -4.1629 0
M  V30 5245 H 491.181 -1.5895 -3.64664 0
M  V30 5246 H 487.92 -4.28296 -4.96228 0
M  V30 5247 H 487.44 -2.62539 -5.39289 0
M  V30 5248 H 489.119 -3.16444 -5.64333 0
M  V30 5249 N 489.251 1.34841 -0.815825 0
M  V30 5250 C 490.476 2.03261 -0.41226 0
M  V30 5251 C 490.901 1.61055 0.971751 0
M  V30 5252 O 490.259 0.7917 1.63101 0
M  V30 5253 C 490.307 3.56914 -0.514289 0
M  V30 5254 O 489.411 4.09728 0.468675 0
M  V30 5255 H 488.752 0.641664 -0.170771 0
M  V30 5256 H 491.282 1.72241 -1.10427 0
M  V30 5257 H 491.292 4.06156 -0.387457 0
M  V30 5258 H 489.967 3.86982 -1.52375 0
M  V30 5259 H 488.544 3.71681 0.301316 0
M  V30 5260 N 490.729 0.570148 1.46925 0
M  V30 5261 C 491.677 -0.183181 2.31878 0
M  V30 5262 C 492.671 -0.896721 1.43719 0
M  V30 5263 O 493.877 -0.816536 1.60414 0
M  V30 5264 H 490.252 -0.077944 0.74795 0
M  V30 5265 H 492.223 0.552312 2.93244 0
M  V30 5266 C 490.972 -1.19172 3.2664 0
M  V30 5267 H 490.295 -0.652088 3.94446 0
M  V30 5268 H 491.735 -1.68946 3.88887 0
M  V30 5269 C 490.194 -2.24627 2.51086 0
M  V30 5270 O 490.724 -3.31773 2.26472 0
M  V30 5271 N 488.93 -1.98898 2.11867 0
M  V30 5272 H 488.477 -1.11777 2.32086 0
M  V30 5273 H 488.435 -2.6967 1.61634 0
M  V30 5274 N 492.207 -1.54576 0.307264 0
M  V30 5275 C 493.618 -1.8579 -0.184121 0
M  V30 5276 C 493.969 -1.22914 -1.52927 0
M  V30 5277 O 493.094 -0.529126 -2.09831 0
M  V30 5278 C 493.689 -3.37081 -0.340862 0
M  V30 5279 C 492.248 -3.68304 -0.776465 0
M  V30 5280 C 491.395 -2.77076 0.111503 0
M  V30 5281 H 494.346 -1.49656 0.528078 0
M  V30 5282 H 494.367 -3.61922 -1.17443 0
M  V30 5283 H 493.879 -3.82815 0.638309 0
M  V30 5284 H 491.98 -3.28092 -1.76596 0
M  V30 5285 H 492.093 -4.75434 -0.591512 0
M  V30 5286 H 490.457 -2.51374 -0.410256 0
M  V30 5287 H 491.24 -3.25632 1.08714 0
M  V30 5288 N 493.685 -0.035106 -1.57561 0
M  V30 5289 C 495.096 0.502885 -1.798 0
M  V30 5290 C 495.447 1.71892 -0.945921 0
M  V30 5291 O 494.572 2.15822 -0.157991 0
M  V30 5292 C 495.167 0.919097 -3.26095 0
M  V30 5293 C 493.726 1.40216 -3.49308 0
M  V30 5294 C 492.873 0.369709 -2.74824 0
M  V30 5295 H 495.824 -0.261102 -1.56537 0
M  V30 5296 H 495.845 1.78308 -3.36135 0
M  V30 5297 H 495.357 0.0338526 -3.88085 0
M  V30 5298 H 493.458 2.30714 -2.92578 0
M  V30 5299 H 493.571 1.40541 -4.58023 0
M  V30 5300 H 491.935 0.839113 -2.40481 0
M  V30 5301 H 492.718 -0.507173 -3.39533 0
M  V30 5302 N 495.163 1.55791 0.238111 0
M  V30 5303 C 496.412 1.77234 0.962868 0
M  V30 5304 C 496.725 0.600661 1.86149 0
M  V30 5305 O 497.931 0.698315 2.62366 0
M  V30 5306 C 496.387 3.13808 1.76218 0
M  V30 5307 C 495.995 4.3865 0.910518 0
M  V30 5308 C 497.739 3.44585 2.47914 0
M  V30 5309 C 495.646 5.66252 1.70623 0
M  V30 5310 H 494.576 0.660731 0.36325 0
M  V30 5311 H 497.227 1.8221 0.217242 0
M  V30 5312 H 495.609 3.02963 2.55009 0
M  V30 5313 H 496.783 4.60507 0.164316 0
M  V30 5314 H 495.098 4.15271 0.30647 0
M  V30 5315 H 497.695 4.3714 3.07917 0
M  V30 5316 H 498.038 2.66314 3.19973 0
M  V30 5317 H 498.571 3.56685 1.76127 0
M  V30 5318 H 495.31 6.47369 1.02923 0
M  V30 5319 H 494.83 5.48483 2.42748 0
M  V30 5320 H 496.509 6.05829 2.27114 0
M  V30 5321 N 496.642 -0.504142 1.49319 0
M  V30 5322 C 497.572 -1.61473 1.68667 0
M  V30 5323 C 498.553 -1.61455 0.535378 0
M  V30 5324 O 499.738 -1.78245 0.770868 0
M  V30 5325 C 496.868 -2.99971 1.75028 0
M  V30 5326 C 495.822 -3.14854 2.89916 0
M  V30 5327 C 495.148 -4.54671 2.81387 0
M  V30 5328 C 496.448 -2.95176 4.30893 0
M  V30 5329 H 498.142 -1.45535 2.61648 0
M  V30 5330 H 495.688 -0.698711 1.25913 0
M  V30 5331 H 497.641 -3.77562 1.8715 0
M  V30 5332 H 496.365 -3.1699 0.786441 0
M  V30 5333 H 495.024 -2.39687 2.77391 0
M  V30 5334 H 494.672 -4.68562 1.82917 0
M  V30 5335 H 494.372 -4.6557 3.58494 0
M  V30 5336 H 495.896 -5.34327 2.95512 0
M  V30 5337 H 497.31 -3.62538 4.44116 0
M  V30 5338 H 495.707 -3.17549 5.09198 0
M  V30 5339 H 496.777 -1.91332 4.45556 0
M  V30 5340 N 498.12 -1.38341 -0.754957 0
M  V30 5341 C 499.05 -1.38176 -1.88227 0
M  V30 5342 C 500.031 -0.247873 -1.68284 0
M  V30 5343 O 501.216 -0.45075 -1.88896 0
M  V30 5344 C 498.346 -1.20471 -3.25736 0
M  V30 5345 C 497.3 -2.3105 -3.60278 0
M  V30 5346 C 496.626 -1.98452 -4.96509 0
M  V30 5347 C 497.926 -3.73305 -3.65295 0
M  V30 5348 H 499.62 -2.32512 -1.88622 0
M  V30 5349 H 497.166 -1.1192 -0.906082 0
M  V30 5350 H 499.119 -1.18982 -4.04254 0
M  V30 5351 H 497.843 -0.225965 -3.25817 0
M  V30 5352 H 496.502 -2.31723 -2.84078 0
M  V30 5353 H 496.15 -0.990641 -4.93148 0
M  V30 5354 H 495.85 -2.7251 -5.20588 0
M  V30 5355 H 497.374 -1.98578 -5.77407 0
M  V30 5356 H 498.788 -3.7467 -4.3393 0
M  V30 5357 H 497.185 -4.46557 -4.00883 0
M  V30 5358 H 498.255 -4.05719 -2.65556 0
M  V30 5359 N 499.598 0.982988 -1.23187 0
M  V30 5360 C 500.844 1.72648 -1.06398 0
M  V30 5361 C 501.177 1.90066 0.398561 0
M  V30 5362 O 500.452 1.45105 1.29518 0
M  V30 5363 C 500.735 3.12627 -1.78707 0
M  V30 5364 C 500.588 3.02795 -3.32618 0
M  V30 5365 C 501.907 4.11997 -1.54747 0
M  V30 5366 H 499.026 0.626649 -0.387918 0
M  V30 5367 H 501.668 1.14455 -1.51658 0
M  V30 5368 H 499.818 3.62308 -1.40234 0
M  V30 5369 H 501.49 2.60659 -3.80598 0
M  V30 5370 H 499.733 2.39362 -3.61785 0
M  V30 5371 H 500.404 4.01893 -3.78399 0
M  V30 5372 H 502.88 3.71114 -1.88186 0
M  V30 5373 H 501.756 5.08037 -2.07821 0
M  V30 5374 H 502.017 4.39462 -0.482249 0
M  V30 5375 N 501.076 1.04316 1.18135 0
M  V30 5376 C 502.316 0.756937 1.89868 0
M  V30 5377 C 502.68 -0.702609 1.78682 0
M  V30 5378 O 503.881 -1.10255 2.45148 0
M  V30 5379 C 502.152 1.21327 3.36176 0
M  V30 5380 S 503.711 1.05307 4.25976 0
M  V30 5381 H 500.529 0.275143 0.655604 0
M  V30 5382 H 503.131 1.33597 1.42731 0
M  V30 5383 H 501.835 2.27086 3.41848 0
M  V30 5384 H 501.366 0.628137 3.88353 0
M  V30 5385 H 503.381 -0.0280093 4.96192 0
M  V30 5386 N 502.554 -1.34406 0.822964 0
M  V30 5387 C 503.779 -2.0304 0.423034 0
M  V30 5388 C 504.204 -1.61568 -0.963196 0
M  V30 5389 O 503.562 -0.800339 -1.62678 0
M  V30 5390 C 503.61 -3.56636 0.53321 0
M  V30 5391 O 502.714 -4.09971 -0.446939 0
M  V30 5392 H 502.055 -0.64075 0.174171 0
M  V30 5393 H 504.585 -1.71653 1.11339 0
M  V30 5394 H 504.595 -4.05945 0.408991 0
M  V30 5395 H 503.27 -3.86168 1.54425 0
M  V30 5396 H 501.847 -3.71835 -0.281601 0
M  V30 5397 N 504.032 -0.577932 -1.46621 0
M  V30 5398 C 504.962 0.145917 -2.33044 0
M  V30 5399 C 505.943 0.888412 -1.45056 0
M  V30 5400 O 507.128 0.864812 -1.73881 0
M  V30 5401 C 504.258 1.16322 -3.27241 0
M  V30 5402 C 503.212 0.535868 -4.24632 0
M  V30 5403 C 502.538 1.65929 -5.08303 0
M  V30 5404 C 503.838 -0.523861 -5.19666 0
M  V30 5405 H 505.532 -0.575636 -2.93814 0
M  V30 5406 H 503.078 -0.278272 -1.41286 0
M  V30 5407 H 505.031 1.67793 -3.86553 0
M  V30 5408 H 503.755 1.91498 -2.64567 0
M  V30 5409 H 502.414 0.0422759 -3.66576 0
M  V30 5410 H 502.062 2.40061 -4.42018 0
M  V30 5411 H 501.762 1.2452 -5.74255 0
M  V30 5412 H 503.286 2.17686 -5.70478 0
M  V30 5413 H 504.7 -0.0944059 -5.73222 0
M  V30 5414 H 503.097 -0.858 -5.93935 0
M  V30 5415 H 504.167 -1.41197 -4.63887 0
M  V30 5416 N 505.51 1.54411 -0.315457 0
M  V30 5417 C 506.46 2.20772 0.569549 0
M  V30 5418 C 507.444 1.18551 1.08787 0
M  V30 5419 O 508.636 1.44213 1.02624 0
M  V30 5420 C 505.765 2.96293 1.73394 0
M  V30 5421 C 504.851 4.05844 1.2309 0
M  V30 5422 N 505.242 5.03822 0.446927 0
M  V30 5423 C 503.54 4.19648 1.51035 0
M  V30 5424 C 504.241 5.8143 0.17725 0
M  V30 5425 N 503.217 5.38245 0.761118 0
M  V30 5426 H 507.019 2.93877 -0.0368076 0
M  V30 5427 H 504.533 1.61949 -0.120915 0
M  V30 5428 H 506.53 3.42313 2.37965 0
M  V30 5429 H 505.19 2.24708 2.34386 0
M  V30 5430 H 506.201 5.17821 0.0905027 0
M  V30 5431 H 502.878 3.59274 2.1267 0
M  V30 5432 H 504.268 6.70369 -0.45335 0
M  V30 5433 N 506.988 0.0434614 1.5754 0
M  V30 5434 C 507.951 -0.918696 2.09982 0
M  V30 5435 C 508.951 -1.24488 1.01781 0
M  V30 5436 O 510.141 -1.18284 1.27885 0
M  V30 5437 C 507.273 -2.23093 2.57764 0
M  V30 5438 H 508.466 -0.464229 2.96285 0
M  V30 5439 H 506.019 -0.204818 1.54952 0
M  V30 5440 H 506.754 -2.73137 1.74832 0
M  V30 5441 H 506.539 -2.00724 3.36827 0
M  V30 5442 H 508.029 -2.92028 2.98512 0
M  V30 5443 N 508.466 -1.55915 -0.229846 0
M  V30 5444 C 509.691 -1.8296 -0.976743 0
M  V30 5445 C 510.116 -0.622735 -1.77493 0
M  V30 5446 O 509.474 0.428431 -1.76165 0
M  V30 5447 C 509.522 -3.07916 -1.8767 0
M  V30 5448 O 508.626 -2.86028 -2.97088 0
M  V30 5449 H 507.967 -0.603453 -0.277021 0
M  V30 5450 H 510.497 -2.0312 -0.245669 0
M  V30 5451 H 510.507 -3.37802 -2.2881 0
M  V30 5452 H 509.182 -3.95389 -1.28996 0
M  V30 5453 H 507.759 -2.67355 -2.59954 0
M  V30 5454 N 509.944 0.496216 -1.49584 0
M  V30 5455 C 510.874 1.60576 -1.69521 0
M  V30 5456 C 511.855 1.61169 -0.543933 0
M  V30 5457 O 513.04 1.77834 -0.78031 0
M  V30 5458 C 510.17 2.99038 -1.76616 0
M  V30 5459 C 509.124 3.13312 -2.91581 0
M  V30 5460 C 508.45 4.53172 -2.83794 0
M  V30 5461 C 509.75 2.92886 -4.32452 0
M  V30 5462 H 511.444 1.44146 -2.62416 0
M  V30 5463 H 508.99 0.692024 -1.26282 0
M  V30 5464 H 510.943 3.76564 -1.8915 0
M  V30 5465 H 509.667 3.16568 -0.80324 0
M  V30 5466 H 508.326 2.38213 -2.78658 0
M  V30 5467 H 507.974 4.67585 -1.854 0
M  V30 5468 H 507.674 4.63662 -3.60958 0
M  V30 5469 H 509.198 5.32752 -2.98342 0
M  V30 5470 H 510.612 3.60178 -4.46032 0
M  V30 5471 H 509.009 3.14844 -5.10875 0
M  V30 5472 H 510.079 1.88966 -4.46565 0
M  V30 5473 N 511.423 1.38739 0.74761 0
M  V30 5474 C 512.333 1.38696 1.89211 0
M  V30 5475 C 513.349 0.283303 1.71678 0
M  V30 5476 O 514.525 0.522713 1.94498 0
M  V30 5477 C 511.59 1.21662 3.24653 0
M  V30 5478 C 510.651 2.41886 3.54669 0
M  V30 5479 C 509.884 2.25655 4.83648 0
M  V30 5480 O 510.107 1.25339 5.56459 0
M  V30 5481 O 509.041 3.14372 5.13277 0
M  V30 5482 H 512.867 2.35143 1.92202 0
M  V30 5483 H 510.452 1.19721 0.893708 0
M  V30 5484 H 512.334 1.14246 4.05618 0
M  V30 5485 H 511.009 0.283024 3.2246 0
M  V30 5486 H 509.916 2.54877 2.73841 0
M  V30 5487 H 511.249 3.33895 3.61628 0
M  V30 5488 N 512.901 -0.976442 1.23707 0
M  V30 5489 C 514.15 -1.71254 1.06559 0
M  V30 5490 C 514.463 -1.91528 -0.397024 0
M  V30 5491 O 515.669 -2.62625 -0.688518 0
M  V30 5492 C 514.125 -3.08207 1.8584 0
M  V30 5493 C 513.733 -2.95806 3.36456 0
M  V30 5494 C 515.477 -3.85749 1.77194 0
M  V30 5495 C 513.384 -4.28015 4.08114 0
M  V30 5496 H 512.314 -0.642171 0.395136 0
M  V30 5497 H 514.965 -1.08877 1.4771 0
M  V30 5498 H 513.347 -3.71363 1.37498 0
M  V30 5499 H 514.521 -2.41716 3.92314 0
M  V30 5500 H 512.836 -2.31736 3.45959 0
M  V30 5501 H 515.433 -4.83633 2.28041 0
M  V30 5502 H 515.776 -4.09752 0.735477 0
M  V30 5503 H 516.309 -3.29303 2.23169 0
M  V30 5504 H 513.048 -4.09208 5.12083 0
M  V30 5505 H 512.568 -4.81955 3.57043 0
M  V30 5506 H 514.247 -4.96681 4.14629 0
M  V30 5507 N 514.379 -1.04941 -1.1758 0
M  V30 5508 C 515.626 -0.757989 -1.87779 0
M  V30 5509 C 515.954 0.714827 -1.80888 0
M  V30 5510 O 515.209 1.53824 -1.20982 0
M  V30 5511 C 515.508 -1.18062 -3.37337 0
M  V30 5512 C 515.174 -2.65521 -3.6443 0
M  V30 5513 C 513.836 -3.05804 -3.71534 0
M  V30 5514 C 516.188 -3.60822 -3.76108 0
M  V30 5515 C 513.516 -4.40256 -3.87803 0
M  V30 5516 C 515.868 -4.95005 -3.93895 0
M  V30 5517 C 514.532 -5.34945 -3.99237 0
M  V30 5518 H 513.802 -0.277368 -0.68713 0
M  V30 5519 H 516.449 -1.31603 -1.39115 0
M  V30 5520 H 514.754 -0.541525 -3.8804 0
M  V30 5521 H 516.451 -0.932368 -3.9001 0
M  V30 5522 H 513.041 -2.33324 -3.59524 0
M  V30 5523 H 517.225 -3.30841 -3.69943 0
M  V30 5524 H 512.481 -4.70707 -3.90186 0
M  V30 5525 H 516.655 -5.68746 -4.01872 0
M  V30 5526 H 514.282 -6.39135 -4.11596 0
M  V30 5527 N 515.857 1.33968 -0.830081 0
M  V30 5528 C 516.804 2.29387 -0.255008 0
M  V30 5529 C 517.774 1.53923 0.624243 0
M  V30 5530 O 518.959 1.82262 0.564372 0
M  V30 5531 C 516.099 3.4034 0.571209 0
M  V30 5532 C 515.212 4.30729 -0.331083 0
M  V30 5533 C 514.347 5.2879 0.505389 0
M  V30 5534 C 513.386 6.10819 -0.395843 0
M  V30 5535 N 512.523 7.00948 0.401979 0
M  V30 5536 H 517.363 2.77972 -1.07404 0
M  V30 5537 H 514.9 1.36785 -0.541133 0
M  V30 5538 H 516.858 4.03361 1.06562 0
M  V30 5539 H 515.488 2.9297 1.35529 0
M  V30 5540 H 514.54 3.68507 -0.943759 0
M  V30 5541 H 515.852 4.88181 -1.02377 0
M  V30 5542 H 515.006 5.97297 1.06399 0
M  V30 5543 H 513.745 4.71894 1.23155 0
M  V30 5544 H 512.75 5.41238 -0.966529 0
M  V30 5545 H 513.975 6.69797 -1.12023 0
M  V30 5546 H 511.921 6.46512 1.11168 0
M  V30 5547 H 511.838 7.55643 -0.232167 0
M  V30 5548 H 513.106 7.73774 0.943102 0
M  V30 5549 N 517.335 0.585699 1.46312 0
M  V30 5550 C 518.267 -0.183687 2.28463 0
M  V30 5551 C 519.28 -0.85264 1.38686 0
M  V30 5552 O 520.469 -0.721701 1.6326 0
M  V30 5553 C 517.569 -1.27977 3.13808 0
M  V30 5554 C 516.742 -0.702164 4.31727 0
M  V30 5555 C 515.801 -1.68633 4.98447 0
M  V30 5556 O 514.827 -1.22121 5.55945 0
M  V30 5557 N 516.029 -3.02047 4.95729 0
M  V30 5558 H 518.794 0.521127 2.95134 0
M  V30 5559 H 516.355 0.423673 1.56258 0
M  V30 5560 H 518.347 -1.9375 3.55307 0
M  V30 5561 H 516.917 -1.8874 2.4919 0
M  V30 5562 H 516.137 0.1331 3.93975 0
M  V30 5563 H 517.425 -0.296101 5.07938 0
M  V30 5564 H 516.823 -3.42457 4.50266 0
M  V30 5565 H 515.38 -3.63301 5.41161 0
M  V30 5566 N 518.813 -1.54241 0.323641 0
M  V30 5567 C 519.776 -2.22997 -0.529602 0
M  V30 5568 C 520.776 -1.22345 -1.04347 0
M  V30 5569 O 521.966 -1.46924 -0.935889 0
M  V30 5570 C 519.098 -2.93409 -1.73562 0
M  V30 5571 H 520.291 -2.99815 0.0714518 0
M  V30 5572 H 517.844 -1.56121 0.0747258 0
M  V30 5573 H 518.579 -2.20729 -2.37591 0
M  V30 5574 H 518.364 -3.67217 -1.37456 0
M  V30 5575 H 519.854 -3.45794 -2.34128 0
M  V30 5576 N 520.291 -0.0518155 -1.57515 0
M  V30 5577 C 521.519 0.631395 -1.9703 0
M  V30 5578 C 521.934 1.64341 -0.92938 0
M  V30 5579 O 521.291 1.82296 0.0863266 0
M  V30 5580 C 521.342 1.31774 -3.36627 0
M  V30 5581 O 521.063 0.346247 -4.3673 0
M  V30 5582 C 522.564 2.09065 -3.90905 0
M  V30 5583 H 519.784 0.172576 -0.648428 0
M  V30 5584 H 522.328 -0.118306 -2.04158 0
M  V30 5585 H 520.483 2.01867 -3.30649 0
M  V30 5586 H 520.897 0.836226 -5.17791 0
M  V30 5587 H 522.371 2.52508 -4.9086 0
M  V30 5588 H 522.848 2.93908 -3.26366 0
M  V30 5589 H 523.454 1.43882 -4.00223 0
M  V30 5590 N 521.769 1.56035 0.221574 0
M  V30 5591 C 522.702 1.87427 1.30178 0
M  V30 5592 C 523.68 0.731658 1.45209 0
M  V30 5593 O 524.864 0.980016 1.61022 0
M  V30 5594 C 521.991 2.08127 2.67209 0
M  V30 5595 C 521.037 3.30813 2.69194 0
M  V30 5596 S 521.87 4.86738 2.23263 0
M  V30 5597 C 523.026 5.10474 3.62171 0
M  V30 5598 H 523.259 2.78756 1.03355 0
M  V30 5599 H 520.792 1.48469 0.423813 0
M  V30 5600 H 522.75 2.20736 3.46101 0
M  V30 5601 H 521.411 1.17595 2.91256 0
M  V30 5602 H 520.604 3.42341 3.6989 0
M  V30 5603 H 520.206 3.1706 1.98366 0
M  V30 5604 H 522.498 4.9937 4.5786 0
M  V30 5605 H 523.441 6.12359 3.55558 0
M  V30 5606 H 523.849 4.38208 3.55857 0
M  V30 5607 N 523.247 -0.488276 1.49845 0
M  V30 5608 C 524.194 -1.58836 1.67451 0
M  V30 5609 C 525.164 -1.57886 0.515857 0
M  V30 5610 O 526.349 -1.75679 0.744403 0
M  V30 5611 C 523.489 -2.96915 1.75885 0
M  V30 5612 C 522.602 -3.07784 3.03138 0
M  V30 5613 C 521.737 -4.36673 3.02473 0
M  V30 5614 C 520.776 -4.41222 4.24252 0
M  V30 5615 N 519.913 -5.61557 4.21424 0
M  V30 5616 H 524.753 -1.43131 2.61376 0
M  V30 5617 H 522.29 -0.696186 1.29583 0
M  V30 5618 H 524.248 -3.76965 1.78755 0
M  V30 5619 H 522.878 -3.11295 0.85414 0
M  V30 5620 H 521.93 -2.20717 3.09819 0
M  V30 5621 H 523.242 -3.07005 3.93128 0
M  V30 5622 H 522.396 -5.25055 3.03977 0
M  V30 5623 H 521.135 -4.40037 2.10283 0
M  V30 5624 H 520.14 -3.5124 4.22978 0
M  V30 5625 H 521.365 -4.39564 5.17649 0
M  V30 5626 H 519.311 -5.65738 3.32078 0
M  V30 5627 H 519.228 -5.62447 5.05163 0
M  V30 5628 H 520.496 -6.52111 4.2705 0
M  V30 5629 N 524.725 -1.39134 -0.740242 0
M  V30 5630 C 525.688 -1.37217 -1.83587 0
M  V30 5631 C 526.688 -0.270221 -1.58513 0
M  V30 5632 O 527.878 -0.527843 -1.6601 0
M  V30 5633 C 525.01 -1.13959 -3.21288 0
M  V30 5634 H 526.203 -2.34705 -1.86691 0
M  V30 5635 H 523.756 -1.24622 -0.94335 0
M  V30 5636 H 524.491 -0.17131 -3.23847 0
M  V30 5637 H 524.276 -1.93754 -3.40884 0
M  V30 5638 H 525.766 -1.15346 -4.01354 0
M  V30 5639 N 526.204 0.969867 -1.24223 0
M  V30 5640 C 527.134 2.08191 -1.05729 0
M  V30 5641 C 528.115 1.70075 0.0290765 0
M  V30 5642 O 529.3 1.93712 -0.137583 0
M  V30 5643 C 526.43 3.40991 -0.658995 0
M  V30 5644 C 525.384 3.93054 -1.69389 0
M  V30 5645 C 524.71 5.22171 -1.15072 0
M  V30 5646 C 526.01 4.21137 -3.08935 0
M  V30 5647 H 527.704 2.23921 -1.98746 0
M  V30 5648 H 525.25 1.07602 -0.956967 0
M  V30 5649 H 527.203 4.18221 -0.51662 0
M  V30 5650 H 525.927 3.25155 0.30686 0
M  V30 5651 H 524.586 3.17977 -1.82444 0
M  V30 5652 H 524.234 5.02694 -0.175539 0
M  V30 5653 H 523.934 5.57973 -1.84229 0
M  V30 5654 H 525.458 6.02013 -1.02042 0
M  V30 5655 H 526.872 4.8908 -2.99121 0
M  V30 5656 H 525.269 4.68163 -3.75425 0
M  V30 5657 H 526.339 3.27996 -3.57137 0
M  V30 5658 N 527.682 1.05563 1.17022 0
M  V30 5659 C 529.098 0.777684 1.39371 0
M  V30 5660 C 529.298 -0.626269 1.91521 0
M  V30 5661 O 528.354 -1.38806 2.10924 0
M  V30 5662 C 529.667 1.83642 2.3811 0
M  V30 5663 C 531.215 1.85907 2.51809 0
M  V30 5664 C 531.69 2.90813 3.53824 0
M  V30 5665 N 533.181 2.898 3.61345 0
M  V30 5666 C 533.916 3.6762 4.40049 0
M  V30 5667 N 533.412 4.55237 5.22237 0
M  V30 5668 N 535.205 3.56044 4.34959 0
M  V30 5669 H 527.356 1.9614 0.815047 0
M  V30 5670 H 529.619 0.849527 0.420722 0
M  V30 5671 H 529.325 2.84425 2.06871 0
M  V30 5672 H 529.199 1.6812 3.37662 0
M  V30 5673 H 531.586 0.857865 2.82356 0
M  V30 5674 H 531.667 2.05506 1.52318 0
M  V30 5675 H 531.311 3.91122 3.24015 0
M  V30 5676 H 531.241 2.68465 4.53028 0
M  V30 5677 H 533.732 2.26274 3.02669 0
M  V30 5678 H 534.045 5.11291 5.79484 0
M  V30 5679 H 532.39 4.59296 5.21605 0
M  V30 5680 H 535.581 2.86986 3.69806 0
M  V30 5681 H 535.754 4.16938 4.96051 0
M  V30 5682 N 529.16 -1.33526 0.837174 0
M  V30 5683 C 530.107 -2.29248 0.267169 0
M  V30 5684 C 531.077 -1.54252 -0.616071 0
M  V30 5685 O 532.262 -1.82559 -0.554699 0
M  V30 5686 C 529.402 -3.40638 -0.553152 0
M  V30 5687 C 528.515 -4.30548 0.353921 0
M  V30 5688 C 527.65 -5.29051 -0.477339 0
M  V30 5689 C 526.689 -6.106 0.42823 0
M  V30 5690 N 525.826 -7.01152 -0.364801 0
M  V30 5691 H 530.666 -2.77398 1.08877 0
M  V30 5692 H 528.203 -1.36496 0.54838 0
M  V30 5693 H 530.161 -4.03921 -1.04422 0
M  V30 5694 H 528.791 -2.93685 -1.33973 0
M  V30 5695 H 527.843 -3.68001 0.963289 0
M  V30 5696 H 529.155 -4.87631 1.04964 0
M  V30 5697 H 528.309 -5.97853 -1.0323 0
M  V30 5698 H 527.048 -4.72541 -1.2065 0
M  V30 5699 H 526.053 -5.40718 0.995219 0
M  V30 5700 H 527.278 -6.69193 1.15573 0
M  V30 5701 H 525.224 -6.47092 -1.07738 0
M  V30 5702 H 525.141 -7.5551 0.272238 0
M  V30 5703 H 526.409 -7.74263 -0.902054 0
M  V30 5704 N 530.638 -0.59345 -1.46 0
M  V30 5705 C 531.585 0.133618 -2.30413 0
M  V30 5706 C 532.555 0.873736 -1.41262 0
M  V30 5707 O 533.74 0.862279 -1.70204 0
M  V30 5708 C 530.88 1.13434 -3.25924 0
M  V30 5709 C 529.993 0.39656 -4.30176 0
M  V30 5710 C 529.128 1.38575 -5.12806 0
M  V30 5711 C 528.167 0.634984 -6.08797 0
M  V30 5712 N 527.304 1.57276 -6.84258 0
M  V30 5713 H 532.144 -0.592252 -2.92055 0
M  V30 5714 H 529.681 -0.303874 -1.43927 0
M  V30 5715 H 531.639 1.72752 -3.79753 0
M  V30 5716 H 530.269 1.82779 -2.66067 0
M  V30 5717 H 529.321 -0.311861 -3.79119 0
M  V30 5718 H 530.633 -0.189869 -4.98438 0
M  V30 5719 H 529.787 2.05141 -5.70966 0
M  V30 5720 H 528.526 2.00611 -4.44529 0
M  V30 5721 H 527.531 -0.0443925 -5.49782 0
M  V30 5722 H 528.756 0.0198678 -6.79097 0
M  V30 5723 H 526.702 2.18103 -6.18682 0
M  V30 5724 H 526.619 1.03941 -7.48821 0
M  V30 5725 H 527.887 2.22844 -7.46968 0
M  V30 5726 N 532.116 1.54067 -0.331816 0
M  V30 5727 C 533.341 2.05599 0.272705 0
M  V30 5728 C 533.766 1.2059 1.44359 0
M  V30 5729 O 533.124 0.216907 1.79998 0
M  V30 5730 C 533.172 3.54188 0.677021 0
M  V30 5731 O 532.276 3.72082 1.77844 0
M  V30 5732 H 531.617 0.662286 0.0476801 0
M  V30 5733 H 534.147 1.98826 -0.482624 0
M  V30 5734 H 534.157 3.96608 0.957415 0
M  V30 5735 H 532.832 4.15513 -0.179325 0
M  V30 5736 H 531.409 3.41566 1.49622 0
M  V30 5737 N 533.594 0.0601682 1.57485 0
M  V30 5738 C 534.84 -0.612501 1.93329 0
M  V30 5739 C 535.173 -1.6996 0.939526 0
M  V30 5740 O 534.448 -1.94472 -0.0330957 0
M  V30 5741 C 534.731 -1.20025 3.39508 0
M  V30 5742 C 534.584 -0.12059 4.49638 0
M  V30 5743 C 535.903 -2.10923 3.86264 0
M  V30 5744 H 533.022 -0.221185 0.703027 0
M  V30 5745 H 535.664 0.123768 1.89596 0
M  V30 5746 H 533.814 -1.82774 3.42821 0
M  V30 5747 H 535.486 0.51185 4.58452 0
M  V30 5748 H 533.729 0.550251 4.30296 0
M  V30 5749 H 534.4 -0.572019 5.49028 0
M  V30 5750 H 536.876 -1.58124 3.84884 0
M  V30 5751 H 535.752 -2.48987 4.8918 0
M  V30 5752 H 536.013 -3.01292 3.23536 0
M  V30 5753 N 535.072 -1.5615 -0.213296 0
M  V30 5754 C 536.002 -1.96109 -1.26742 0
M  V30 5755 C 536.983 -0.830448 -1.48451 0
M  V30 5756 O 538.168 -1.09339 -1.60495 0
M  V30 5757 C 535.298 -2.28492 -2.61551 0
M  V30 5758 C 534.252 -3.44124 -2.54485 0
M  V30 5759 C 533.578 -3.62134 -3.93399 0
M  V30 5760 C 534.878 -4.78855 -2.08556 0
M  V30 5761 H 536.572 -2.84412 -0.935434 0
M  V30 5762 H 534.118 -1.36836 -0.44854 0
M  V30 5763 H 536.071 -2.55039 -3.3546 0
M  V30 5764 H 534.795 -1.37052 -2.96453 0
M  V30 5765 H 533.454 -3.17639 -1.83033 0
M  V30 5766 H 533.102 -2.68055 -4.25623 0
M  V30 5767 H 532.802 -4.39913 -3.89551 0
M  V30 5768 H 534.326 -3.91038 -4.68958 0
M  V30 5769 H 535.74 -5.04552 -2.72213 0
M  V30 5770 H 534.137 -5.59975 -2.1575 0
M  V30 5771 H 535.207 -4.73657 -1.03811 0
M  V30 5772 N 536.55 0.480323 -1.50102 0
M  V30 5773 C 537.48 1.58769 -1.71215 0
M  V30 5774 C 538.461 1.60583 -0.560997 0
M  V30 5775 O 539.646 1.76996 -0.799127 0
M  V30 5776 C 536.776 2.97148 -1.79778 0
M  V30 5777 C 535.73 3.10201 -2.94888 0
M  V30 5778 C 535.056 4.50137 -2.88584 0
M  V30 5779 C 536.356 2.88283 -4.35534 0
M  V30 5780 H 538.05 1.41354 -2.6393 0
M  V30 5781 H 535.596 0.678591 -1.27008 0
M  V30 5782 H 537.549 3.74536 -1.93133 0
M  V30 5783 H 536.273 3.15699 -0.836772 0
M  V30 5784 H 534.932 2.35244 -2.81169 0
M  V30 5785 H 534.58 4.65593 -1.90349 0
M  V30 5786 H 534.28 4.59808 -3.65856 0
M  V30 5787 H 535.804 5.29558 -3.03976 0
M  V30 5788 H 537.218 3.55427 -4.49827 0
M  V30 5789 H 535.615 3.09408 -5.14186 0
M  V30 5790 H 536.685 1.84219 -4.48544 0
M  V30 5791 N 538.028 1.39524 0.732853 0
M  V30 5792 C 539.256 1.40143 1.52209 0
M  V30 5793 C 539.671 -0.00348836 1.888 0
M  V30 5794 O 539.028 -0.975357 1.5425 0
M  V30 5795 C 539.079 2.27632 2.8083 0
M  V30 5796 O 538.8 3.62654 2.45792 0
M  V30 5797 C 540.301 2.36658 3.74844 0
M  V30 5798 H 537.521 0.478604 0.470297 0
M  V30 5799 H 540.065 1.83366 0.905388 0
M  V30 5800 H 538.22 1.87818 3.38826 0
M  V30 5801 H 538.634 4.08941 3.28431 0
M  V30 5802 H 540.108 3.02118 4.61984 0
M  V30 5803 H 540.585 1.38638 4.16745 0
M  V30 5804 H 541.191 2.76951 3.22766 0
M  V30 5805 N 539.506 -0.963266 1.24736 0
M  V30 5806 C 540.754 -1.70343 1.08755 0
M  V30 5807 C 541.075 -1.91387 -0.373619 0
M  V30 5808 O 540.345 -1.4948 -1.2662 0
M  V30 5809 H 538.925 -0.631224 0.399456 0
M  V30 5810 H 541.587 -1.15859 1.56725 0
M  V30 5811 H 540.683 -2.68616 1.58909 0
M  V30 5812 N 540.985 -1.06182 -1.16461 0
M  V30 5813 C 542.215 -0.797425 -1.9059 0
M  V30 5814 C 542.623 0.651845 -1.77616 0
M  V30 5815 O 541.966 1.45788 -1.11766 0
M  V30 5816 C 542.028 -1.11128 -3.41893 0
M  V30 5817 C 541.692 -2.55874 -3.78652 0
M  V30 5818 C 542.689 -3.54104 -3.80665 0
M  V30 5819 C 540.374 -2.91144 -4.09317 0
M  V30 5820 C 542.368 -4.85645 -4.12829 0
M  V30 5821 C 540.055 -4.22885 -4.41148 0
M  V30 5822 C 541.053 -5.19945 -4.42883 0
M  V30 5823 O 540.741 -6.49322 -4.73959 0
M  V30 5824 H 540.473 -0.288709 -0.611247 0
M  V30 5825 H 543.027 -1.41841 -1.4856 0
M  V30 5826 H 541.257 -0.433217 -3.84266 0
M  V30 5827 H 542.946 -0.831306 -3.97296 0
M  V30 5828 H 543.712 -3.28197 -3.57088 0
M  V30 5829 H 539.591 -2.16252 -4.07131 0
M  V30 5830 H 543.135 -5.61398 -4.14099 0
M  V30 5831 H 539.032 -4.48551 -4.6419 0
M  V30 5832 H 539.8 -6.54294 -4.91774 0
M  V30 5833 N 542.463 1.3308 -0.844243 0
M  V30 5834 C 543.393 2.3161 -0.296493 0
M  V30 5835 C 544.374 1.59215 0.598707 0
M  V30 5836 O 545.559 1.87077 0.521134 0
M  V30 5837 C 542.689 3.43313 0.524762 0
M  V30 5838 C 541.643 4.27115 -0.275106 0
M  V30 5839 C 540.969 5.30483 0.670236 0
M  V30 5840 C 542.269 5.00443 -1.49514 0
M  V30 5841 H 543.963 2.77672 -1.11976 0
M  V30 5842 H 541.509 1.33496 -0.539899 0
M  V30 5843 H 543.462 4.11273 0.918298 0
M  V30 5844 H 542.186 2.95952 1.3813 0
M  V30 5845 H 540.845 3.60787 -0.650267 0
M  V30 5846 H 540.493 4.79379 1.52332 0
M  V30 5847 H 540.193 5.87435 0.139123 0
M  V30 5848 H 541.717 6.01308 1.06117 0
M  V30 5849 H 543.131 5.61141 -1.17447 0
M  V30 5850 H 541.528 5.67071 -1.96343 0
M  V30 5851 H 542.598 4.28906 -2.26202 0
M  V30 5852 N 543.941 0.601185 1.45683 0
M  V30 5853 C 544.851 -0.123395 2.34275 0
M  V30 5854 C 545.867 -0.86702 1.5086 0
M  V30 5855 O 547.043 -0.826049 1.8368 0
M  V30 5856 C 544.108 -1.11237 3.2837 0
M  V30 5857 C 543.169 -0.371405 4.2769 0
M  V30 5858 C 542.402 -1.31327 5.1729 0
M  V30 5859 O 542.625 -2.55078 5.10188 0
M  V30 5860 O 541.559 -0.813811 5.96373 0
M  V30 5861 H 545.385 0.604483 2.97623 0
M  V30 5862 H 542.97 0.361477 1.44961 0
M  V30 5863 H 544.852 -1.68214 3.8637 0
M  V30 5864 H 543.527 -1.82139 2.67595 0
M  V30 5865 H 542.434 0.24067 3.73325 0
M  V30 5866 H 543.767 0.296998 4.91303 0
M  V30 5867 N 545.419 -1.53889 0.339982 0
M  V30 5868 C 546.649 -2.04973 -0.258738 0
M  V30 5869 C 547.057 -1.21485 -1.45045 0
M  V30 5870 O 546.4 -0.2422 -1.82096 0
M  V30 5871 C 546.462 -3.51783 -0.740853 0
M  V30 5872 C 546.126 -4.55802 0.330734 0
M  V30 5873 C 547.123 -5.06512 1.17226 0
M  V30 5874 C 544.808 -4.99966 0.483637 0
M  V30 5875 C 546.802 -5.99963 2.15227 0
M  V30 5876 C 544.489 -5.93229 1.46704 0
M  V30 5877 C 545.487 -6.43115 2.29981 0
M  V30 5878 O 545.175 -7.34545 3.26649 0
M  V30 5879 H 544.907 -0.673807 -0.0544037 0
M  V30 5880 H 547.461 -1.99492 0.489107 0
M  V30 5881 H 545.691 -3.54717 -1.53988 0
M  V30 5882 H 547.38 -3.85857 -1.25973 0
M  V30 5883 H 548.146 -4.73158 1.0652 0
M  V30 5884 H 544.025 -4.6074 -0.15471 0
M  V30 5885 H 547.569 -6.38825 2.80265 0
M  V30 5886 H 543.466 -6.25998 1.57468 0
M  V30 5887 H 544.234 -7.52468 3.22078 0
M  V30 5888 N 546.897 -0.0685191 -1.57451 0
M  V30 5889 C 547.827 0.89747 -2.15564 0
M  V30 5890 C 548.808 1.31266 -1.08181 0
M  V30 5891 O 549.993 1.38429 -1.36202 0
M  V30 5892 C 547.123 2.16623 -2.71463 0
M  V30 5893 C 546.077 1.89054 -3.83982 0
M  V30 5894 C 545.403 3.22532 -4.26471 0
M  V30 5895 C 546.703 1.1984 -5.08366 0
M  V30 5896 H 548.397 0.413373 -2.96533 0
M  V30 5897 H 545.943 0.197391 -1.42641 0
M  V30 5898 H 547.896 2.84614 -3.10761 0
M  V30 5899 H 546.62 2.67269 -1.8771 0
M  V30 5900 H 545.279 1.23469 -3.45183 0
M  V30 5901 H 544.927 3.71013 -3.39644 0
M  V30 5902 H 544.627 3.04879 -5.02317 0
M  V30 5903 H 546.151 3.91727 -4.68383 0
M  V30 5904 H 547.565 1.77896 -5.45001 0
M  V30 5905 H 545.962 1.12456 -5.89469 0
M  V30 5906 H 547.032 0.176996 -4.84577 0
M  V30 5907 N 548.375 1.56261 0.205012 0
M  V30 5908 C 549.624 1.79236 0.925058 0
M  V30 5909 C 549.937 0.640011 1.84833 0
M  V30 5910 O 551.143 0.753809 2.60826 0
M  V30 5911 C 549.599 3.17475 1.69522 0
M  V30 5912 C 549.207 4.40482 0.817269 0
M  V30 5913 C 550.951 3.49766 2.4055 0
M  V30 5914 C 548.858 5.69744 1.58573 0
M  V30 5915 H 547.788 0.668287 0.349153 0
M  V30 5916 H 550.439 1.82629 0.178544 0
M  V30 5917 H 548.821 3.08304 2.48526 0
M  V30 5918 H 549.995 4.60752 0.0665988 0
M  V30 5919 H 548.31 4.15827 0.218316 0
M  V30 5920 H 550.907 4.43573 2.98575 0
M  V30 5921 H 551.25 2.73041 3.14252 0
M  V30 5922 H 551.783 3.60341 1.68522 0
M  V30 5923 H 548.522 6.49407 0.891679 0
M  V30 5924 H 548.042 5.53509 2.31059 0
M  V30 5925 H 549.721 6.1051 2.14212 0
M  V30 5926 N 549.853 -0.472356 1.50355 0
M  V30 5927 C 550.8 -1.57051 1.69126 0
M  V30 5928 C 551.77 -1.5733 0.532574 0
M  V30 5929 O 552.955 -1.7488 0.762994 0
M  V30 5930 C 550.095 -2.95033 1.79024 0
M  V30 5931 C 549.208 -3.04552 3.06386 0
M  V30 5932 C 548.343 -4.33441 3.07087 0
M  V30 5933 C 547.382 -4.36697 4.28908 0
M  V30 5934 N 546.519 -5.57056 4.27356 0
M  V30 5935 H 551.359 -1.40351 2.62879 0
M  V30 5936 H 548.896 -0.682403 1.30314 0
M  V30 5937 H 550.854 -3.75048 1.82744 0
M  V30 5938 H 549.484 -3.10371 0.887109 0
M  V30 5939 H 548.536 -2.17419 3.12143 0
M  V30 5940 H 549.848 -3.02818 3.96362 0
M  V30 5941 H 549.002 -5.21801 3.09529 0
M  V30 5942 H 547.741 -4.37782 2.14939 0
M  V30 5943 H 546.746 -3.46734 4.2668 0
M  V30 5944 H 547.971 -4.34049 5.22282 0
M  V30 5945 H 545.917 -5.62184 3.3806 0
M  V30 5946 H 545.834 -5.57058 5.111 0
M  V30 5947 H 547.102 -6.47545 4.33942 0
M  V30 5948 N 551.331 -1.39911 -0.725443 0
M  V30 5949 C 552.281 -1.35878 -1.83088 0
M  V30 5950 C 553.265 -0.237989 -1.5913 0
M  V30 5951 O 554.457 -0.476302 -1.70471 0
M  V30 5952 C 551.586 -1.21403 -3.21117 0
M  V30 5953 C 550.672 -2.38223 -3.50871 0
M  V30 5954 N 551.063 -3.63703 -3.51502 0
M  V30 5955 C 549.361 -2.31388 -3.81281 0
M  V30 5956 C 550.062 -4.4101 -3.79322 0
M  V30 5957 N 549.038 -3.7072 -3.97577 0
M  V30 5958 H 552.84 -2.3085 -1.81895 0
M  V30 5959 H 550.354 -1.33543 -0.924125 0
M  V30 5960 H 552.351 -1.16597 -4.00263 0
M  V30 5961 H 551.011 -0.273902 -3.23543 0
M  V30 5962 H 552.022 -3.96998 -3.32586 0
M  V30 5963 H 548.699 -1.45689 -3.91256 0
M  V30 5964 H 550.089 -5.49819 -3.86198 0
M  V30 5965 N 552.809 0.956637 -1.25245 0
M  V30 5966 C 553.757 2.0743 -1.0524 0
M  V30 5967 C 554.751 1.69392 0.0160725 0
M  V30 5968 O 555.957 1.7946 -0.139382 0
M  V30 5969 H 552.332 0.678921 -0.323373 0
M  V30 5970 H 554.303 2.2146 -1.99995 0
M  V30 5971 C 553.052 3.40872 -0.685702 0
M  V30 5972 H 552.375 3.70607 -1.49968 0
M  V30 5973 H 553.815 4.19939 -0.585415 0
M  V30 5974 C 552.274 3.31367 0.608082 0
M  V30 5975 O 552.804 3.66214 1.65076 0
M  V30 5976 N 551.01 2.84486 0.592955 0
M  V30 5977 H 550.557 2.56326 -0.25592 0
M  V30 5978 H 550.515 2.78509 1.45877 0
M  V30 5979 N 554.287 1.06798 1.15896 0
M  V30 5980 C 555.517 0.807522 1.90165 0
M  V30 5981 C 555.925 -0.642417 1.7796 0
M  V30 5982 O 555.268 -1.45193 1.12537 0
M  V30 5983 C 555.33 1.12939 3.41299 0
M  V30 5984 C 554.994 2.57879 3.7729 0
M  V30 5985 C 555.991 3.56118 3.78782 0
M  V30 5986 C 553.676 2.93311 4.07767 0
M  V30 5987 C 555.67 4.87827 4.10248 0
M  V30 5988 C 553.357 4.25219 4.38899 0
M  V30 5989 C 554.355 5.22287 4.4012 0
M  V30 5990 O 554.043 6.51826 4.70508 0
M  V30 5991 H 553.775 0.291946 0.609708 0
M  V30 5992 H 556.329 1.42627 1.47806 0
M  V30 5993 H 554.559 0.45359 3.84031 0
M  V30 5994 H 556.248 0.852363 3.9685 0
M  V30 5995 H 557.014 3.30086 3.55342 0
M  V30 5996 H 552.893 2.18409 4.05979 0
M  V30 5997 H 556.437 5.63586 4.11116 0
M  V30 5998 H 552.334 4.51006 4.61805 0
M  V30 5999 H 553.102 6.56893 4.88298 0
M  V30 6000 N 555.766 -1.3263 0.851289 0
M  V30 6001 C 557.014 -1.96978 0.452128 0
M  V30 6002 C 557.335 -1.67715 -0.99482 0
M  V30 6003 O 556.605 -0.98259 -1.69476 0
M  V30 6004 H 555.185 -0.72873 0.164202 0
M  V30 6005 H 557.847 -1.61774 1.08698 0
M  V30 6006 H 556.943 -3.06387 0.594407 0
M  V30 6007 N 557.244 -0.608902 -1.45362 0
M  V30 6008 C 558.191 0.109172 -2.30542 0
M  V30 6009 C 559.161 0.858704 -1.42181 0
M  V30 6010 O 560.346 0.844178 -1.71109 0
M  V30 6011 C 557.486 1.09971 -3.27109 0
M  V30 6012 C 556.599 0.350911 -4.30572 0
M  V30 6013 C 555.734 1.33129 -5.14247 0
M  V30 6014 C 554.773 0.570377 -6.09437 0
M  V30 6015 N 553.91 1.5001 -6.85887 0
M  V30 6016 H 558.75 -0.623195 -2.91411 0
M  V30 6017 H 556.287 -0.319122 -1.43597 0
M  V30 6018 H 558.245 1.68714 -3.81564 0
M  V30 6019 H 556.875 1.79947 -2.67991 0
M  V30 6020 H 555.927 -0.352054 -3.78767 0
M  V30 6021 H 557.239 -0.242725 -4.98209 0
M  V30 6022 H 556.393 1.99074 -5.73109 0
M  V30 6023 H 555.132 1.95885 -4.46632 0
M  V30 6024 H 554.137 -0.102702 -5.49704 0
M  V30 6025 H 555.362 -0.0521607 -6.7908 0
M  V30 6026 H 553.308 2.11529 -6.2096 0
M  V30 6027 H 553.225 0.959934 -7.49881 0
M  V30 6028 H 554.493 2.14909 -7.49289 0
M  V30 6029 N 558.722 1.53707 -0.348139 0
M  V30 6030 C 559.999 1.93247 0.302475 0
M  V30 6031 C 560.379 1.28012 1.67857 0
M  V30 6032 O 559.727 0.43274 2.24365 0
M  V30 6033 C 559.937 3.47031 0.370159 0
M  V30 6034 C 561.285 4.20066 0.61882 0
M  V30 6035 O 562.309 3.53319 0.452087 0
M  V30 6036 O 561.168 5.38318 0.94215 0
M  V30 6037 H 558.262 0.807736 0.177458 0
M  V30 6038 H 560.808 1.64927 -0.399651 0
M  V30 6039 H 559.58 3.86745 -0.59534 0
M  V30 6040 H 559.203 3.81532 1.11888 0
M  V30 6041 N 560.2 0.0768682 1.57412 0
M  V30 6042 C 561.147 -0.888577 2.13009 0
M  V30 6043 C 562.117 -1.29198 1.0439 0
M  V30 6044 O 563.302 -1.37694 1.3208 0
M  V30 6045 C 560.442 -2.14899 2.70023 0
M  V30 6046 C 559.555 -1.79777 3.92816 0
M  V30 6047 C 558.69 -3.00467 4.38056 0
M  V30 6048 C 557.729 -2.61385 5.53484 0
M  V30 6049 N 556.866 -3.74851 5.93659 0
M  V30 6050 H 561.706 -0.407593 2.95199 0
M  V30 6051 H 559.243 -0.189534 1.45874 0
M  V30 6052 H 561.201 -2.88688 3.0119 0
M  V30 6053 H 559.831 -2.60529 1.9059 0
M  V30 6054 H 558.883 -0.960301 3.68079 0
M  V30 6055 H 560.195 -1.47027 4.76639 0
M  V30 6056 H 559.349 -3.82529 4.7091 0
M  V30 6057 H 558.088 -3.36413 3.53097 0
M  V30 6058 H 557.093 -1.77746 5.20275 0
M  V30 6059 H 558.318 -2.26603 6.40178 0
M  V30 6060 H 556.264 -4.1055 5.11649 0
M  V30 6061 H 556.181 -3.45887 6.72234 0
M  V30 6062 H 557.449 -4.57477 6.31138 0
M  V30 6063 N 561.678 -1.56367 -0.196722 0
M  V30 6064 C 562.641 -1.93561 -1.22746 0
M  V30 6065 C 563.641 -0.816566 -1.38524 0
M  V30 6066 O 564.831 -1.084 -1.36363 0
M  V30 6067 C 561.963 -2.20823 -2.59712 0
M  V30 6068 H 563.156 -2.85774 -0.909586 0
M  V30 6069 H 560.709 -1.50032 -0.438174 0
M  V30 6070 H 561.444 -1.31243 -2.96557 0
M  V30 6071 H 561.229 -3.02368 -2.49632 0
M  V30 6072 H 562.719 -2.50608 -3.34044 0
M  V30 6073 N 563.156 0.464375 -1.50603 0
M  V30 6074 C 564.119 1.54393 -1.69397 0
M  V30 6075 C 565.119 1.50566 -0.564504 0
M  V30 6076 O 566.309 1.53066 -0.831645 0
M  V30 6077 C 563.441 2.9401 -1.72543 0
M  V30 6078 H 564.634 1.39044 -2.65719 0
M  V30 6079 H 562.187 0.69122 -1.40185 0
M  V30 6080 H 562.922 3.14795 -0.77938 0
M  V30 6081 H 562.707 2.98195 -2.54602 0
M  V30 6082 H 564.197 3.72375 -1.89015 0
M  V30 6083 N 564.634 1.40294 0.718013 0
M  V30 6084 C 565.862 1.4175 1.50714 0
M  V30 6085 C 566.277 0.0165366 1.88793 0
M  V30 6086 O 565.634 -0.958942 1.55276 0
M  V30 6087 C 565.685 2.30598 2.784 0
M  V30 6088 O 565.406 3.6524 2.41932 0
M  V30 6089 C 566.907 2.4062 3.72313 0
M  V30 6090 H 564.127 0.483565 0.465194 0
M  V30 6091 H 566.671 1.84316 0.885889 0
M  V30 6092 H 564.826 1.91401 3.36815 0
M  V30 6093 H 565.24 4.12402 3.24076 0
M  V30 6094 H 566.714 3.07001 4.58753 0
M  V30 6095 H 567.191 1.4305 4.15251 0
M  V30 6096 H 567.797 2.80359 3.19811 0
M  V30 6097 N 566.112 -0.949982 1.2575 0
M  V30 6098 C 567.059 -2.04738 1.06541 0
M  V30 6099 C 568.029 -1.66078 -0.0268818 0
M  V30 6100 O 569.214 -1.90348 0.131196 0
M  V30 6101 C 566.354 -3.38027 0.695127 0
M  V30 6102 C 565.467 -3.89776 1.86276 0
M  V30 6103 C 564.602 -5.11411 1.4364 0
M  V30 6104 C 563.641 -5.554 2.57287 0
M  V30 6105 N 562.778 -6.68244 2.15395 0
M  V30 6106 H 567.618 -2.20502 2.00457 0
M  V30 6107 H 565.155 -1.0805 0.998178 0
M  V30 6108 H 567.113 -4.14641 0.461375 0
M  V30 6109 H 565.743 -3.22135 -0.207046 0
M  V30 6110 H 564.795 -3.0964 2.20969 0
M  V30 6111 H 566.107 -4.18368 2.71606 0
M  V30 6112 H 565.261 -5.95457 1.16257 0
M  V30 6113 H 564 -4.84545 0.553879 0
M  V30 6114 H 563.005 -4.69916 2.85409 0
M  V30 6115 H 564.23 -5.84272 3.46125 0
M  V30 6116 H 562.176 -6.43078 1.29565 0
M  V30 6117 H 562.093 -6.96377 2.94272 0
M  V30 6118 H 563.361 -7.55687 1.91201 0
M  V30 6119 N 567.59 -1.07411 -1.15328 0
M  V30 6120 C 568.537 -0.694995 -2.20087 0
M  V30 6121 C 569.507 0.313904 -1.63107 0
M  V30 6122 O 570.692 0.200216 -1.89747 0
M  V30 6123 C 567.832 -0.0996218 -3.44956 0
M  V30 6124 C 566.945 -1.16007 -4.16133 0
M  V30 6125 C 566.08 -0.529636 -5.28553 0
M  V30 6126 C 565.119 -1.57283 -5.91548 0
M  V30 6127 N 564.256 -0.964932 -6.95438 0
M  V30 6128 H 569.096 -1.5927 -2.51867 0
M  V30 6129 H 566.633 -0.796115 -1.23695 0
M  V30 6130 H 568.591 0.263197 -4.16369 0
M  V30 6131 H 567.221 0.761435 -3.13691 0
M  V30 6132 H 566.273 -1.64045 -3.4321 0
M  V30 6133 H 567.585 -1.95101 -4.59061 0
M  V30 6134 H 566.739 -0.114487 -6.06592 0
M  V30 6135 H 565.478 0.29307 -4.86819 0
M  V30 6136 H 564.483 -1.99775 -5.12221 0
M  V30 6137 H 565.708 -2.39783 -6.35359 0
M  V30 6138 H 563.654 -0.16314 -6.55797 0
M  V30 6139 H 563.571 -1.69311 -7.36797 0
M  V30 6140 H 564.839 -0.575305 -7.77374 0
M  V30 6141 N 569.068 1.32177 -0.85831 0
M  V30 6142 C 570.479 1.79381 -0.517621 0
M  V30 6143 C 570.83 1.70841 0.964769 0
M  V30 6144 O 569.955 1.26917 1.75274 0
M  V30 6145 C 570.55 3.25706 -0.932801 0
M  V30 6146 C 569.109 3.70851 -0.643953 0
M  V30 6147 C 568.256 2.53208 -1.13054 0
M  V30 6148 H 571.207 1.19424 -1.04516 0
M  V30 6149 H 571.228 3.79673 -0.250674 0
M  V30 6150 H 570.74 3.31889 -2.01174 0
M  V30 6151 H 568.841 3.70178 0.424112 0
M  V30 6152 H 568.954 4.63495 -1.21281 0
M  V30 6153 H 567.318 2.48676 -0.550679 0
M  V30 6154 H 568.101 2.62143 -2.21666 0
M  V30 6155 N 570.547 0.616602 1.45037 0
M  V30 6156 C 571.793 0.115501 2.02471 0
M  V30 6157 C 572.126 -1.25406 1.4828 0
M  V30 6158 O 571.401 -1.82922 0.661051 0
M  V30 6159 C 571.684 0.0863588 3.59996 0
M  V30 6160 C 571.537 1.48723 4.24501 0
M  V30 6161 C 572.856 -0.596762 4.36035 0
M  V30 6162 H 569.975 0.0434461 0.735718 0
M  V30 6163 H 572.617 0.7903 1.72784 0
M  V30 6164 H 570.767 -0.488277 3.85419 0
M  V30 6165 H 572.439 2.10964 4.10234 0
M  V30 6166 H 570.682 2.04534 3.82555 0
M  V30 6167 H 571.353 1.419 5.3345 0
M  V30 6168 H 573.829 -0.10824 4.15959 0
M  V30 6169 H 572.705 -0.586289 5.4576 0
M  V30 6170 H 572.966 -1.66451 4.09569 0
M  V30 6171 N 572.025 -1.5352 0.356285 0
M  V30 6172 C 573.271 -2.01414 -0.236653 0
M  V30 6173 C 573.604 -1.24339 -1.49176 0
M  V30 6174 O 572.879 -0.334496 -1.91602 0
M  V30 6175 C 573.162 -3.56059 -0.537982 0
M  V30 6176 C 573.015 -4.43835 0.730112 0
M  V30 6177 C 574.334 -4.19127 -1.34239 0
M  V30 6178 H 571.453 -0.732135 -0.0845386 0
M  V30 6179 H 574.095 -1.83854 0.479341 0
M  V30 6180 H 572.245 -3.71153 -1.14795 0
M  V30 6181 H 573.917 -4.40555 1.36782 0
M  V30 6182 H 572.16 -4.1218 1.3524 0
M  V30 6183 H 572.831 -5.49958 0.474358 0
M  V30 6184 H 575.307 -4.07809 -0.826498 0
M  V30 6185 H 574.183 -5.27378 -1.52198 0
M  V30 6186 H 574.444 -3.74581 -2.34822 0
M  V30 6187 N 573.503 -0.0852151 -1.57369 0
M  V30 6188 C 574.451 0.894856 -2.14698 0
M  V30 6189 C 575.445 1.29903 -1.08727 0
M  V30 6190 O 576.651 1.27471 -1.27088 0
M  V30 6191 H 573.026 0.306569 -0.686673 0
M  V30 6192 H 574.997 0.386542 -2.95886 0
M  V30 6193 C 573.746 2.14798 -2.73417 0
M  V30 6194 H 573.069 1.84585 -3.54638 0
M  V30 6195 H 574.509 2.81456 -3.1711 0
M  V30 6196 C 572.968 2.91546 -1.68828 0
M  V30 6197 O 573.498 3.85733 -1.12129 0
M  V30 6198 N 571.704 2.54901 -1.39549 0
M  V30 6199 H 571.251 1.7838 -1.85845 0
M  V30 6200 H 571.209 3.06553 -0.698054 0
M  V30 6201 N 574.981 1.5647 0.188427 0
M  V30 6202 C 576.23 1.80207 0.905995 0
M  V30 6203 C 576.543 0.659579 1.84144 0
M  V30 6204 O 577.749 0.781431 2.60011 0
M  V30 6205 C 576.205 3.19255 1.66145 0
M  V30 6206 C 575.813 4.41324 0.770504 0
M  V30 6207 C 577.557 3.52298 2.36826 0
M  V30 6208 C 575.464 5.71394 1.52521 0
M  V30 6209 H 574.394 0.671953 0.342045 0
M  V30 6210 H 577.045 1.82808 0.159164 0
M  V30 6211 H 575.427 3.10922 2.45242 0
M  V30 6212 H 576.601 4.60797 0.0177261 0
M  V30 6213 H 574.916 4.16035 0.174199 0
M  V30 6214 H 577.513 4.46715 2.93854 0
M  V30 6215 H 577.856 2.76359 3.11338 0
M  V30 6216 H 578.389 3.62108 1.6469 0
M  V30 6217 H 575.128 6.50316 0.82275 0
M  V30 6218 H 574.648 5.55928 2.25175 0
M  V30 6219 H 576.327 6.12747 2.07725 0
M  V30 6220 N 576.459 -0.456382 1.50847 0
M  V30 6221 C 577.708 -1.2042 1.61808 0
M  V30 6222 C 578.021 -1.9278 0.330932 0
M  V30 6223 O 579.227 -2.69612 0.319643 0
M  V30 6224 C 577.683 -2.18891 2.85683 0
M  V30 6225 C 577.291 -1.52267 4.2133 0
M  V30 6226 C 579.035 -2.94224 3.05994 0
M  V30 6227 C 576.942 -2.4911 5.36375 0
M  V30 6228 H 575.872 -0.453177 0.602616 0
M  V30 6229 H 578.523 -0.473144 1.77295 0
M  V30 6230 H 576.905 -2.95351 2.63787 0
M  V30 6231 H 578.079 -0.814949 4.53536 0
M  V30 6232 H 576.394 -0.891594 4.06743 0
M  V30 6233 H 578.991 -3.66732 3.89117 0
M  V30 6234 H 579.334 -3.54469 2.18306 0
M  V30 6235 H 579.867 -2.24874 3.28141 0
M  V30 6236 H 576.606 -1.93582 6.26264 0
M  V30 6237 H 576.126 -3.17991 5.08569 0
M  V30 6238 H 577.805 -3.10637 5.67551 0
M  V30 6239 N 577.937 -1.40673 -0.710563 0
M  V30 6240 C 579.165 -1.42547 -1.4996 0
M  V30 6241 C 579.58 -0.0265485 -1.88781 0
M  V30 6242 O 578.937 0.950694 -1.55782 0
M  V30 6243 C 578.988 -2.32071 -2.77173 0
M  V30 6244 O 578.709 -3.66518 -2.39992 0
M  V30 6245 C 580.21 -2.42591 -3.71032 0
M  V30 6246 H 577.43 -0.486025 -0.462623 0
M  V30 6247 H 579.974 -1.84783 -0.876102 0
M  V30 6248 H 578.129 -1.93184 -3.35795 0
M  V30 6249 H 578.543 -4.14115 -3.21884 0
M  V30 6250 H 580.017 -3.09429 -4.57119 0
M  V30 6251 H 580.494 -1.4525 -4.14486 0
M  V30 6252 H 581.1 -2.82051 -3.18319 0
M  V30 6253 N 579.415 0.9433 -1.26252 0
M  V30 6254 C 580.826 1.50404 -1.10614 0
M  V30 6255 C 581.177 1.93666 0.31429 0
M  V30 6256 O 580.302 1.79709 1.20555 0
M  V30 6257 C 580.897 2.73336 -2.00182 0
M  V30 6258 C 579.456 3.25686 -1.88695 0
M  V30 6259 C 578.603 1.98474 -1.93658 0
M  V30 6260 H 581.554 0.759006 -1.39373 0
M  V30 6261 H 581.575 3.47567 -1.54847 0
M  V30 6262 H 581.087 2.41818 -3.03555 0
M  V30 6263 H 579.188 3.61998 -0.882489 0
M  V30 6264 H 579.301 3.92935 -2.74115 0
M  V30 6265 H 577.665 2.14278 -1.37684 0
M  V30 6266 H 578.448 1.6929 -2.98657 0
M  V30 6267 N 580.893 1.08022 1.14757 0
M  V30 6268 C 582.118 0.82895 1.90114 0
M  V30 6269 C 582.543 -0.612772 1.77839 0
M  V30 6270 O 581.901 -1.42895 1.11583 0
M  V30 6271 C 581.949 1.25062 3.38219 0
M  V30 6272 O 581.053 0.400119 4.10454 0
M  V30 6273 H 580.394 0.301412 0.591648 0
M  V30 6274 H 582.924 1.44062 1.45284 0
M  V30 6275 H 582.934 1.22977 3.89025 0
M  V30 6276 H 581.609 2.30067 3.46471 0
M  V30 6277 H 580.186 0.484052 3.69745 0
M  V30 6278 N 582.371 -1.3172 0.865308 0
M  V30 6279 C 583.321 -2.26157 0.289305 0
M  V30 6280 C 584.305 -1.50428 -0.570977 0
M  V30 6281 O 585.497 -1.71978 -0.418617 0
M  V30 6282 C 582.626 -3.39457 -0.512237 0
M  V30 6283 C 581.712 -4.22561 0.361028 0
M  V30 6284 N 582.103 -4.84501 1.45231 0
M  V30 6285 C 580.401 -4.45739 0.152641 0
M  V30 6286 C 581.102 -5.46586 1.99043 0
M  V30 6287 N 580.078 -5.28119 1.28809 0
M  V30 6288 H 583.88 -2.71581 1.12344 0
M  V30 6289 H 581.394 -1.45932 0.712565 0
M  V30 6290 H 583.391 -4.06133 -0.941379 0
M  V30 6291 H 582.051 -2.95577 -1.34404 0
M  V30 6292 H 583.062 -4.84293 1.83524 0
M  V30 6293 H 579.739 -4.1251 -0.643583 0
M  V30 6294 H 581.129 -6.05817 2.90577 0
M  V30 6295 N 583.85 -0.624285 -1.44708 0
M  V30 6296 C 585.096 -0.126237 -2.02407 0
M  V30 6297 C 585.428 1.24618 -1.48943 0
M  V30 6298 O 584.704 1.82569 -0.670742 0
M  V30 6299 C 584.986 -0.105449 -3.59946 0
M  V30 6300 C 584.84 -1.50972 -4.23707 0
M  V30 6301 C 586.159 0.573629 -4.36346 0
M  V30 6302 H 583.278 -0.0473472 -0.735478 0
M  V30 6303 H 585.92 -0.799452 -1.72362 0
M  V30 6304 H 584.07 0.46783 -3.85673 0
M  V30 6305 H 585.742 -2.13136 -4.0911 0
M  V30 6306 H 583.985 -2.0656 -3.81465 0
M  V30 6307 H 584.656 -1.44727 -5.32689 0
M  V30 6308 H 587.132 0.0861787 -4.16011 0
M  V30 6309 H 586.008 0.557338 -5.46063 0
M  V30 6310 H 586.269 1.64276 -4.10446 0
M  V30 6311 N 585.328 1.53329 -0.364422 0
M  V30 6312 C 586.238 2.29414 0.490552 0
M  V30 6313 C 587.254 1.35335 1.09363 0
M  V30 6314 O 588.43 1.68391 1.10483 0
M  V30 6315 C 585.495 3.06772 1.61529 0
M  V30 6316 C 584.556 4.16516 1.03986 0
M  V30 6317 C 583.789 4.90176 2.111 0
M  V30 6318 O 584.012 4.63687 3.32191 0
M  V30 6319 O 582.946 5.76134 1.74222 0
M  V30 6320 H 586.772 3.03428 -0.12856 0
M  V30 6321 H 584.357 1.48843 -0.128837 0
M  V30 6322 H 586.239 3.55082 2.26924 0
M  V30 6323 H 584.914 2.35596 2.21983 0
M  V30 6324 H 583.821 3.7246 0.349856 0
M  V30 6325 H 585.154 4.89855 0.4799 0
M  V30 6326 N 586.806 0.0935595 1.57322 0
M  V30 6327 C 587.716 -0.880192 2.17462 0
M  V30 6328 C 588.732 -1.31135 1.14366 0
M  V30 6329 O 589.908 -1.37958 1.46729 0
M  V30 6330 C 586.973 -2.12184 2.74188 0
M  V30 6331 C 586.034 -1.74503 3.92234 0
M  V30 6332 C 585.267 -2.92748 4.46245 0
M  V30 6333 O 585.49 -4.07427 3.99198 0
M  V30 6334 O 584.424 -2.71303 5.37288 0
M  V30 6335 H 588.25 -0.398516 3.01074 0
M  V30 6336 H 585.835 -0.130707 1.48827 0
M  V30 6337 H 587.717 -2.84953 3.10451 0
M  V30 6338 H 586.392 -2.59407 1.93623 0
M  V30 6339 H 585.299 -0.989186 3.60785 0
M  V30 6340 H 586.632 -1.32044 4.74157 0
M  V30 6341 N 588.284 -1.56567 -0.180126 0
M  V30 6342 C 589.7 -1.50488 -0.531559 0
M  V30 6343 C 589.9 -0.796267 -1.851 0
M  V30 6344 O 588.956 -0.352978 -2.50021 0
M  V30 6345 C 590.269 -2.95201 -0.572456 0
M  V30 6346 C 591.817 -3.05957 -0.660264 0
M  V30 6347 C 592.292 -4.5211 -0.732135 0
M  V30 6348 N 593.783 -4.56322 -0.795262 0
M  V30 6349 C 594.518 -5.66742 -0.871296 0
M  V30 6350 N 594.014 -6.86815 -0.908708 0
M  V30 6351 N 595.807 -5.54691 -0.909639 0
M  V30 6352 H 587.958 -2.01045 0.685165 0
M  V30 6353 H 590.221 -0.915536 0.245962 0
M  V30 6354 H 589.927 -3.50165 0.328208 0
M  V30 6355 H 589.801 -3.49369 -1.422 0
M  V30 6356 H 592.188 -2.51032 -1.55136 0
M  V30 6357 H 592.269 -2.54888 0.215783 0
M  V30 6358 H 591.913 -5.07664 0.154664 0
M  V30 6359 H 591.843 -5.00926 -1.6242 0
M  V30 6360 H 594.334 -3.69868 -0.77499 0
M  V30 6361 H 594.647 -7.66718 -0.967654 0
M  V30 6362 H 592.992 -6.89443 -0.877132 0
M  V30 6363 H 596.183 -4.59804 -0.877353 0
M  V30 6364 H 596.356 -6.40768 -0.965434 0
M  V30 6365 N 589.762 0.448376 -1.51087 0
M  V30 6366 C 591.01 1.19635 -1.62886 0
M  V30 6367 C 591.331 1.91977 -0.342024 0
M  V30 6368 O 590.601 1.85094 0.641636 0
M  V30 6369 H 589.181 0.444598 -0.600285 0
M  V30 6370 H 591.843 0.515138 -1.87969 0
M  V30 6371 H 590.939 1.93194 -2.45117 0
M  V30 6372 N 591.24 1.41047 0.703093 0
M  V30 6373 C 592.48 1.41461 1.4754 0
M  V30 6374 C 592.844 0.0199013 1.9199 0
M  V30 6375 O 594.045 -0.101138 2.6861 0
M  V30 6376 C 592.316 2.38703 2.66 0
M  V30 6377 S 593.875 2.57582 3.55242 0
M  V30 6378 H 590.693 0.501226 0.504275 0
M  V30 6379 H 593.295 1.77422 0.821074 0
M  V30 6380 H 591.999 3.3885 2.31536 0
M  V30 6381 H 591.53 2.04069 3.36333 0
M  V30 6382 H 593.545 1.83758 4.6092 0
M  V30 6383 N 592.718 -0.936591 1.26751 0
M  V30 6384 C 593.65 -2.03991 1.045 0
M  V30 6385 C 594.663 -1.628 0.00394261 0
M  V30 6386 O 595.852 -1.76817 0.244526 0
M  V30 6387 C 592.952 -3.34218 0.561403 0
M  V30 6388 C 592.125 -4.04151 1.67274 0
M  V30 6389 C 591.184 -5.12651 1.1864 0
M  V30 6390 O 590.21 -5.37104 1.88437 0
M  V30 6391 N 591.412 -5.80488 0.037278 0
M  V30 6392 H 594.177 -2.23644 1.99508 0
M  V30 6393 H 591.738 -1.10638 1.18198 0
M  V30 6394 H 593.73 -4.04101 0.220136 0
M  V30 6395 H 592.3 -3.11203 -0.295211 0
M  V30 6396 H 591.52 -3.28121 2.18472 0
M  V30 6397 H 592.808 -4.47626 2.41885 0
M  V30 6398 H 592.206 -5.63064 -0.545494 0
M  V30 6399 H 590.763 -6.5134 -0.244877 0
M  V30 6400 N 594.196 -1.08629 -1.14182 0
M  V30 6401 C 595.126 -0.740003 -2.21464 0
M  V30 6402 C 596.107 0.278591 -1.67803 0
M  V30 6403 O 597.292 0.148461 -1.93632 0
M  V30 6404 C 594.422 -0.150952 -3.46972 0
M  V30 6405 C 593.376 -1.09815 -4.13672 0
M  V30 6406 C 592.702 -0.3712 -5.3341 0
M  V30 6407 C 594.002 -2.43722 -4.61949 0
M  V30 6408 H 595.696 -1.63697 -2.50686 0
M  V30 6409 H 593.242 -0.788526 -1.20492 0
M  V30 6410 H 595.195 0.103325 -4.21273 0
M  V30 6411 H 593.919 0.781164 -3.1712 0
M  V30 6412 H 592.578 -1.33756 -3.41328 0
M  V30 6413 H 592.226 0.564792 -4.99819 0
M  V30 6414 H 591.926 -1.00267 -5.78982 0
M  V30 6415 H 593.45 -0.12503 -6.10472 0
M  V30 6416 H 594.864 -2.24034 -5.27714 0
M  V30 6417 H 593.261 -3.02582 -5.18232 0
M  V30 6418 H 594.331 -3.05082 -3.76899 0
M  V30 6419 N 595.674 1.31259 -0.872281 0
M  V30 6420 C 596.902 2.00795 -0.498907 0
M  V30 6421 C 597.317 1.65464 0.909238 0
M  V30 6422 O 596.674 0.885073 1.59602 0
M  V30 6423 C 596.725 3.55625 -0.649092 0
M  V30 6424 O 596.446 3.89692 -2.00179 0
M  V30 6425 C 597.947 4.42434 -0.277034 0
M  V30 6426 H 595.167 0.642299 -0.194145 0
M  V30 6427 H 597.711 1.67438 -1.17408 0
M  V30 6428 H 595.866 3.87394 -0.0214402 0
M  V30 6429 H 596.28 4.84407 -2.01122 0
M  V30 6430 H 597.754 5.50299 -0.433064 0
M  V30 6431 H 598.231 4.32146 0.783989 0
M  V30 6432 H 598.837 4.16086 -0.880483 0
M  V30 6433 N 597.152 0.631951 1.44375 0
M  V30 6434 C 598.401 0.134214 2.01253 0
M  V30 6435 C 598.714 -1.25171 1.50305 0
M  V30 6436 O 599.92 -1.8435 1.99317 0
M  V30 6437 C 598.376 0.189187 3.59402 0
M  V30 6438 C 597.984 1.57647 4.19346 0
M  V30 6439 C 599.728 -0.252044 4.23751 0
M  V30 6440 C 597.635 1.58651 5.69722 0
M  V30 6441 H 596.565 0.0464101 0.75257 0
M  V30 6442 H 599.216 0.790868 1.65582 0
M  V30 6443 H 597.598 -0.534584 3.92375 0
M  V30 6444 H 598.772 2.32389 3.97909 0
M  V30 6445 H 597.087 1.96186 3.67288 0
M  V30 6446 H 599.684 -0.264084 5.34047 0
M  V30 6447 H 600.027 -1.27951 3.96149 0
M  V30 6448 H 600.56 0.41926 3.95584 0
M  V30 6449 H 597.299 2.59237 6.0206 0
M  V30 6450 H 596.819 0.882039 5.93279 0
M  V30 6451 H 598.498 1.32082 6.33375 0
M  V30 6452 N 598.631 -1.53133 0.372548 0
M  V30 6453 C 599.859 -2.05774 -0.215515 0
M  V30 6454 C 600.274 -1.24555 -1.41886 0
M  V30 6455 O 599.631 -0.287951 -1.80214 0
M  V30 6456 C 599.682 -3.5645 -0.602161 0
M  V30 6457 O 599.403 -4.34591 0.553359 0
M  V30 6458 C 600.904 -4.25374 -1.24787 0
M  V30 6459 H 598.124 -0.670009 -0.0364529 0
M  V30 6460 H 600.668 -1.97434 0.532934 0
M  V30 6461 H 598.823 -3.64918 -1.30052 0
M  V30 6462 H 599.237 -5.23954 0.239336 0
M  V30 6463 H 600.711 -5.32097 -1.46891 0
M  V30 6464 H 601.188 -3.79531 -2.21026 0
M  V30 6465 H 601.794 -4.21177 -0.590752 0
M  V30 6466 N 600.109 -0.101901 -1.5727 0
M  V30 6467 C 601.356 0.560197 -1.94597 0
M  V30 6468 C 601.684 1.67767 -0.984101 0
M  V30 6469 O 600.939 1.95699 -0.00489193 0
M  V30 6470 C 601.238 1.14898 -3.38427 0
M  V30 6471 C 600.904 0.154613 -4.50635 0
M  V30 6472 C 599.566 -0.118861 -4.81053 0
M  V30 6473 C 601.918 -0.523979 -5.18559 0
M  V30 6474 C 599.246 -1.0775 -5.76721 0
M  V30 6475 C 601.598 -1.47114 -6.15256 0
M  V30 6476 C 600.262 -1.75278 -6.44076 0
M  V30 6477 H 599.532 0.204991 -0.712081 0
M  V30 6478 H 602.179 -0.17918 -1.9066 0
M  V30 6479 H 600.484 1.96476 -3.38976 0
M  V30 6480 H 602.181 1.66909 -3.64613 0
M  V30 6481 H 598.771 0.377948 -4.2693 0
M  V30 6482 H 602.955 -0.325851 -4.95229 0
M  V30 6483 H 598.211 -1.30263 -5.97362 0
M  V30 6484 H 602.385 -2.00274 -6.66981 0
M  V30 6485 H 600.012 -2.49717 -7.18015 0
M  V30 6486 N 601.587 1.56661 0.17182 0
M  V30 6487 C 602.812 1.86459 0.908165 0
M  V30 6488 C 603.237 0.688181 1.75059 0
M  V30 6489 O 602.595 -0.362753 1.77634 0
M  V30 6490 C 602.643 3.14669 1.76112 0
M  V30 6491 O 601.747 2.96858 2.86268 0
M  V30 6492 H 601.088 0.613318 0.254434 0
M  V30 6493 H 603.618 2.03892 0.170113 0
M  V30 6494 H 603.628 3.46061 2.16115 0
M  V30 6495 H 602.303 3.99905 1.14233 0
M  V30 6496 H 600.88 2.76819 2.49852 0
M  V30 6497 N 603.065 -0.440357 1.51323 0
M  V30 6498 C 604.311 -1.19181 1.64085 0
M  V30 6499 C 604.644 -1.90936 0.354575 0
M  V30 6500 O 603.919 -1.8347 -0.645675 0
M  V30 6501 C 604.202 -2.2112 2.84215 0
M  V30 6502 C 604.055 -1.53468 4.22809 0
M  V30 6503 C 605.374 -3.22133 2.99864 0
M  V30 6504 H 602.493 -0.431924 0.597169 0
M  V30 6505 H 605.135 -0.481443 1.83799 0
M  V30 6506 H 603.285 -2.81703 2.67537 0
M  V30 6507 H 604.957 -0.962455 4.51148 0
M  V30 6508 H 603.2 -0.837086 4.25647 0
M  V30 6509 H 603.871 -2.27694 5.02852 0
M  V30 6510 H 606.347 -2.71601 3.15233 0
M  V30 6511 H 605.223 -3.90756 3.85488 0
M  V30 6512 H 605.484 -3.88061 2.11804 0
M  V30 6513 N 604.543 -1.41418 -0.695603 0
M  V30 6514 C 605.954 -1.36335 -1.27552 0
M  V30 6515 C 606.305 -0.0464336 -1.96145 0
M  V30 6516 O 605.43 0.855304 -1.9878 0
M  V30 6517 C 606.025 -2.46941 -2.3196 0
M  V30 6518 C 604.584 -2.45256 -2.85529 0
M  V30 6519 C 603.731 -2.2679 -1.59566 0
M  V30 6520 H 606.682 -1.50934 -0.490362 0
M  V30 6521 H 606.703 -2.15997 -3.1325 0
M  V30 6522 H 606.215 -3.42775 -1.82008 0
M  V30 6523 H 604.316 -1.53179 -3.39657 0
M  V30 6524 H 604.429 -3.41565 -3.35961 0
M  V30 6525 H 602.793 -1.74667 -1.85374 0
M  V30 6526 H 603.576 -3.24651 -1.1161 0
M  V30 6527 N 606.021 0.929856 -1.27246 0
M  V30 6528 C 606.969 2.05151 -1.09616 0
M  V30 6529 C 607.963 1.69388 -0.0198617 0
M  V30 6530 O 609.169 1.79124 -0.177417 0
M  V30 6531 H 605.544 0.671909 -0.337701 0
M  V30 6532 H 607.515 2.17168 -2.04648 0
M  V30 6533 C 606.264 3.3934 -0.757851 0
M  V30 6534 H 605.587 3.67343 -1.57795 0
M  V30 6535 H 607.027 4.18603 -0.674358 0
M  V30 6536 C 605.486 3.32582 0.537658 0
M  V30 6537 O 606.016 3.69633 1.57271 0
M  V30 6538 N 604.222 2.8568 0.532478 0
M  V30 6539 H 603.769 2.55725 -0.310233 0
M  V30 6540 H 603.727 2.81541 1.39936 0
M  V30 6541 N 607.499 1.09233 1.13605 0
M  V30 6542 C 608.446 0.729921 2.18954 0
M  V30 6543 C 609.416 -0.287916 1.63586 0
M  V30 6544 O 610.601 -0.170003 1.90041 0
M  V30 6545 C 607.741 0.154489 3.44754 0
M  V30 6546 C 606.854 1.22613 4.14234 0
M  V30 6547 C 605.989 0.613657 5.27644 0
M  V30 6548 C 605.028 1.66674 5.8897 0
M  V30 6549 N 604.165 1.07545 6.93814 0
M  V30 6550 H 609.005 1.63257 2.49302 0
M  V30 6551 H 606.542 0.815693 1.22413 0
M  V30 6552 H 608.5 -0.196923 4.16735 0
M  V30 6553 H 607.13 -0.711433 3.14863 0
M  V30 6554 H 606.182 1.69485 3.40557 0
M  V30 6555 H 607.494 2.0238 4.55899 0
M  V30 6556 H 606.648 0.210976 6.06333 0
M  V30 6557 H 605.387 -0.215584 4.87223 0
M  V30 6558 H 604.392 2.07899 5.08978 0
M  V30 6559 H 605.617 2.49861 6.31464 0
M  V30 6560 H 603.563 0.267451 6.55455 0
M  V30 6561 H 603.48 1.81011 7.3401 0
M  V30 6562 H 604.748 0.698906 7.7636 0
M  V30 6563 N 608.977 -1.30795 0.87923 0
M  V30 6564 C 610.254 -1.91145 0.415086 0
M  V30 6565 C 610.634 -1.7995 -1.10368 0
M  V30 6566 O 609.982 -1.21305 -1.93642 0
M  V30 6567 C 610.192 -3.37014 0.906778 0
M  V30 6568 C 611.54 -4.14101 0.938358 0
M  V30 6569 O 612.564 -3.45834 0.853053 0
M  V30 6570 O 611.423 -5.36054 1.06342 0
M  V30 6571 H 608.517 -0.81736 0.125905 0
M  V30 6572 H 611.063 -1.39401 0.967753 0
M  V30 6573 H 609.835 -3.3922 1.95053 0
M  V30 6574 H 609.458 -3.96204 0.332948 0
M  V30 6575 N 610.455 -0.639598 -1.44038 0
M  V30 6576 C 611.701 -0.147698 -2.02261 0
M  V30 6577 C 612.034 1.23031 -1.50256 0
M  V30 6578 O 611.309 1.81847 -0.690068 0
M  V30 6579 C 611.592 -0.14362 -3.59813 0
M  V30 6580 C 611.445 -1.55458 -4.22082 0
M  V30 6581 C 612.764 0.527317 -4.36929 0
M  V30 6582 H 609.883 -0.0551453 -0.734934 0
M  V30 6583 H 612.525 -0.817688 -1.71505 0
M  V30 6584 H 610.675 0.426898 -3.86147 0
M  V30 6585 H 612.347 -2.17464 -4.06826 0
M  V30 6586 H 610.59 -2.10594 -3.79253 0
M  V30 6587 H 611.261 -1.50369 -5.31124 0
M  V30 6588 H 613.737 0.0420504 -4.16079 0
M  V30 6589 H 612.613 0.499389 -5.46624 0
M  V30 6590 H 612.874 1.59914 -4.12165 0
M  V30 6591 N 611.933 1.52934 -0.380664 0
M  V30 6592 C 613.18 2.01467 0.204278 0
M  V30 6593 C 613.508 1.26744 1.47533 0
M  V30 6594 O 612.763 0.353723 1.92477 0
M  V30 6595 C 613.062 3.5349 0.527199 0
M  V30 6596 C 612.728 4.46171 -0.651295 0
M  V30 6597 C 611.39 4.71227 -0.974619 0
M  V30 6598 C 613.742 5.00909 -1.44012 0
M  V30 6599 C 611.07 5.4827 -2.08847 0
M  V30 6600 C 613.422 5.7917 -2.5445 0
M  V30 6601 C 612.086 6.02507 -2.87301 0
M  V30 6602 H 611.356 0.73722 0.0747504 0
M  V30 6603 H 614.003 1.84411 -0.516234 0
M  V30 6604 H 612.308 3.68574 1.32892 0
M  V30 6605 H 614.005 3.88529 0.992283 0
M  V30 6606 H 610.595 4.26829 -0.389276 0
M  V30 6607 H 614.779 4.81485 -1.20357 0
M  V30 6608 H 610.035 5.64567 -2.34679 0
M  V30 6609 H 614.209 6.20588 -3.1598 0
M  V30 6610 H 611.836 6.61989 -3.7373 0
M  V30 6611 N 613.412 0.11024 1.57214 0
M  V30 6612 C 614.344 -0.873497 2.11902 0
M  V30 6613 C 615.357 -1.23588 1.05971 0
M  V30 6614 O 616.546 -1.18636 1.33371 0
M  V30 6615 C 613.646 -2.17805 2.59643 0
M  V30 6616 C 612.819 -1.98869 3.89576 0
M  V30 6617 C 611.878 -3.12974 4.23006 0
M  V30 6618 O 610.904 -2.86272 4.91973 0
M  V30 6619 N 612.106 -4.39167 3.79622 0
M  V30 6620 H 614.871 -0.406317 2.96933 0
M  V30 6621 H 612.432 -0.074437 1.61729 0
M  V30 6622 H 614.424 -2.93117 2.79042 0
M  V30 6623 H 612.994 -2.55899 1.7954 0
M  V30 6624 H 612.214 -1.078 3.79174 0
M  V30 6625 H 613.502 -1.83512 4.74553 0
M  V30 6626 H 612.9 -4.63739 3.2398 0
M  V30 6627 H 611.457 -5.11379 4.04147 0
M  V30 6628 N 614.89 -1.56749 -0.16351 0
M  V30 6629 C 615.8 -2.00255 -1.2221 0
M  V30 6630 C 616.816 -0.915194 -1.47987 0
M  V30 6631 O 617.992 -1.22342 -1.59982 0
M  V30 6632 C 615.057 -2.36035 -2.53946 0
M  V30 6633 C 614.118 -3.58637 -2.35962 0
M  V30 6634 C 613.351 -3.92701 -3.61416 0
M  V30 6635 O 613.574 -3.27632 -4.66919 0
M  V30 6636 O 612.508 -4.86019 -3.55062 0
M  V30 6637 H 616.334 -2.90586 -0.882794 0
M  V30 6638 H 613.919 -1.44721 -0.370978 0
M  V30 6639 H 615.801 -2.59982 -3.31643 0
M  V30 6640 H 614.476 -1.48863 -2.8744 0
M  V30 6641 H 613.383 -3.39898 -1.5627 0
M  V30 6642 H 614.716 -4.46374 -2.0739 0
M  V30 6643 N 616.368 0.432326 -1.51554 0
M  V30 6644 C 617.298 1.53242 -1.76179 0
M  V30 6645 C 618.279 1.58717 -0.611801 0
M  V30 6646 O 619.464 1.74364 -0.855033 0
M  V30 6647 C 616.594 2.91278 -1.89141 0
M  V30 6648 C 615.548 3.00663 -3.04608 0
M  V30 6649 C 614.874 4.40728 -3.02759 0
M  V30 6650 C 616.174 2.74281 -4.44485 0
M  V30 6651 H 617.868 1.32886 -2.68294 0
M  V30 6652 H 615.414 0.637841 -1.29103 0
M  V30 6653 H 617.367 3.68203 -2.04951 0
M  V30 6654 H 616.091 3.12877 -0.936785 0
M  V30 6655 H 614.75 2.26179 -2.88511 0
M  V30 6656 H 614.398 4.59301 -2.05065 0
M  V30 6657 H 614.098 4.47936 -3.80299 0
M  V30 6658 H 615.622 5.19619 -3.20669 0
M  V30 6659 H 617.036 3.40936 -4.60907 0
M  V30 6660 H 615.433 2.92893 -5.23769 0
M  V30 6661 H 616.503 1.69856 -4.54177 0
M  V30 6662 N 617.846 1.41785 0.688094 0
M  V30 6663 C 618.756 1.46596 1.83158 0
M  V30 6664 C 619.772 0.355862 1.70322 0
M  V30 6665 O 620.948 0.604737 1.92106 0
M  V30 6666 C 618.013 1.35322 3.192 0
M  V30 6667 C 617.074 2.56711 3.4409 0
M  V30 6668 C 616.307 2.45965 4.73642 0
M  V30 6669 O 616.53 1.48827 5.50642 0
M  V30 6670 O 615.464 3.35859 4.99482 0
M  V30 6671 H 619.29 2.43083 1.82056 0
M  V30 6672 H 616.875 1.23404 0.842126 0
M  V30 6673 H 618.757 1.31347 4.00407 0
M  V30 6674 H 617.432 0.419536 3.2097 0
M  V30 6675 H 616.339 2.66262 2.62784 0
M  V30 6676 H 617.672 3.48933 3.47141 0
M  V30 6677 N 619.324 -0.923095 1.27737 0
M  V30 6678 C 620.271 -2.02432 1.1086 0
M  V30 6679 C 621.241 -1.66098 0.00835195 0
M  V30 6680 O 622.426 -1.90027 0.171542 0
M  V30 6681 C 619.566 -3.36476 0.766671 0
M  V30 6682 C 618.679 -3.85737 1.94501 0
M  V30 6683 C 617.814 -5.08249 1.54455 0
M  V30 6684 C 616.853 -5.49818 2.6901 0
M  V30 6685 N 615.99 -6.63524 2.29521 0
M  V30 6686 H 620.83 -2.16201 2.05089 0
M  V30 6687 H 618.367 -1.05909 1.02087 0
M  V30 6688 H 620.325 -4.13569 0.549223 0
M  V30 6689 H 618.955 -3.22502 -0.13867 0
M  V30 6690 H 618.007 -3.04883 2.27487 0
M  V30 6691 H 619.319 -4.12513 2.80419 0
M  V30 6692 H 618.473 -5.92857 1.28862 0
M  V30 6693 H 617.212 -4.83261 0.656534 0
M  V30 6694 H 616.217 -4.63757 2.95313 0
M  V30 6695 H 617.442 -5.76799 3.5844 0
M  V30 6696 H 615.388 -6.40185 1.43177 0
M  V30 6697 H 615.305 -6.89978 3.08977 0
M  V30 6698 H 616.573 -7.51461 2.07187 0
M  V30 6699 N 620.802 -1.09834 -1.13024 0
M  V30 6700 C 622.218 -0.828875 -1.36388 0
M  V30 6701 C 622.418 0.554756 -1.93713 0
M  V30 6702 O 621.474 1.30882 -2.15931 0
M  V30 6703 C 622.787 -1.92352 -2.3113 0
M  V30 6704 C 624.335 -1.95124 -2.44735 0
M  V30 6705 C 624.81 -3.03745 -3.42787 0
M  V30 6706 N 626.301 -3.03012 -3.5034 0
M  V30 6707 C 627.036 -3.83699 -4.26101 0
M  V30 6708 N 626.532 -4.74306 -5.04981 0
M  V30 6709 N 628.325 -3.71942 -4.21445 0
M  V30 6710 H 620.476 -1.99029 -0.74169 0
M  V30 6711 H 622.739 -0.864557 -0.388903 0
M  V30 6712 H 622.445 -2.91906 -1.96172 0
M  V30 6713 H 622.319 -1.80536 -3.3119 0
M  V30 6714 H 624.706 -0.962069 -2.78977 0
M  V30 6715 H 624.787 -2.11018 -1.44586 0
M  V30 6716 H 624.431 -4.02878 -3.09276 0
M  V30 6717 H 624.361 -2.85094 -4.42752 0
M  V30 6718 H 626.852 -2.37352 -2.94062 0
M  V30 6719 H 627.165 -5.32446 -5.60108 0
M  V30 6720 H 625.51 -4.78339 -5.04199 0
M  V30 6721 H 628.701 -3.00513 -3.589 0
M  V30 6722 H 628.874 -4.35062 -4.80235 0
M  V30 6723 N 622.28 1.30327 -0.886154 0
M  V30 6724 C 623.528 1.9571 -0.504195 0
M  V30 6725 C 623.849 1.70294 0.950003 0
M  V30 6726 O 623.119 1.02718 1.66811 0
M  V30 6727 H 621.699 0.72412 -0.183465 0
M  V30 6728 H 624.361 1.58835 -1.12949 0
M  V30 6729 H 623.457 3.04704 -0.675431 0
M  V30 6730 N 623.758 0.647228 1.43697 0
M  V30 6731 C 625.004 0.158422 2.0218 0
M  V30 6732 C 625.337 -1.22233 1.50907 0
M  V30 6733 O 624.612 -1.81478 0.699702 0
M  V30 6734 C 624.895 0.1627 3.59732 0
M  V30 6735 C 624.748 1.57694 4.21251 0
M  V30 6736 C 626.067 -0.504138 4.37203 0
M  V30 6737 H 623.186 0.059042 0.734631 0
M  V30 6738 H 625.828 0.826772 1.71069 0
M  V30 6739 H 623.978 -0.406414 3.86368 0
M  V30 6740 H 625.65 2.19618 4.05667 0
M  V30 6741 H 623.893 2.12603 3.7813 0
M  V30 6742 H 624.564 1.53183 5.3032 0
M  V30 6743 H 627.04 -0.0199841 4.16095 0
M  V30 6744 H 625.916 -0.470394 5.46881 0
M  V30 6745 H 626.177 -1.57726 4.13007 0
M  V30 6746 N 625.236 -1.5273 0.388769 0
M  V30 6747 C 626.482 -2.01871 -0.193877 0
M  V30 6748 C 626.815 -1.27475 -1.46505 0
M  V30 6749 O 626.09 -0.375063 -1.90849 0
M  V30 6750 C 626.373 -3.5712 -0.462336 0
M  V30 6751 C 626.226 -4.42186 0.824091 0
M  V30 6752 C 627.545 -4.21881 -1.25319 0
M  V30 6753 H 624.664 -0.733764 -0.0689899 0
M  V30 6754 H 627.306 -1.82796 0.518231 0
M  V30 6755 H 625.456 -3.73504 -1.06896 0
M  V30 6756 H 627.128 -4.37554 1.46096 0
M  V30 6757 H 625.371 -4.09219 1.43952 0
M  V30 6758 H 626.042 -5.48828 0.590905 0
M  V30 6759 H 628.518 -4.0947 -0.73981 0
M  V30 6760 H 627.394 -5.30487 -1.40977 0
M  V30 6761 H 627.655 -3.79478 -2.26824 0
M  V30 6762 N 626.714 -0.118576 -1.57153 0
M  V30 6763 C 627.954 0.542618 -1.97066 0
M  V30 6764 C 628.318 1.63874 -1.00046 0
M  V30 6765 O 629.519 2.3588 -1.28895 0
M  V30 6766 C 627.79 1.06196 -3.41258 0
M  V30 6767 S 629.349 1.73174 -4.03183 0
M  V30 6768 H 626.167 0.17638 -0.688775 0
M  V30 6769 H 628.769 -0.203556 -1.94437 0
M  V30 6770 H 627.473 0.253016 -4.09619 0
M  V30 6771 H 627.004 1.84342 -3.47536 0
M  V30 6772 H 629.019 3.01749 -3.93906 0
M  V30 6773 N 628.193 1.56834 0.155195 0
M  V30 6774 C 629.47 1.73799 0.897395 0
M  V30 6775 C 629.85 0.684379 1.99698 0
M  V30 6776 O 629.198 -0.298111 2.26547 0
M  V30 6777 C 629.408 3.17572 1.44737 0
M  V30 6778 C 630.756 3.79014 1.91399 0
M  V30 6779 O 631.78 3.20951 1.54496 0
M  V30 6780 O 630.639 4.80998 2.59429 0
M  V30 6781 H 627.733 0.710329 0.423511 0
M  V30 6782 H 630.279 1.69107 0.141761 0
M  V30 6783 H 629.051 3.85749 0.656741 0
M  V30 6784 H 628.674 3.26657 2.26674 0
M  V30 6785 N 629.671 -0.424282 1.51781 0
M  V30 6786 C 630.618 -1.51591 1.74037 0
M  V30 6787 C 631.588 -1.55556 0.582358 0
M  V30 6788 O 632.773 -1.72364 0.818245 0
M  V30 6789 C 629.913 -2.89188 1.8832 0
M  V30 6790 C 629.026 -2.9465 3.1592 0
M  V30 6791 C 628.161 -4.23452 3.20721 0
M  V30 6792 C 627.2 -4.22831 4.42584 0
M  V30 6793 N 626.337 -5.43178 4.44862 0
M  V30 6794 H 631.177 -1.31917 2.67212 0
M  V30 6795 H 628.714 -0.640599 1.32419 0
M  V30 6796 H 630.672 -3.69044 1.94583 0
M  V30 6797 H 629.302 -3.07392 0.985402 0
M  V30 6798 H 628.354 -2.07378 3.18902 0
M  V30 6799 H 629.666 -2.90055 4.05795 0
M  V30 6800 H 628.82 -5.1169 3.25973 0
M  V30 6801 H 627.559 -4.30722 2.28757 0
M  V30 6802 H 626.564 -3.32984 4.37495 0
M  V30 6803 H 627.789 -4.17213 5.35826 0
M  V30 6804 H 625.735 -5.51145 3.55775 0
M  V30 6805 H 625.652 -5.40515 5.28563 0
M  V30 6806 H 626.92 -6.33412 4.54324 0
M  V30 6807 N 631.149 -1.42148 -0.680565 0
M  V30 6808 C 632.565 -1.24947 -0.992995 0
M  V30 6809 C 632.765 -0.149527 -2.00944 0
M  V30 6810 O 631.821 0.481145 -2.47873 0
M  V30 6811 C 633.134 -2.60426 -1.5033 0
M  V30 6812 C 634.682 -2.67733 -1.62137 0
M  V30 6813 C 635.157 -4.03564 -2.16565 0
M  V30 6814 N 636.648 -4.05488 -2.23905 0
M  V30 6815 C 637.383 -5.07401 -2.67081 0
M  V30 6816 N 636.879 -6.19698 -3.09751 0
M  V30 6817 N 638.672 -4.94758 -2.66778 0
M  V30 6818 H 630.823 -2.12399 -0.0074788 0
M  V30 6819 H 633.086 -0.94571 -0.0658529 0
M  V30 6820 H 632.792 -3.41743 -0.830947 0
M  V30 6821 H 632.666 -2.83949 -2.483 0
M  V30 6822 H 635.053 -1.86765 -2.2848 0
M  V30 6823 H 635.134 -2.48004 -0.626713 0
M  V30 6824 H 634.778 -4.84987 -1.50833 0
M  V30 6825 H 634.708 -4.20641 -3.1681 0
M  V30 6826 H 637.199 -3.24415 -1.93812 0
M  V30 6827 H 637.512 -6.93318 -3.41365 0
M  V30 6828 H 635.857 -6.23212 -3.07623 0
M  V30 6829 H 639.048 -4.06105 -2.32801 0
M  V30 6830 H 639.221 -5.74317 -3.00107 0
M  V30 6831 N 632.627 0.916307 -1.28225 0
M  V30 6832 C 633.575 2.03977 -1.11786 0
M  V30 6833 C 634.569 1.69358 -0.0378265 0
M  V30 6834 O 635.775 1.78925 -0.196405 0
M  V30 6835 H 632.15 0.66829 -0.344809 0
M  V30 6836 H 634.121 2.14985 -2.06939 0
M  V30 6837 C 632.87 3.38518 -0.7938 0
M  V30 6838 H 632.193 3.65649 -1.61682 0
M  V30 6839 H 633.633 4.17864 -0.718719 0
M  V30 6840 C 632.092 3.33134 0.502353 0
M  V30 6841 O 632.622 3.71281 1.53341 0
M  V30 6842 N 630.828 2.86229 0.502147 0
M  V30 6843 H 630.375 2.55382 -0.337338 0
M  V30 6844 H 630.333 2.83009 1.36942 0
M  V30 6845 N 634.105 1.10431 1.1244 0
M  V30 6846 C 635.516 0.864439 1.65482 0
M  V30 6847 C 635.867 -0.60527 1.8663 0
M  V30 6848 O 634.992 -1.46492 1.59276 0
M  V30 6849 C 635.587 1.56267 3.0061 0
M  V30 6850 C 634.146 1.3695 3.50602 0
M  V30 6851 C 633.293 1.61209 2.25626 0
M  V30 6852 H 636.244 1.26203 0.962209 0
M  V30 6853 H 636.265 1.00166 3.67079 0
M  V30 6854 H 635.777 2.63231 2.85186 0
M  V30 6855 H 633.878 0.321481 3.71211 0
M  V30 6856 H 633.991 2.11143 4.30064 0
M  V30 6857 H 632.355 1.03482 2.32731 0
M  V30 6858 H 633.138 2.69425 2.12756 0
M  V30 6859 N 635.583 -1.29855 0.893053 0
M  V30 6860 C 636.531 -2.29867 0.355512 0
M  V30 6861 C 637.525 -1.60502 -0.541801 0
M  V30 6862 O 638.731 -1.74902 -0.425339 0
M  V30 6863 H 635.106 -0.745805 0.0963247 0
M  V30 6864 H 637.077 -2.72655 1.21252 0
M  V30 6865 C 635.826 -3.453 -0.407801 0
M  V30 6866 H 635.149 -3.98864 0.273426 0
M  V30 6867 H 636.589 -4.17334 -0.748887 0
M  V30 6868 C 635.048 -2.96051 -1.60795 0
M  V30 6869 O 635.578 -2.96763 -2.7073 0
M  V30 6870 N 633.784 -2.51963 -1.44786 0
M  V30 6871 H 633.331 -2.51583 -0.553498 0
M  V30 6872 H 633.289 -2.1937 -2.2522 0
M  V30 6873 N 637.061 -0.65484 -1.43351 0
M  V30 6874 C 638.309 -0.168559 -2.01396 0
M  V30 6875 C 638.63 1.22235 -1.51933 0
M  V30 6876 O 637.9 1.81685 -0.732627 0
M  V30 6877 H 636.48 -0.0593244 -0.744641 0
M  V30 6878 H 639.142 -0.846871 -1.75539 0
M  V30 6879 H 638.238 -0.154428 -3.11718 0
M  V30 6880 N 638.539 1.52521 -0.396863 0
M  V30 6881 C 639.788 2.00857 0.184184 0
M  V30 6882 C 640.101 1.28733 1.47265 0
M  V30 6883 O 641.307 1.67821 2.13421 0
M  V30 6884 C 639.763 3.57901 0.378787 0
M  V30 6885 C 639.371 4.38931 -0.896873 0
M  V30 6886 C 641.115 4.14504 0.915789 0
M  V30 6887 C 639.022 5.87591 -0.670133 0
M  V30 6888 H 637.952 0.750496 0.0726055 0
M  V30 6889 H 640.603 1.75965 -0.520425 0
M  V30 6890 H 638.985 3.79072 1.14543 0
M  V30 6891 H 640.159 4.29524 -1.66872 0
M  V30 6892 H 638.474 3.93586 -1.35938 0
M  V30 6893 H 641.071 5.23236 1.10126 0
M  V30 6894 H 641.414 3.71076 1.88701 0
M  V30 6895 H 641.947 3.97253 0.208523 0
M  V30 6896 H 638.686 6.35355 -1.61257 0
M  V30 6897 H 638.206 5.99767 0.0626368 0
M  V30 6898 H 639.885 6.46268 -0.307577 0
M  V30 6899 N 640.017 0.126909 1.57088 0
M  V30 6900 C 641.433 -0.229641 1.57939 0
M  V30 6901 C 641.633 -1.66145 1.1401 0
M  V30 6902 O 640.689 -2.3843 0.831119 0
M  V30 6903 C 642.002 0.0108648 3.00698 0
M  V30 6904 C 643.55 -0.054418 3.12953 0
M  V30 6905 C 644.025 0.158497 4.57726 0
M  V30 6906 N 645.516 0.104735 4.63082 0
M  V30 6907 C 646.251 0.24427 5.72879 0
M  V30 6908 N 645.747 0.440415 6.91399 0
M  V30 6909 N 647.54 0.183286 5.61801 0
M  V30 6910 H 639.691 1.06203 1.83942 0
M  V30 6911 H 641.954 0.418834 0.85046 0
M  V30 6912 H 641.66 1.00102 3.37154 0
M  V30 6913 H 641.534 -0.717512 3.70313 0
M  V30 6914 H 643.921 -1.0351 2.7635 0
M  V30 6915 H 644.002 0.705967 2.45865 0
M  V30 6916 H 643.646 1.13619 4.95028 0
M  V30 6917 H 643.576 -0.62197 5.22914 0
M  V30 6918 H 646.067 -0.0430298 3.77876 0
M  V30 6919 H 646.38 0.537536 7.70928 0
M  V30 6920 H 644.725 0.476488 6.93365 0
M  V30 6921 H 647.916 0.0309561 4.6809 0
M  V30 6922 H 648.089 0.295471 6.47326 0
M  V30 6923 N 641.495 -1.56914 -0.146875 0
M  V30 6924 C 642.741 -1.83628 -0.860741 0
M  V30 6925 C 643.074 -0.708528 -1.80813 0
M  V30 6926 O 642.349 0.287838 -1.92358 0
M  V30 6927 C 642.632 -3.20836 -1.63511 0
M  V30 6928 C 642.485 -4.44174 -0.709199 0
M  V30 6929 C 643.804 -3.55268 -2.59756 0
M  V30 6930 H 640.923 -0.667949 -0.311468 0
M  V30 6931 H 643.565 -1.89582 -0.125936 0
M  V30 6932 H 641.715 -3.15891 -2.26153 0
M  V30 6933 H 643.387 -4.61205 -0.0937781 0
M  V30 6934 H 641.63 -4.33796 -0.0187856 0
M  V30 6935 H 642.301 -5.36785 -1.28707 0
M  V30 6936 H 644.777 -3.60824 -2.07232 0
M  V30 6937 H 643.653 -4.52303 -3.10987 0
M  V30 6938 H 643.914 -2.81231 -3.41118 0
M  V30 6939 N 642.974 0.416227 -1.52004 0
M  V30 6940 C 643.937 1.48926 -1.74223 0
M  V30 6941 C 644.937 1.48693 -0.612119 0
M  V30 6942 O 646.127 1.50343 -0.879921 0
M  V30 6943 C 643.259 2.88372 -1.81809 0
M  V30 6944 H 644.452 1.3052 -2.70008 0
M  V30 6945 H 642.005 0.646271 -1.42313 0
M  V30 6946 H 642.74 3.12157 -0.879135 0
M  V30 6947 H 642.525 2.89944 -2.6396 0
M  V30 6948 H 644.015 3.66173 -2.00766 0
M  V30 6949 N 644.452 1.42507 0.673017 0
M  V30 6950 C 645.863 1.38347 1.25367 0
M  V30 6951 C 646.214 0.0776327 1.96046 0
M  V30 6952 O 645.339 -0.823571 2.00116 0
M  V30 6953 C 645.934 2.506 2.28002 0
M  V30 6954 C 644.493 2.49767 2.81591 0
M  V30 6955 C 643.64 2.293 1.55938 0
M  V30 6956 H 646.591 1.51695 0.466288 0
M  V30 6957 H 646.612 2.20953 3.09774 0
M  V30 6958 H 646.124 3.45627 1.76532 0
M  V30 6959 H 644.225 1.58563 3.37177 0
M  V30 6960 H 644.338 3.46867 3.30485 0
M  V30 6961 H 642.702 1.77594 1.82572 0
M  V30 6962 H 643.485 3.26385 1.06431 0
M  V30 6963 N 645.93 -0.909495 1.28709 0
M  V30 6964 C 647.176 -1.66151 1.16283 0
M  V30 6965 C 647.509 -1.92067 -0.287069 0
M  V30 6966 O 646.784 -1.52409 -1.20837 0
M  V30 6967 C 647.067 -3.01676 1.9663 0
M  V30 6968 C 646.92 -2.82888 3.49707 0
M  V30 6969 C 648.239 -4.02274 1.78504 0
M  V30 6970 H 645.358 -0.602966 0.423793 0
M  V30 6971 H 648 -1.05418 1.58073 0
M  V30 6972 H 646.15 -3.53515 1.61119 0
M  V30 6973 H 647.822 -2.38026 3.95147 0
M  V30 6974 H 646.065 -2.17862 3.75125 0
M  V30 6975 H 646.736 -3.79147 4.01187 0
M  V30 6976 H 649.212 -3.59511 2.09503 0
M  V30 6977 H 648.088 -4.95056 2.37088 0
M  V30 6978 H 648.349 -4.35903 0.737647 0
M  V30 6979 N 647.408 -1.11026 -1.11852 0
M  V30 6980 C 648.819 -0.873203 -1.65021 0
M  V30 6981 C 649.17 0.595364 -1.86949 0
M  V30 6982 O 648.295 1.45645 -1.60051 0
M  V30 6983 C 648.89 -1.57859 -2.99777 0
M  V30 6984 C 647.449 -1.38807 -3.49871 0
M  V30 6985 C 646.596 -1.62403 -2.24768 0
M  V30 6986 H 649.547 -1.26712 -0.955503 0
M  V30 6987 H 649.568 -1.02111 -3.66543 0
M  V30 6988 H 649.08 -2.6474 -2.83786 0
M  V30 6989 H 647.181 -0.341163 -3.71035 0
M  V30 6990 H 647.294 -2.13421 -4.28938 0
M  V30 6991 H 645.658 -1.04714 -2.32179 0
M  V30 6992 H 646.441 -2.70549 -2.11324 0
M  V30 6993 N 648.886 1.2938 -0.899927 0
M  V30 6994 C 649.816 2.30144 -0.39446 0
M  V30 6995 C 650.797 1.61611 0.530639 0
M  V30 6996 O 651.982 1.89119 0.441319 0
M  V30 6997 C 649.112 3.45229 0.37868 0
M  V30 6998 C 648.066 4.25564 -0.456012 0
M  V30 6999 C 647.392 5.32848 0.444637 0
M  V30 7000 C 648.692 4.93651 -1.70605 0
M  V30 7001 H 650.386 2.72673 -1.23653 0
M  V30 7002 H 647.932 1.31086 -0.596034 0
M  V30 7003 H 649.885 4.14797 0.743037 0
M  V30 7004 H 648.609 3.01545 1.25453 0
M  V30 7005 H 647.268 3.57704 -0.802704 0
M  V30 7006 H 646.916 4.85408 1.31863 0
M  V30 7007 H 646.616 5.87497 -0.110154 0
M  V30 7008 H 648.14 6.05268 0.805182 0
M  V30 7009 H 649.554 5.55655 -1.41141 0
M  V30 7010 H 647.951 5.58233 -2.20217 0
M  V30 7011 H 649.021 4.18926 -2.4419 0
M  V30 7012 N 650.364 0.662433 1.43002 0
M  V30 7013 C 651.594 0.187343 2.05749 0
M  V30 7014 C 652.002 -1.15582 1.49791 0
M  V30 7015 O 651.345 -1.72651 0.627487 0
M  V30 7016 C 651.407 0.0316493 3.59486 0
M  V30 7017 C 651.071 1.30156 4.38073 0
M  V30 7018 C 652.068 2.23234 4.69535 0
M  V30 7019 C 649.753 1.54572 4.77926 0
M  V30 7020 C 651.747 3.39012 5.39768 0
M  V30 7021 C 649.434 2.70641 5.47902 0
M  V30 7022 C 650.432 3.62687 5.78746 0
M  V30 7023 O 650.12 4.76728 6.47291 0
M  V30 7024 H 649.852 0.0915214 0.669776 0
M  V30 7025 H 652.406 0.905982 1.8434 0
M  V30 7026 H 650.636 -0.742451 3.79506 0
M  V30 7027 H 652.325 -0.401977 4.03905 0
M  V30 7028 H 653.091 2.05616 4.39257 0
M  V30 7029 H 648.97 0.83804 4.53319 0
M  V30 7030 H 652.514 4.10877 5.63761 0
M  V30 7031 H 648.411 2.88189 5.77596 0
M  V30 7032 H 649.179 4.76113 6.65777 0
M  V30 7033 N 651.842 -1.52309 0.404946 0
M  V30 7034 C 652.79 -2.28452 -0.437321 0
M  V30 7035 C 653.784 -1.32975 -1.04948 0
M  V30 7036 O 654.99 -1.50451 -0.988159 0
M  V30 7037 H 651.365 -0.734824 -0.159805 0
M  V30 7038 H 653.336 -2.97542 0.22615 0
M  V30 7039 C 652.085 -3.11536 -1.54404 0
M  V30 7040 H 651.408 -3.84871 -1.08233 0
M  V30 7041 H 652.848 -3.67926 -2.10729 0
M  V30 7042 C 651.307 -2.24833 -2.50902 0
M  V30 7043 O 651.837 -1.88574 -3.54687 0
M  V30 7044 N 650.043 -1.88685 -2.21012 0
M  V30 7045 H 649.59 -2.18371 -1.36646 0
M  V30 7046 H 649.548 -1.30966 -2.85824 0
M  V30 7047 N 653.32 -0.135238 -1.57019 0
M  V30 7048 C 654.545 0.529343 -2.00531 0
M  V30 7049 C 654.97 1.58391 -1.01459 0
M  V30 7050 O 654.328 1.81296 0.0113986 0
M  V30 7051 C 654.376 1.11748 -3.42848 0
M  V30 7052 O 653.48 2.23267 -3.46736 0
M  V30 7053 H 652.821 0.130669 -0.651016 0
M  V30 7054 H 655.351 -0.228503 -2.0332 0
M  V30 7055 H 655.361 1.44905 -3.81401 0
M  V30 7056 H 654.036 0.345147 -4.14465 0
M  V30 7057 H 652.613 1.91428 -3.20015 0
M  V30 7058 N 654.798 1.5699 0.138552 0
M  V30 7059 C 656.045 1.83809 0.849732 0
M  V30 7060 C 656.373 0.717409 1.80786 0
M  V30 7061 O 655.628 -0.292897 1.93496 0
M  V30 7062 C 655.927 3.17007 1.65049 0
M  V30 7063 C 655.593 4.43037 0.838398 0
M  V30 7064 C 654.255 4.77262 0.614385 0
M  V30 7065 C 656.607 5.20495 0.271044 0
M  V30 7066 C 653.935 5.864 -0.187552 0
M  V30 7067 C 656.287 6.30476 -0.517979 0
M  V30 7068 C 654.951 6.63245 -0.75249 0
M  V30 7069 H 654.221 0.672605 0.310939 0
M  V30 7070 H 656.868 1.91166 0.112971 0
M  V30 7071 H 655.173 3.05138 2.4576 0
M  V30 7072 H 656.87 3.34975 2.20437 0
M  V30 7073 H 653.46 4.16211 1.02307 0
M  V30 7074 H 657.644 4.94422 0.431371 0
M  V30 7075 H 652.9 6.10226 -0.378659 0
M  V30 7076 H 657.074 6.89686 -0.964694 0
M  V30 7077 H 654.701 7.47648 -1.37573 0
M  V30 7078 N 656.276 -0.40816 1.52223 0
M  V30 7079 C 657.226 -1.49648 1.72016 0
M  V30 7080 C 658.21 -1.50311 0.574069 0
M  V30 7081 O 659.402 -1.56271 0.831173 0
M  V30 7082 C 656.531 -2.87566 1.87512 0
M  V30 7083 C 655.617 -2.91547 3.07995 0
M  V30 7084 N 656.008 -2.65225 4.30685 0
M  V30 7085 C 654.306 -3.22715 3.07849 0
M  V30 7086 C 655.007 -2.75799 5.12162 0
M  V30 7087 N 653.983 -3.08719 4.4743 0
M  V30 7088 H 657.785 -1.28093 2.64517 0
M  V30 7089 H 655.299 -0.61588 1.50269 0
M  V30 7090 H 657.296 -3.65899 1.99809 0
M  V30 7091 H 655.956 -3.10118 0.962114 0
M  V30 7092 H 656.967 -2.39601 4.59142 0
M  V30 7093 H 653.644 -3.50856 2.26289 0
M  V30 7094 H 655.034 -2.59155 6.1991 0
M  V30 7095 N 657.755 -1.42862 -0.66545 0
M  V30 7096 C 659.032 -1.3431 -1.42197 0
M  V30 7097 C 659.412 0.0150265 -2.11095 0
M  V30 7098 O 658.76 1.03101 -2.03918 0
M  V30 7099 C 658.97 -2.51783 -2.41674 0
M  V30 7100 C 660.318 -2.94321 -3.0604 0
M  V30 7101 O 661.342 -2.51741 -2.52001 0
M  V30 7102 O 660.201 -3.68047 -4.03985 0
M  V30 7103 H 657.295 -0.530159 -0.634713 0
M  V30 7104 H 659.841 -1.54888 -0.693386 0
M  V30 7105 H 658.613 -3.42282 -1.89627 0
M  V30 7106 H 658.236 -2.33241 -3.22001 0
M  V30 7107 N 659.233 0.902656 -1.29189 0
M  V30 7108 C 660.479 1.65532 -1.17163 0
M  V30 7109 C 660.812 1.92216 0.276879 0
M  V30 7110 O 660.087 1.53048 1.20027 0
M  V30 7111 C 660.37 3.00629 -1.98228 0
M  V30 7112 C 660.223 2.81029 -3.51202 0
M  V30 7113 C 661.542 4.01321 -1.80635 0
M  V30 7114 H 658.661 0.60071 -0.426985 0
M  V30 7115 H 661.303 1.04578 -1.5863 0
M  V30 7116 H 659.453 3.52656 -1.62991 0
M  V30 7117 H 661.125 2.35927 -3.96404 0
M  V30 7118 H 659.368 2.1587 -3.76275 0
M  V30 7119 H 660.039 3.77014 -4.03192 0
M  V30 7120 H 662.515 3.58394 -2.11406 0
M  V30 7121 H 661.391 4.93792 -2.3971 0
M  V30 7122 H 661.652 4.35505 -0.760754 0
M  V30 7123 N 660.711 1.11618 1.11262 0
M  V30 7124 C 661.941 0.88745 1.86569 0
M  V30 7125 C 662.349 -0.56636 1.80524 0
M  V30 7126 O 661.692 -1.40289 1.18594 0
M  V30 7127 C 661.754 1.27313 3.36202 0
M  V30 7128 C 661.418 2.73649 3.66013 0
M  V30 7129 C 662.415 3.71863 3.63337 0
M  V30 7130 C 660.1 3.10342 3.9496 0
M  V30 7131 C 662.094 5.04788 3.89188 0
M  V30 7132 C 659.781 4.43451 4.20469 0
M  V30 7133 C 660.779 5.40484 4.17572 0
M  V30 7134 O 660.467 6.71195 4.42439 0
M  V30 7135 H 660.199 0.317543 0.596777 0
M  V30 7136 H 662.753 1.48768 1.41624 0
M  V30 7137 H 660.983 0.616062 3.81761 0
M  V30 7138 H 662.672 1.01991 3.92877 0
M  V30 7139 H 663.438 3.44861 3.41022 0
M  V30 7140 H 659.317 2.35431 3.9635 0
M  V30 7141 H 662.861 5.80516 3.86842 0
M  V30 7142 H 658.758 4.70187 4.42261 0
M  V30 7143 H 659.526 6.77012 4.59997 0
M  V30 7144 N 662.189 -1.289 0.906776 0
M  V30 7145 C 663.136 -2.2751 0.388313 0
M  V30 7146 C 664.106 -1.57301 -0.533439 0
M  V30 7147 O 665.291 -1.85243 -0.457148 0
M  V30 7148 C 662.431 -3.43091 -0.37181 0
M  V30 7149 C 661.544 -4.28066 0.581647 0
M  V30 7150 C 660.679 -5.30837 -0.19623 0
M  V30 7151 C 659.718 -6.07472 0.751294 0
M  V30 7152 N 658.855 -7.021 0.00737727 0
M  V30 7153 H 663.695 -2.71237 1.23428 0
M  V30 7154 H 661.232 -1.33397 0.619962 0
M  V30 7155 H 663.19 -4.08888 -0.828641 0
M  V30 7156 H 661.82 -3.00374 -1.18218 0
M  V30 7157 H 660.872 -3.62378 1.157 0
M  V30 7158 H 662.184 -4.81382 1.30665 0
M  V30 7159 H 661.338 -6.02485 -0.71394 0
M  V30 7160 H 660.077 -4.78272 -0.954324 0
M  V30 7161 H 659.082 -5.34682 1.28044 0
M  V30 7162 H 660.307 -6.62126 1.50883 0
M  V30 7163 H 658.253 -6.51894 -0.732854 0
M  V30 7164 H 658.17 -7.53004 0.672334 0
M  V30 7165 H 659.438 -7.77956 -0.490365 0
M  V30 7166 N 663.667 -0.670007 -1.42649 0
M  V30 7167 C 664.914 -0.190286 -2.01604 0
M  V30 7168 C 665.242 1.20155 -1.52948 0
M  V30 7169 O 664.497 1.81964 -0.72026 0
M  V30 7170 C 664.796 -0.168298 -3.57004 0
M  V30 7171 C 664.462 -1.50415 -4.25072 0
M  V30 7172 C 663.124 -1.86992 -4.43382 0
M  V30 7173 C 665.476 -2.38414 -4.63474 0
M  V30 7174 C 662.804 -3.11203 -4.97363 0
M  V30 7175 C 665.156 -3.61933 -5.18833 0
M  V30 7176 C 663.82 -3.98685 -5.35356 0
M  V30 7177 H 663.09 -0.0696305 -0.737721 0
M  V30 7178 H 665.737 -0.864044 -1.70899 0
M  V30 7179 H 664.042 0.588958 -3.87348 0
M  V30 7180 H 665.739 0.22001 -4.00396 0
M  V30 7181 H 662.329 -1.20959 -4.11177 0
M  V30 7182 H 666.513 -2.11442 -4.49006 0
M  V30 7183 H 661.769 -3.39705 -5.08341 0
M  V30 7184 H 665.943 -4.30326 -5.47533 0
M  V30 7185 H 663.57 -4.95009 -5.76949 0
M  V30 7186 N 665.145 1.52092 -0.413018 0
M  V30 7187 C 666.373 2.06274 0.160881 0
M  V30 7188 C 666.788 1.28273 1.38533 0
M  V30 7189 O 666.145 0.33563 1.79387 0
M  V30 7190 C 666.196 3.57921 0.507443 0
M  V30 7191 O 665.917 4.32971 -0.668388 0
M  V30 7192 C 667.418 4.28533 1.13465 0
M  V30 7193 H 664.638 0.67074 0.0186759 0
M  V30 7194 H 667.182 1.95951 -0.585092 0
M  V30 7195 H 665.337 3.68238 1.20331 0
M  V30 7196 H 665.751 5.23135 -0.378169 0
M  V30 7197 H 667.225 5.35804 1.32732 0
M  V30 7198 H 667.702 3.85258 2.10886 0
M  V30 7199 H 668.308 4.22595 0.478876 0
M  V30 7200 N 666.623 0.143563 1.56945 0
M  V30 7201 C 667.571 -0.814556 2.17871 0
M  V30 7202 C 668.565 -1.25778 1.13474 0
M  V30 7203 O 669.771 -1.22666 1.31731 0
M  V30 7204 H 666.146 -0.280873 0.697578 0
M  V30 7205 H 668.117 -0.276459 2.97117 0
M  V30 7206 C 666.866 -2.04503 2.81201 0
M  V30 7207 H 666.189 -1.71296 3.61245 0
M  V30 7208 H 667.629 -2.69493 3.27337 0
M  V30 7209 C 666.088 -2.85079 1.79532 0
M  V30 7210 O 666.618 -3.81306 1.26368 0
M  V30 7211 N 664.824 -2.49546 1.48913 0
M  V30 7212 H 664.371 -1.71359 1.92338 0
M  V30 7213 H 664.329 -3.03751 0.811348 0
M  V30 7214 N 668.101 -1.57061 -0.130224 0
M  V30 7215 C 669.031 -2.02552 -1.16168 0
M  V30 7216 C 670.012 -0.907971 -1.4384 0
M  V30 7217 O 671.197 -1.17693 -1.54473 0
M  V30 7218 C 668.327 -2.42035 -2.49071 0
M  V30 7219 C 667.281 -3.5713 -2.35886 0
M  V30 7220 C 666.607 -3.82478 -3.7365 0
M  V30 7221 C 667.907 -4.89236 -1.8288 0
M  V30 7222 H 669.601 -2.8897 -0.783359 0
M  V30 7223 H 667.147 -1.39021 -0.375376 0
M  V30 7224 H 669.1 -2.72462 -3.21469 0
M  V30 7225 H 667.824 -1.52573 -2.88771 0
M  V30 7226 H 666.483 -3.26895 -1.65938 0
M  V30 7227 H 666.131 -2.9024 -4.10816 0
M  V30 7228 H 665.831 -4.59944 -3.65685 0
M  V30 7229 H 667.355 -4.15347 -4.47571 0
M  V30 7230 H 668.769 -5.18272 -2.45085 0
M  V30 7231 H 667.166 -5.70624 -1.85763 0
M  V30 7232 H 668.236 -4.78494 -0.785571 0
M  V30 7233 N 669.579 0.400081 -1.52437 0
M  V30 7234 C 670.509 1.4947 -1.7939 0
M  V30 7235 C 671.49 1.57383 -0.645329 0
M  V30 7236 O 672.675 1.72511 -0.891826 0
M  V30 7237 C 669.805 2.87201 -1.95276 0
M  V30 7238 C 668.759 2.94134 -3.10917 0
M  V30 7239 C 668.085 4.34207 -3.1204 0
M  V30 7240 C 669.385 2.64791 -4.50203 0
M  V30 7241 H 671.079 1.27165 -2.71052 0
M  V30 7242 H 668.625 0.610312 -1.30427 0
M  V30 7243 H 670.578 3.63772 -2.12715 0
M  V30 7244 H 669.302 3.10819 -1.00294 0
M  V30 7245 H 667.961 2.20009 -2.93243 0
M  V30 7246 H 667.609 4.54848 -2.14761 0
M  V30 7247 H 667.309 4.39768 -3.89715 0
M  V30 7248 H 668.833 5.127 -3.31619 0
M  V30 7249 H 670.247 3.31083 -4.68035 0
M  V30 7250 H 668.644 2.81717 -5.29864 0
M  V30 7251 H 669.714 1.60184 -4.57678 0
M  V30 7252 N 671.057 1.43213 0.657864 0
M  V30 7253 C 672.285 1.48015 1.44566 0
M  V30 7254 C 672.7 0.0965951 1.88553 0
M  V30 7255 O 672.057 -0.892221 1.59203 0
M  V30 7256 C 672.108 2.42199 2.68369 0
M  V30 7257 O 671.829 3.75173 2.26223 0
M  V30 7258 C 673.33 2.56195 3.61772 0
M  V30 7259 H 670.55 0.502861 0.444266 0
M  V30 7260 H 673.094 1.87907 0.806917 0
M  V30 7261 H 671.249 2.05514 3.28394 0
M  V30 7262 H 671.663 4.25776 3.06293 0
M  V30 7263 H 673.137 3.26182 4.4532 0
M  V30 7264 H 673.614 1.60534 4.0881 0
M  V30 7265 H 674.22 2.93671 3.07632 0
M  V30 7266 N 672.536 -0.895792 1.29666 0
M  V30 7267 C 673.761 -1.68528 1.20885 0
M  V30 7268 C 674.186 -1.8673 -0.226595 0
M  V30 7269 O 673.544 -1.39044 -1.16347 0
M  V30 7270 C 673.592 -3.04512 1.93144 0
M  V30 7271 O 672.696 -3.92963 1.25115 0
M  V30 7272 H 672.037 -0.515371 0.418675 0
M  V30 7273 H 674.567 -1.11878 1.71302 0
M  V30 7274 H 674.577 -3.54628 2.0175 0
M  V30 7275 H 673.252 -2.90582 2.97548 0
M  V30 7276 H 671.829 -3.51399 1.24794 0
M  V30 7277 N 674.014 -1.12206 -1.10668 0
M  V30 7278 C 675.263 -0.870595 -1.81944 0
M  V30 7279 C 675.576 0.605447 -1.85994 0
M  V30 7280 O 676.782 0.973433 -2.53449 0
M  V30 7281 C 675.238 -1.50783 -3.26791 0
M  V30 7282 C 674.846 -3.01849 -3.31046 0
M  V30 7283 C 676.59 -1.33653 -4.02911 0
M  V30 7284 C 674.497 -3.58518 -4.70339 0
M  V30 7285 H 673.427 -0.322043 -0.681765 0
M  V30 7286 H 676.078 -1.34827 -1.24475 0
M  V30 7287 H 674.46 -0.957825 -3.84242 0
M  V30 7288 H 675.634 -3.63321 -2.83433 0
M  V30 7289 H 673.949 -3.18346 -2.68411 0
M  V30 7290 H 676.546 -1.73416 -5.05797 0
M  V30 7291 H 676.889 -0.279949 -4.15358 0
M  V30 7292 H 677.422 -1.85562 -3.51868 0
M  V30 7293 H 674.161 -4.63925 -4.63091 0
M  V30 7294 H 673.681 -3.01819 -5.18329 0
M  V30 7295 H 675.36 -3.57434 -5.39305 0
M  V30 7296 N 675.492 1.28418 -0.913599 0
M  V30 7297 C 676.422 2.29713 -0.418847 0
M  V30 7298 C 677.403 1.62165 0.513469 0
M  V30 7299 O 678.588 1.89576 0.421235 0
M  V30 7300 C 675.718 3.45612 0.342042 0
M  V30 7301 C 674.672 4.25056 -0.501123 0
M  V30 7302 C 673.998 5.3329 0.388097 0
M  V30 7303 C 675.298 4.91814 -1.75831 0
M  V30 7304 H 676.992 2.71346 -1.26538 0
M  V30 7305 H 674.538 1.30446 -0.609903 0
M  V30 7306 H 676.491 4.15562 0.699 0
M  V30 7307 H 675.215 3.02858 1.22248 0
M  V30 7308 H 673.874 3.56833 -0.840598 0
M  V30 7309 H 673.522 4.8678 1.26707 0
M  V30 7310 H 673.222 5.87347 -0.172459 0
M  V30 7311 H 674.746 6.06088 0.74094 0
M  V30 7312 H 676.16 5.54126 -1.47026 0
M  V30 7313 H 674.557 5.55866 -2.26126 0
M  V30 7314 H 675.627 4.16313 -2.4862 0
M  V30 7315 N 676.97 0.677563 1.42291 0
M  V30 7316 C 678.247 0.129803 1.95169 0
M  V30 7317 C 678.627 -1.35605 1.61786 0
M  V30 7318 O 677.975 -2.09361 0.915444 0
M  V30 7319 C 678.185 0.401889 3.46678 0
M  V30 7320 C 679.533 0.319889 4.23393 0
M  V30 7321 O 680.557 0.33579 3.54614 0
M  V30 7322 O 679.416 0.264459 5.4586 0
M  V30 7323 H 676.51 0.00447433 0.826988 0
M  V30 7324 H 679.056 0.752483 1.52105 0
M  V30 7325 H 677.828 1.43108 3.64192 0
M  V30 7326 H 677.451 -0.252662 3.96796 0
M  V30 7327 N 678.448 -1.51871 0.421078 0
M  V30 7328 C 679.673 -2.0684 -0.152371 0
M  V30 7329 C 680.098 -1.28802 -1.37083 0
M  V30 7330 O 679.456 -0.321482 -1.78427 0
M  V30 7331 C 679.504 -3.57532 -0.469368 0
M  V30 7332 O 678.608 -3.81818 -1.55848 0
M  V30 7333 H 677.949 -0.663939 -0.00898586 0
M  V30 7334 H 680.479 -1.95674 0.597724 0
M  V30 7335 H 680.489 -4.01515 -0.724553 0
M  V30 7336 H 679.164 -4.13761 0.421276 0
M  V30 7337 H 677.741 -3.49709 -1.29453 0
M  V30 7338 N 679.926 -0.151884 -1.56866 0
M  V30 7339 C 680.889 0.771861 -2.15812 0
M  V30 7340 C 681.889 1.17181 -1.10115 0
M  V30 7341 O 683.079 1.09194 -1.35729 0
M  V30 7342 C 680.211 2.04806 -2.7252 0
M  V30 7343 H 681.404 0.259021 -2.98779 0
M  V30 7344 H 678.957 0.097588 -1.55995 0
M  V30 7345 H 679.692 2.60445 -1.93233 0
M  V30 7346 H 679.477 1.77044 -3.49854 0
M  V30 7347 H 680.967 2.70771 -3.1792 0
M  V30 7348 N 681.404 1.57128 0.121893 0
M  V30 7349 C 682.314 2.03425 1.16857 0
M  V30 7350 C 683.33 0.954108 1.45509 0
M  V30 7351 O 684.506 1.26541 1.56682 0
M  V30 7352 C 681.571 2.42685 2.47599 0
M  V30 7353 C 680.632 3.64767 2.2637 0
M  V30 7354 C 679.865 4.02145 3.50878 0
M  V30 7355 O 680.088 3.39897 4.58068 0
M  V30 7356 O 679.022 4.95262 3.42051 0
M  V30 7357 H 682.848 2.92825 0.80544 0
M  V30 7358 H 680.433 1.45654 0.332477 0
M  V30 7359 H 682.315 2.68684 3.24634 0
M  V30 7360 H 680.99 1.56432 2.83392 0
M  V30 7361 H 679.897 3.43922 1.47203 0
M  V30 7362 H 681.23 4.51716 1.95482 0
M  V30 7363 N 682.882 -0.391992 1.52647 0
M  V30 7364 C 684.11 -1.1586 1.71418 0
M  V30 7365 C 684.525 -1.8381 0.431216 0
M  V30 7366 O 683.882 -1.7256 -0.594085 0
M  V30 7367 C 683.933 -2.20888 2.86165 0
M  V30 7368 O 683.654 -1.5571 4.09495 0
M  V30 7369 C 685.155 -3.103 3.1659 0
M  V30 7370 H 682.375 -0.347494 0.574011 0
M  V30 7371 H 684.919 -0.458972 1.99283 0
M  V30 7372 H 683.074 -2.86492 2.6077 0
M  V30 7373 H 683.488 -2.25474 4.73563 0
M  V30 7374 H 684.962 -3.8003 4.00351 0
M  V30 7375 H 685.439 -3.73639 2.30848 0
M  V30 7376 H 686.045 -2.50345 3.43813 0
M  V30 7377 N 684.36 -1.4356 -0.65026 0
M  V30 7378 C 685.307 -1.48948 -1.76304 0
M  V30 7379 C 686.277 -0.338919 -1.62605 0
M  V30 7380 O 687.462 -0.54649 -1.82806 0
M  V30 7381 C 684.602 -1.42131 -3.14472 0
M  V30 7382 C 683.715 -2.67415 -3.39284 0
M  V30 7383 C 682.85 -2.52565 -4.67316 0
M  V30 7384 C 681.889 -3.73103 -4.85243 0
M  V30 7385 N 681.026 -3.57046 -6.04535 0
M  V30 7386 H 685.866 -2.44032 -1.71034 0
M  V30 7387 H 683.403 -1.21131 -0.834601 0
M  V30 7388 H 685.361 -1.36172 -3.94351 0
M  V30 7389 H 683.991 -0.506273 -3.18805 0
M  V30 7390 H 683.043 -2.8364 -2.53481 0
M  V30 7391 H 684.355 -3.56943 -3.48415 0
M  V30 7392 H 683.509 -2.44331 -5.55326 0
M  V30 7393 H 682.248 -1.60566 -4.60511 0
M  V30 7394 H 681.253 -3.81743 -3.95667 0
M  V30 7395 H 682.478 -4.66115 -4.93876 0
M  V30 7396 H 680.424 -2.67783 -5.98856 0
M  V30 7397 H 680.341 -4.40178 -6.14638 0
M  V30 7398 H 681.609 -3.52669 -6.95158 0
M  V30 7399 N 685.838 0.888903 -1.30139 0
M  V30 7400 C 686.786 2.0156 -1.16088 0
M  V30 7401 C 687.78 1.69239 -0.0737413 0
M  V30 7402 O 688.986 1.78468 -0.234313 0
M  V30 7403 H 685.361 0.660825 -0.358907 0
M  V30 7404 H 687.332 2.10547 -2.11453 0
M  V30 7405 C 686.081 3.36758 -0.865426 0
M  V30 7406 H 685.404 3.62137 -1.69402 0
M  V30 7407 H 686.844 4.16246 -0.807192 0
M  V30 7408 C 685.303 3.34124 0.431577 0
M  V30 7409 O 685.833 3.7445 1.45431 0
M  V30 7410 N 684.039 2.87229 0.441321 0
M  V30 7411 H 683.586 2.54609 -0.391433 0
M  V30 7412 H 683.544 2.8585 1.30909 0
M  V30 7413 O 687.355 1.24817 1.02483 0
M  V30 7414 H 688.046 1.02783 1.64181 0
M  V30 END ATOM
M  V30 BEGIN BOND
M  V30 END BOND
M  V30 END CTAB
M  END
$$$$
