drugbank_target|Q16718 NADH dehydrogenase [ubiquinone] 1 alpha subcomplex subunit 5 (DB00157)
 OpenBabel12092119323D

  0  0  0     0  0            999 V3000
M  V30 BEGIN CTAB
M  V30 COUNTS 1926 1945 0 0 0
M  V30 BEGIN ATOM
M  V30 1 H -0.908 1.98254 -0.117106 0
M  V30 2 N 0 1.576 0 0
M  V30 3 C 0.933 2.03868 1.02534 0
M  V30 4 C 1.911 0.928543 1.3348 0
M  V30 5 O 3.095 1.19667 1.45644 0
M  V30 6 C 0.222 2.43627 2.35294 0
M  V30 7 C -0.732 3.65373 2.2001 0
M  V30 8 S 0.101 5.13292 1.52614 0
M  V30 9 C 1.257 5.56322 2.86805 0
M  V30 10 H 1.49 2.90518 0.631377 0
M  V30 11 H -0.977 1.52953 0.210867 0
M  V30 12 H 0.981 2.67203 3.11629 0
M  V30 13 H -0.358 1.57376 2.7183 0
M  V30 14 H -1.165 3.90944 3.18086 0
M  V30 15 H -1.563 3.418 1.51819 0
M  V30 16 H 0.729 5.58782 3.83104 0
M  V30 17 H 1.672 6.56266 2.65933 0
M  V30 18 H 2.08 4.83886 2.90714 0
M  V30 19 N 1.4781 -0.272755 1.55222 0
M  V30 20 C 2.4411 -1.32041 1.87344 0
M  V30 21 C 3.4411 -1.42342 0.74803 0
M  V30 22 O 4.6311 -1.41488 1.0162 0
M  V30 23 C 1.7631 -2.70173 2.07893 0
M  V30 24 H 2.9561 -1.04789 2.80997 0
M  V30 25 H 0.5091 -0.51083 1.47717 0
M  V30 26 H 1.2441 -3.02605 1.16622 0
M  V30 27 H 1.0291 -2.64082 2.89833 0
M  V30 28 H 2.5191 -3.45869 2.34017 0
M  V30 29 N 2.9562 -1.48159 -0.537278 0
M  V30 30 C 4.2042 -1.55497 -1.29094 0
M  V30 31 C 4.5252 -0.227454 -1.93669 0
M  V30 32 O 3.7952 0.750386 -1.80959 0
M  V30 33 H 2.3752 -0.572832 -0.47945 0
M  V30 34 H 5.0372 -1.84579 -0.625818 0
M  V30 35 H 4.1332 -2.33216 -2.07405 0
M  V30 36 N 4.4343 0.785586 -1.36625 0
M  V30 37 C 5.6803 1.54591 -1.31261 0
M  V30 38 C 6.0133 1.93906 0.106823 0
M  V30 39 O 5.2883 1.63007 1.06108 0
M  V30 40 C 5.5713 2.82038 -2.23889 0
M  V30 41 C 5.4243 2.49066 -3.74548 0
M  V30 42 C 6.7433 3.83887 -2.15217 0
M  V30 43 H 3.8623 0.560846 -0.478143 0
M  V30 44 H 6.5043 0.902278 -1.67209 0
M  V30 45 H 4.6543 3.36961 -1.93363 0
M  V30 46 H 6.3263 2.00164 -4.15611 0
M  V30 47 H 4.5693 1.81954 -3.93796 0
M  V30 48 H 5.2403 3.40109 -4.34776 0
M  V30 49 H 7.7163 3.38421 -2.42096 0
M  V30 50 H 6.5923 4.70806 -2.82193 0
M  V30 51 H 6.8533 4.27131 -1.14068 0
M  V30 52 N 5.9124 1.20967 1.01018 0
M  V30 53 C 6.8424 0.988272 2.11555 0
M  V30 54 C 7.8234 -0.0849778 1.69888 0
M  V30 55 O 9.0084 0.0738202 1.9406 0
M  V30 56 C 6.1384 0.546528 3.42973 0
M  V30 57 C 5.0924 1.56375 3.9841 0
M  V30 58 C 4.4184 0.97842 5.25672 0
M  V30 59 C 5.7184 2.94922 4.31066 0
M  V30 60 H 7.4124 1.91276 2.30334 0
M  V30 61 H 4.9584 0.921073 1.1069 0
M  V30 62 H 6.9114 0.378839 4.19694 0
M  V30 63 H 5.6354 -0.413598 3.23971 0
M  V30 64 H 4.2944 1.71891 3.23804 0
M  V30 65 H 3.9424 0.0101688 5.02999 0
M  V30 66 H 3.6424 1.65784 5.63728 0
M  V30 67 H 5.1664 0.821939 6.05043 0
M  V30 68 H 6.5804 2.8288 4.9865 0
M  V30 69 H 4.9774 3.5983 4.80253 0
M  V30 70 H 6.0474 3.4616 3.39561 0
M  V30 71 N 7.3905 -1.2043 1.01659 0
M  V30 72 C 8.3375 -2.23215 0.586822 0
M  V30 73 C 9.3075 -1.61382 -0.393085 0
M  V30 74 O 10.4925 -1.88544 -0.292525 0
M  V30 75 C 7.6325 -3.45032 -0.0687464 0
M  V30 76 C 6.7455 -4.21296 0.955724 0
M  V30 77 C 5.8805 -5.30507 0.271208 0
M  V30 78 C 4.9195 -5.98515 1.28244 0
M  V30 79 N 4.0565 -6.99316 0.62459 0
M  V30 80 H 8.8965 -2.59336 1.46796 0
M  V30 81 H 6.4335 -1.27431 0.734836 0
M  V30 82 H 8.3915 -4.1459 -0.465965 0
M  V30 83 H 7.0215 -3.09604 -0.913529 0
M  V30 84 H 6.0735 -3.50803 1.4711 0
M  V30 85 H 7.3855 -4.6803 1.72479 0
M  V30 86 H 6.5395 -6.06428 -0.18151 0
M  V30 87 H 5.2785 -4.8481 -0.530163 0
M  V30 88 H 4.2835 -5.21355 1.74554 0
M  V30 89 H 5.5085 -6.46298 2.08509 0
M  V30 90 H 3.4545 -6.55812 -0.156914 0
M  V30 91 H 3.3715 -7.44178 1.33172 0
M  V30 92 H 4.6395 -7.79255 0.195462 0
M  V30 93 N 8.8686 -0.792821 -1.36206 0
M  V30 94 C 9.8156 -0.191653 -2.30003 0
M  V30 95 C 10.7856 0.666453 -1.52143 0
M  V30 96 O 11.9706 0.61442 -1.80636 0
M  V30 97 C 9.1106 0.664848 -3.38635 0
M  V30 98 C 8.2236 -0.212175 -4.31479 0
M  V30 99 C 7.3586 0.651022 -5.27196 0
M  V30 100 C 6.3976 -0.227247 -6.11678 0
M  V30 101 N 5.5346 0.595127 -6.99573 0
M  V30 102 H 10.3746 -0.996978 -2.80828 0
M  V30 103 H 7.9116 -0.503206 -1.38225 0
M  V30 104 H 9.8696 1.17645 -4.00269 0
M  V30 105 H 8.4996 1.43557 -2.89122 0
M  V30 106 H 7.5516 -0.841777 -3.70969 0
M  V30 107 H 8.8636 -0.888751 -4.90818 0
M  V30 108 H 8.0176 1.2283 -5.94136 0
M  V30 109 H 6.7566 1.36121 -4.68319 0
M  V30 110 H 5.7616 -0.816904 -5.43697 0
M  V30 111 H 6.9866 -0.93509 -6.72631 0
M  V30 112 H 4.9326 1.28955 -6.432 0
M  V30 113 H 4.8496 -0.0236952 -7.55996 0
M  V30 114 H 6.1176 1.15613 -7.70879 0
M  V30 115 N 10.3467 1.47872 -0.545128 0
M  V30 116 C 11.5747 2.06889 -0.021084 0
M  V30 117 C 11.9897 1.39955 1.2672 0
M  V30 118 O 11.3467 0.492036 1.75742 0
M  V30 119 C 11.3977 3.60996 0.190817 0
M  V30 120 O 11.1187 4.25419 -1.04644 0
M  V30 121 C 12.6197 4.36849 0.753521 0
M  V30 122 H 9.8397 0.669785 -0.0403635 0
M  V30 123 H 12.3837 1.90049 -0.755095 0
M  V30 124 H 10.5387 3.77391 0.87492 0
M  V30 125 H 10.9527 5.17785 -0.836611 0
M  V30 126 H 12.4267 5.45399 0.851139 0
M  V30 127 H 12.9037 4.02306 1.762 0
M  V30 128 H 13.5097 4.25169 0.105503 0
M  V30 129 N 11.8248 0.280983 1.55075 0
M  V30 130 C 13.0528 -0.337293 2.04132 0
M  V30 131 C 13.4678 -1.4903 1.15912 0
M  V30 132 O 12.8248 -1.81606 0.180459 0
M  V30 133 C 12.8758 -0.812706 3.52246 0
M  V30 134 O 12.5968 0.294387 4.3711 0
M  V30 135 C 14.0978 -1.4982 4.17216 0
M  V30 136 H 11.3178 -0.0761638 0.666663 0
M  V30 137 H 13.8618 0.414787 2.00249 0
M  V30 138 H 12.0168 -1.51486 3.56554 0
M  V30 139 H 12.4308 -0.0721325 5.2445 0
M  V30 140 H 13.9048 -1.7822 5.22438 0
M  V30 141 H 14.3818 -2.43168 3.65741 0
M  V30 142 H 14.9878 -0.839742 4.16927 0
M  V30 143 N 13.3029 -1.57598 0.00835791 0
M  V30 144 C 14.5509 -1.90551 -0.6734 0
M  V30 145 C 14.8719 -0.883301 -1.73847 0
M  V30 146 O 14.1419 0.0781442 -1.95744 0
M  V30 147 H 12.7219 -0.703312 -0.251717 0
M  V30 148 H 15.3839 -1.94833 0.0512592 0
M  V30 149 H 14.4799 -2.9056 -1.13935 0
M  V30 150 N 14.781 0.264519 -1.55364 0
M  V30 151 C 15.711 1.33121 -1.91836 0
M  V30 152 C 16.692 1.51101 -0.781192 0
M  V30 153 O 17.877 1.64003 -1.04003 0
M  V30 154 C 15.007 2.68921 -2.19769 0
M  V30 155 C 13.961 2.65661 -3.35571 0
M  V30 156 C 13.287 4.05093 -3.49004 0
M  V30 157 C 14.587 2.24187 -4.71739 0
M  V30 158 H 16.281 1.02844 -2.81182 0
M  V30 159 H 13.827 0.493286 -1.35287 0
M  V30 160 H 15.78 3.43663 -2.43872 0
M  V30 161 H 14.504 3.00799 -1.27231 0
M  V30 162 H 13.163 1.93377 -3.1145 0
M  V30 163 H 12.811 4.34206 -2.53917 0
M  V30 164 H 12.511 4.03804 -4.26868 0
M  V30 165 H 14.035 4.81561 -3.75408 0
M  V30 166 H 15.449 2.88654 -4.9533 0
M  V30 167 H 13.846 2.34044 -5.52579 0
M  V30 168 H 14.916 1.19327 -4.69988 0
M  V30 169 N 16.2591 1.48442 0.529413 0
M  V30 170 C 17.5051 1.5672 1.28711 0
M  V30 171 C 17.8381 0.2406 1.92704 0
M  V30 172 O 17.1131 -0.753454 1.79313 0
M  V30 173 C 17.3961 2.70587 2.37603 0
M  V30 174 C 17.2491 4.12953 1.78297 0
M  V30 175 C 18.5681 2.80212 3.39366 0
M  V30 176 H 15.6871 0.570474 0.466613 0
M  V30 177 H 18.3291 1.80617 0.589706 0
M  V30 178 H 16.4791 2.50342 2.97088 0
M  V30 179 H 18.1511 4.44639 1.22858 0
M  V30 180 H 16.3941 4.19927 1.0883 0
M  V30 181 H 17.0651 4.88448 2.57144 0
M  V30 182 H 19.5411 2.98553 2.89836 0
M  V30 183 H 18.4171 3.61611 4.12951 0
M  V30 184 H 18.6781 1.88393 3.99951 0
M  V30 185 N 17.7372 -0.778329 1.37039 0
M  V30 186 C 18.9852 -1.53361 1.31623 0
M  V30 187 C 19.3062 -1.94739 -0.100831 0
M  V30 188 O 18.5762 -1.65797 -1.04347 0
M  V30 189 H 17.1562 -0.568794 0.484234 0
M  V30 190 H 19.8182 -0.926742 1.71457 0
M  V30 191 H 18.9142 -2.43606 1.95096 0
M  V30 192 N 19.2153 -1.21501 -1.00376 0
M  V30 193 C 20.1453 -0.999478 -2.11028 0
M  V30 194 C 21.1263 0.0759671 -1.6993 0
M  V30 195 O 22.3113 -0.0841106 -1.94018 0
M  V30 196 C 19.4413 -0.564709 -3.42678 0
M  V30 197 C 18.3953 -1.58486 -3.97576 0
M  V30 198 C 17.7213 -1.00628 -5.25146 0
M  V30 199 C 19.0213 -2.97204 -4.29496 0
M  V30 200 H 20.7153 -1.92495 -2.29317 0
M  V30 201 H 18.2613 -0.92693 -1.102 0
M  V30 202 H 20.2143 -0.401091 -4.19487 0
M  V30 203 H 18.9383 0.396411 -3.24185 0
M  V30 204 H 17.5973 -1.73606 -3.22888 0
M  V30 205 H 17.2453 -0.0368439 -5.02987 0
M  V30 206 H 16.9453 -1.68771 -5.62841 0
M  V30 207 H 18.4693 -0.854015 -6.04598 0
M  V30 208 H 19.8833 -2.8552 -4.97143 0
M  V30 209 H 18.2803 -3.62372 -4.78338 0
M  V30 210 H 19.3503 -3.47956 -3.3772 0
M  V30 211 N 20.6934 1.19889 -1.02296 0
M  V30 212 C 21.6564 2.21116 -0.603351 0
M  V30 213 C 22.6564 1.5738 0.329884 0
M  V30 214 O 23.8464 1.73802 0.117702 0
M  V30 215 C 20.9784 3.40696 0.117992 0
M  V30 216 H 22.1714 2.59754 -1.49893 0
M  V30 217 H 19.7244 1.33463 -0.813468 0
M  V30 218 H 20.4594 3.07569 1.0282 0
M  V30 219 H 20.2444 3.88188 -0.552511 0
M  V30 220 H 21.7344 4.15692 0.398696 0
M  V30 221 N 22.1715 0.800033 1.35784 0
M  V30 222 C 23.4175 0.377901 1.99248 0
M  V30 223 C 23.7505 -1.05052 1.63333 0
M  V30 224 O 23.0255 -1.72768 0.893385 0
M  V30 225 C 23.3085 0.553922 3.55814 0
M  V30 226 C 23.1615 2.0268 4.01548 0
M  V30 227 C 24.4805 -0.0244802 4.40093 0
M  V30 228 H 21.5995 0.138782 0.723815 0
M  V30 229 H 24.2415 1.00835 1.61035 0
M  V30 230 H 22.3915 0.0172398 3.88496 0
M  V30 231 H 24.0635 2.62536 3.79305 0
M  V30 232 H 22.3065 2.5256 3.52698 0
M  V30 233 H 22.9775 2.10087 5.10458 0
M  V30 234 H 25.4535 0.433775 4.13833 0
M  V30 235 H 24.3295 0.128637 5.48749 0
M  V30 236 H 24.5905 -1.11758 4.27741 0
M  V30 237 N 23.6496 -1.47581 0.552962 0
M  V30 238 C 24.8896 -2.04379 0.0296245 0
M  V30 239 C 25.2536 -1.4185 -1.29393 0
M  V30 240 O 26.4546 -1.89669 -1.90471 0
M  V30 241 C 24.7256 -3.57339 -0.0661371 0
M  V30 242 S 26.2846 -4.35511 -0.536213 0
M  V30 243 H 23.1026 -0.710625 0.0230991 0
M  V30 244 H 25.7046 -1.81005 0.738734 0
M  V30 245 H 24.4086 -4.00374 0.901596 0
M  V30 246 H 23.9396 -3.85202 -0.798931 0
M  V30 247 H 25.9546 -4.6253 -1.79668 0
M  V30 248 N 25.1277 -0.289203 -1.54924 0
M  V30 249 C 26.0757 0.607966 -2.24514 0
M  V30 250 C 27.0697 1.14655 -1.24702 0
M  V30 251 O 28.2757 1.09856 -1.4259 0
M  V30 252 H 24.6507 0.21464 -0.720718 0
M  V30 253 H 26.6217 -0.00164182 -2.984 0
M  V30 254 C 25.3707 1.77406 -2.99036 0
M  V30 255 H 24.6937 1.36884 -3.75637 0
M  V30 256 H 26.1337 2.37814 -3.51028 0
M  V30 257 C 24.5927 2.67107 -2.05318 0
M  V30 258 O 25.1227 3.6787 -1.61353 0
M  V30 259 N 23.3287 2.34582 -1.71521 0
M  V30 260 H 22.8757 1.52688 -2.07471 0
M  V30 261 H 22.8337 2.94867 -1.0909 0
M  V30 262 N 26.6058 1.57591 -0.0167156 0
M  V30 263 C 27.8338 1.95575 0.675128 0
M  V30 264 C 28.2488 0.892542 1.6637 0
M  V30 265 O 27.6058 -0.126912 1.82058 0
M  V30 266 C 27.6568 3.33608 1.39239 0
M  V30 267 O 27.3778 4.3585 0.443444 0
M  V30 268 C 28.8788 3.86151 2.17721 0
M  V30 269 H 26.0988 0.644423 0.186978 0
M  V30 270 H 28.6428 2.0437 -0.0728 0
M  V30 271 H 26.7978 3.2607 2.09182 0
M  V30 272 H 27.2118 5.158 0.951358 0
M  V30 273 H 28.6858 4.85114 2.63379 0
M  V30 274 H 29.1628 3.19738 3.01105 0
M  V30 275 H 29.7688 3.96918 1.52761 0
M  V30 276 N 28.0839 -0.256276 1.55502 0
M  V30 277 C 29.4949 -0.826068 1.67431 0
M  V30 278 C 29.8459 -1.86396 0.612446 0
M  V30 279 O 28.9709 -2.15031 -0.243025 0
M  V30 280 C 29.5659 -1.50512 3.03532 0
M  V30 281 C 28.1249 -2.02273 3.17431 0
M  V30 282 C 27.2719 -0.870548 2.63281 0
M  V30 283 H 30.2229 -0.0322728 1.58667 0
M  V30 284 H 30.2439 -2.37279 2.97454 0
M  V30 285 H 29.7559 -0.749484 3.80794 0
M  V30 286 H 27.8569 -2.80746 2.44974 0
M  V30 287 H 27.9699 -2.22655 4.24219 0
M  V30 288 H 26.3339 -1.26851 2.20864 0
M  V30 289 H 27.1169 -0.128149 3.43061 0
M  V30 290 N 29.562 -1.4872 -0.521534 0
M  V30 291 C 30.512 -1.60269 -1.62166 0
M  V30 292 C 31.496 -0.45935 -1.54204 0
M  V30 293 O 32.688 -0.711241 -1.62081 0
M  V30 294 C 29.817 -1.65344 -3.00859 0
M  V30 295 C 28.903 -2.85187 -3.13894 0
M  V30 296 N 29.294 -4.09509 -2.96877 0
M  V30 297 C 27.592 -2.82695 -3.44963 0
M  V30 298 C 28.293 -4.89959 -3.13552 0
M  V30 299 N 27.269 -4.22934 -3.41508 0
M  V30 300 H 31.071 -2.5413 -1.47632 0
M  V30 301 H 28.585 -1.45209 -0.727194 0
M  V30 302 H 30.582 -1.71713 -3.79895 0
M  V30 303 H 29.242 -0.726058 -3.16478 0
M  V30 304 H 30.253 -4.39814 -2.73467 0
M  V30 305 H 26.93 -1.99249 -3.66887 0
M  V30 306 H 28.32 -5.98654 -3.05061 0
M  V30 307 N 31.0401 0.771051 -1.3745 0
M  V30 308 C 31.9501 1.91538 -1.35464 0
M  V30 309 C 32.9661 1.72134 -0.254123 0
M  V30 310 O 34.1421 1.95358 -0.489626 0
M  V30 311 C 31.2071 3.26671 -1.16134 0
M  V30 312 C 30.2681 3.58723 -2.35831 0
M  V30 313 C 29.5011 4.87409 -2.17413 0
M  V30 314 O 29.7241 5.58506 -1.15876 0
M  V30 315 O 28.6581 5.18539 -3.05615 0
M  V30 316 H 32.4841 1.96165 -2.31847 0
M  V30 317 H 30.0691 0.9139 -1.18187 0
M  V30 318 H 31.9511 4.07499 -1.07345 0
M  V30 319 H 30.6261 3.22894 -0.228251 0
M  V30 320 H 29.5331 2.78127 -2.50192 0
M  V30 321 H 30.8661 3.67243 -3.27709 0
M  V30 322 N 32.5182 1.22032 0.997298 0
M  V30 323 C 33.9342 0.979326 1.26021 0
M  V30 324 C 34.1342 -0.32972 1.98784 0
M  V30 325 O 33.1902 -1.05345 2.29475 0
M  V30 326 C 34.5032 2.17509 2.07631 0
M  V30 327 C 36.0512 2.21817 2.2083 0
M  V30 328 C 36.5262 3.40933 3.05825 0
M  V30 329 N 38.0172 3.41067 3.13412 0
M  V30 330 C 38.7522 4.29885 3.79455 0
M  V30 331 N 38.2482 5.28914 4.47462 0
M  V30 332 N 40.0412 4.17673 3.76173 0
M  V30 333 H 32.1922 2.06202 0.509352 0
M  V30 334 H 34.4552 0.90334 0.287541 0
M  V30 335 H 34.1612 3.12415 1.61524 0
M  V30 336 H 34.0352 2.17206 3.08385 0
M  V30 337 H 36.4222 1.27462 2.66153 0
M  V30 338 H 36.5032 2.2616 1.1952 0
M  V30 339 H 36.1472 4.35586 2.61203 0
M  V30 340 H 36.0772 3.33829 4.07266 0
M  V30 341 H 38.5682 2.69406 2.65007 0
M  V30 342 H 38.8812 5.92973 4.95583 0
M  V30 343 H 37.2262 5.32831 4.46224 0
M  V30 344 H 40.4172 3.39564 3.22202 0
M  V30 345 H 40.5902 4.87098 4.27363 0
M  V30 346 N 33.9963 -1.19345 1.0293 0
M  V30 347 C 34.9263 -2.2481 0.631105 0
M  V30 348 C 35.9073 -1.66245 -0.360104 0
M  V30 349 O 37.0923 -1.92677 -0.242726 0
M  V30 350 C 34.2223 -3.47295 -0.0184607 0
M  V30 351 C 33.1763 -4.18536 0.895073 0
M  V30 352 C 32.5023 -5.34586 0.110592 0
M  V30 353 C 33.8023 -4.73287 2.209 0
M  V30 354 H 35.4963 -2.58372 1.51275 0
M  V30 355 H 33.0423 -1.24194 0.728818 0
M  V30 356 H 34.9953 -4.20268 -0.308675 0
M  V30 357 H 33.7193 -3.12933 -0.934907 0
M  V30 358 H 32.3783 -3.47446 1.16949 0
M  V30 359 H 32.0263 -4.96469 -0.807902 0
M  V30 360 H 31.7263 -5.83183 0.719087 0
M  V30 361 H 33.2503 -6.10355 -0.172871 0
M  V30 362 H 34.6643 -5.38013 1.98028 0
M  V30 363 H 33.0613 -5.32373 2.76946 0
M  V30 364 H 34.1313 -3.91331 2.86336 0
M  V30 365 N 35.4744 -0.807222 -1.35358 0
M  V30 366 C 36.8904 -0.491038 -1.51858 0
M  V30 367 C 37.0904 0.987648 -1.75635 0
M  V30 368 O 36.1464 1.77265 -1.79815 0
M  V30 369 C 37.4594 -1.33695 -2.69344 0
M  V30 370 C 39.0074 -1.33246 -2.83222 0
M  V30 371 C 39.4824 -2.1625 -4.03733 0
M  V30 372 N 40.9734 -2.1379 -4.10911 0
M  V30 373 C 41.7084 -2.74772 -5.03277 0
M  V30 374 N 41.2044 -3.44684 -6.0097 0
M  V30 375 N 42.9974 -2.6441 -4.96028 0
M  V30 376 H 35.1484 -1.76485 -1.18181 0
M  V30 377 H 37.4114 -0.751199 -0.578276 0
M  V30 378 H 37.1174 -2.38634 -2.58354 0
M  V30 379 H 36.9914 -0.990618 -3.6396 0
M  V30 380 H 39.3784 -0.290911 -2.93663 0
M  V30 381 H 39.4594 -1.71866 -1.89461 0
M  V30 382 H 39.1034 -3.20445 -3.94052 0
M  V30 383 H 39.0334 -1.74989 -4.96675 0
M  V30 384 H 41.5244 -1.62923 -3.40976 0
M  V30 385 H 41.8374 -3.88501 -6.68047 0
M  V30 386 H 40.1824 -3.48788 -6.01142 0
M  V30 387 H 43.3734 -2.0938 -4.18662 0
M  V30 388 H 43.5464 -3.12225 -5.6782 0
M  V30 389 N 36.9525 1.47285 -0.560781 0
M  V30 390 C 38.2015 2.01668 -0.035895 0
M  V30 391 C 38.5145 1.44021 1.32353 0
M  V30 392 O 39.7205 1.90088 1.93853 0
M  V30 393 C 38.1765 3.59897 -0.0136659 0
M  V30 394 C 37.7845 4.26536 -1.37006 0
M  V30 395 C 39.5285 4.22017 0.458425 0
M  V30 396 C 37.4355 5.76782 -1.30675 0
M  V30 397 H 36.3655 0.753938 -0.00964879 0
M  V30 398 H 39.0165 1.69243 -0.709166 0
M  V30 399 H 37.3985 3.89301 0.725325 0
M  V30 400 H 38.5725 4.0877 -2.12705 0
M  V30 401 H 36.8875 3.76419 -1.78038 0
M  V30 402 H 39.4845 5.32124 0.524247 0
M  V30 403 H 39.8275 3.89437 1.4712 0
M  V30 404 H 40.3605 3.97159 -0.225818 0
M  V30 405 H 37.0995 6.13988 -2.29564 0
M  V30 406 H 36.6195 5.96875 -0.591622 0
M  V30 407 H 38.2985 6.39063 -1.01033 0
M  V30 408 N 38.4306 0.297415 1.54768 0
M  V30 409 C 39.3606 -0.573494 2.26348 0
M  V30 410 C 40.3416 -1.14085 1.26169 0
M  V30 411 O 41.5266 -1.17086 1.54934 0
M  V30 412 C 38.6566 -1.74716 3.00153 0
M  V30 413 C 37.6106 -1.31032 4.07449 0
M  V30 414 C 36.9366 -2.56887 4.68949 0
M  V30 415 C 38.2366 -0.444183 5.20408 0
M  V30 416 H 39.9306 0.0235131 2.99391 0
M  V30 417 H 37.4766 0.0127488 1.43994 0
M  V30 418 H 39.4296 -2.3625 3.48947 0
M  V30 419 H 38.1536 -2.37035 2.24682 0
M  V30 420 H 36.8126 -0.718066 3.59499 0
M  V30 421 H 36.4606 -3.17512 3.90122 0
M  V30 422 H 36.1606 -2.2836 5.41411 0
M  V30 423 H 37.6846 -3.19229 5.20505 0
M  V30 424 H 39.0986 -0.9651 5.65118 0
M  V30 425 H 37.4956 -0.252846 5.99567 0
M  V30 426 H 38.5656 0.531609 4.81977 0
M  V30 427 N 39.9087 -1.5758 0.0250728 0
M  V30 428 C 41.1387 -1.95646 -0.663783 0
M  V30 429 C 41.5467 -0.899935 -1.66427 0
M  V30 430 O 40.8897 0.127191 -1.83259 0
M  V30 431 C 40.9517 -3.29835 -1.43 0
M  V30 432 C 40.6157 -4.53197 -0.588305 0
M  V30 433 C 41.6127 -5.19726 0.13469 0
M  V30 434 C 39.2977 -4.99529 -0.526897 0
M  V30 435 C 41.2917 -6.30902 0.90781 0
M  V30 436 C 38.9787 -6.10589 0.24993 0
M  V30 437 C 39.9767 -6.76134 0.965994 0
M  V30 438 O 39.6647 -7.85062 1.7301 0
M  V30 439 H 39.3967 -0.649282 -0.188174 0
M  V30 440 H 41.9507 -2.05245 0.0799006 0
M  V30 441 H 40.1807 -3.16716 -2.21873 0
M  V30 442 H 41.8697 -3.52833 -2.00658 0
M  V30 443 H 42.6357 -4.84904 0.0965562 0
M  V30 444 H 38.5147 -4.48319 -1.07381 0
M  V30 445 H 42.0587 -6.81995 1.46724 0
M  V30 446 H 37.9557 -6.44849 0.289795 0
M  V30 447 H 38.7237 -8.01708 1.64944 0
M  V30 448 N 41.3868 0.248026 -1.55636 0
M  V30 449 C 42.6148 0.993808 -1.81469 0
M  V30 450 C 43.0298 1.78991 -0.60064 0
M  V30 451 O 42.3868 1.77345 0.430682 0
M  V30 452 C 42.4378 1.93258 -3.05506 0
M  V30 453 O 42.1588 1.16869 -4.22224 0
M  V30 454 C 43.6598 2.79444 -3.4413 0
M  V30 455 H 40.8798 0.292486 -0.603898 0
M  V30 456 H 43.4238 0.271253 -2.02693 0
M  V30 457 H 41.5788 2.60943 -2.86335 0
M  V30 458 H 41.9928 1.80359 -4.92515 0
M  V30 459 H 43.4668 3.41066 -4.34026 0
M  V30 460 H 43.9438 3.50499 -2.64665 0
M  V30 461 H 44.5498 2.17214 -3.65648 0
M  V30 462 N 42.8649 1.48995 0.513639 0
M  V30 463 C 43.8119 1.6473 1.61656 0
M  V30 464 C 44.7819 0.488984 1.58739 0
M  V30 465 O 45.9669 0.714478 1.76918 0
M  V30 466 C 43.1069 1.7082 2.99858 0
M  V30 467 C 42.2199 2.9787 3.12885 0
M  V30 468 C 41.3549 2.95017 4.41744 0
M  V30 469 C 40.3939 4.16702 4.48359 0
M  V30 470 N 39.5309 4.11832 5.68629 0
M  V30 471 H 44.3709 2.58909 1.47547 0
M  V30 472 H 41.9079 1.28382 0.71808 0
M  V30 473 H 43.8659 1.72331 3.79944 0
M  V30 474 H 42.4959 0.801181 3.12699 0
M  V30 475 H 41.5479 3.06029 2.25944 0
M  V30 476 H 42.8599 3.8786 3.13633 0
M  V30 477 H 42.0139 2.95021 5.30139 0
M  V30 478 H 40.7529 2.02784 4.43542 0
M  V30 479 H 39.7579 4.16955 3.58369 0
M  V30 480 H 40.9829 5.10113 4.48287 0
M  V30 481 H 38.9289 3.22428 5.71293 0
M  V30 482 H 38.8459 4.95543 5.7094 0
M  V30 483 H 40.1139 4.1592 6.59266 0
M  V30 484 N 44.343 -0.763751 1.37857 0
M  V30 485 C 45.592 -1.51789 1.32827 0
M  V30 486 C 45.905 -1.95426 -0.0823719 0
M  V30 487 O 47.111 -2.70298 -0.255172 0
M  V30 488 C 45.567 -2.74133 2.33193 0
M  V30 489 C 45.175 -2.37562 3.79827 0
M  V30 490 C 46.919 -3.52054 2.37188 0
M  V30 491 C 44.826 -3.56456 4.71904 0
M  V30 492 H 43.756 -0.569896 0.493695 0
M  V30 493 H 46.407 -0.835822 1.63359 0
M  V30 494 H 44.789 -3.4427 1.9569 0
M  V30 495 H 45.963 -1.75157 4.26212 0
M  V30 496 H 44.278 -1.72798 3.78853 0
M  V30 497 H 46.875 -4.40437 3.03182 0
M  V30 498 H 47.218 -3.92486 1.38782 0
M  V30 499 H 47.751 -2.88921 2.7344 0
M  V30 500 H 44.49 -3.21099 5.71468 0
M  V30 501 H 44.01 -4.17938 4.30218 0
M  V30 502 H 45.689 -4.23168 4.89426 0
M  V30 503 N 45.8211 -1.22559 -0.990812 0
M  V30 504 C 46.7511 -1.0218 -2.09956 0
M  V30 505 C 47.7321 0.0579394 -1.70001 0
M  V30 506 O 48.9171 -0.104684 -1.93918 0
M  V30 507 C 46.0471 -0.601023 -3.4206 0
M  V30 508 C 45.0011 -1.62694 -3.95872 0
M  V30 509 C 44.3271 -1.06193 -5.24049 0
M  V30 510 C 45.6271 -3.01743 -4.2632 0
M  V30 511 H 47.3211 -1.94916 -2.27262 0
M  V30 512 H 44.8671 -0.938566 -1.09211 0
M  V30 513 H 46.8201 -0.445561 -4.19038 0
M  V30 514 H 45.5441 0.362005 -3.24588 0
M  V30 515 H 44.2031 -1.77021 -3.21028 0
M  V30 516 H 43.8511 -0.0901903 -5.02919 0
M  V30 517 H 43.5511 -1.74732 -5.61019 0
M  V30 518 H 45.0751 -0.918092 -6.03658 0
M  V30 519 H 46.4891 -2.90777 -4.94087 0
M  V30 520 H 44.8861 -3.67425 -4.74467 0
M  V30 521 H 45.9561 -3.51518 -3.34011 0
M  V30 522 N 47.2992 1.18797 -1.03562 0
M  V30 523 C 48.5762 1.84469 -0.650434 0
M  V30 524 C 48.9562 1.92319 0.870433 0
M  V30 525 O 48.3042 1.44528 1.76986 0
M  V30 526 C 48.5142 3.2306 -1.32036 0
M  V30 527 C 49.8622 3.9915 -1.44792 0
M  V30 528 O 50.8862 3.32481 -1.27806 0
M  V30 529 O 49.7452 5.18587 -1.72423 0
M  V30 530 H 46.8392 0.795251 -0.226946 0
M  V30 531 H 49.3852 1.26231 -1.13419 0
M  V30 532 H 48.1572 3.1222 -2.3587 0
M  V30 533 H 47.7802 3.88949 -0.8249 0
M  V30 534 N 48.7773 0.814389 1.34928 0
M  V30 535 C 50.0233 0.399013 1.98836 0
M  V30 536 C 50.3563 -1.03314 1.64438 0
M  V30 537 O 49.6313 -1.71811 0.911659 0
M  V30 538 C 49.9143 0.591629 3.55207 0
M  V30 539 C 49.7673 2.06928 3.99376 0
M  V30 540 C 51.0863 0.022199 4.40094 0
M  V30 541 H 48.2053 0.146451 0.722303 0
M  V30 542 H 50.8473 1.02537 1.59957 0
M  V30 543 H 48.9973 0.0584441 3.88456 0
M  V30 544 H 50.6693 2.66544 3.76499 0
M  V30 545 H 48.9123 2.56287 3.49999 0
M  V30 546 H 49.5833 2.1549 5.08201 0
M  V30 547 H 52.0593 0.477643 4.13349 0
M  V30 548 H 50.9353 0.186832 5.48582 0
M  V30 549 H 51.1963 -1.07215 4.28902 0
M  V30 550 N 50.2554 -1.46986 0.568584 0
M  V30 551 C 51.1854 -2.32946 -0.160753 0
M  V30 552 C 52.1664 -1.44487 -0.897631 0
M  V30 553 O 53.3514 -1.73327 -0.875867 0
M  V30 554 C 50.4814 -3.26494 -1.18403 0
M  V30 555 C 49.4354 -4.24282 -0.562895 0
M  V30 556 C 48.7614 -5.07236 -1.69163 0
M  V30 557 C 50.0614 -5.19989 0.490761 0
M  V30 558 H 51.7554 -2.94175 0.556916 0
M  V30 559 H 49.3014 -1.4146 0.26927 0
M  V30 560 H 51.2544 -3.85477 -1.70251 0
M  V30 561 H 49.9784 -2.63343 -1.93179 0
M  V30 562 H 48.6374 -3.66541 -0.0656164 0
M  V30 563 H 48.2854 -4.4048 -2.42871 0
M  V30 564 H 47.9854 -5.7345 -1.28174 0
M  V30 565 H 49.5094 -5.6908 -2.21314 0
M  V30 566 H 50.9234 -5.73271 0.0579047 0
M  V30 567 H 49.3204 -5.94469 0.820165 0
M  V30 568 H 50.3904 -4.64777 1.3824 0
M  V30 569 N 51.7335 -0.305618 -1.54608 0
M  V30 570 C 52.6435 0.57778 -2.27374 0
M  V30 571 C 53.6595 1.14451 -1.31061 0
M  V30 572 O 54.8355 1.16831 -1.6405 0
M  V30 573 C 51.9005 1.73123 -3.00382 0
M  V30 574 C 50.9615 1.19812 -4.12242 0
M  V30 575 C 50.1945 2.2966 -4.81759 0
M  V30 576 O 50.4175 3.49651 -4.50666 0
M  V30 577 O 49.3515 1.96091 -5.69062 0
M  V30 578 H 53.1775 -0.012624 -3.03697 0
M  V30 579 H 50.7625 -0.0719184 -1.49227 0
M  V30 580 H 52.6445 2.40315 -3.4616 0
M  V30 581 H 51.3195 2.30815 -2.26949 0
M  V30 582 H 50.2265 0.491798 -3.70853 0
M  V30 583 H 51.5595 0.666566 -4.87666 0
M  V30 584 N 53.2116 1.57565 -0.0334293 0
M  V30 585 C 54.1216 2.13943 0.962572 0
M  V30 586 C 55.1376 1.09276 1.35406 0
M  V30 587 O 56.3136 1.41355 1.4346 0
M  V30 588 C 53.3786 2.65887 2.22497 0
M  V30 589 C 52.4396 3.85286 1.8935 0
M  V30 590 C 51.6726 4.34743 3.09571 0
M  V30 591 O 51.8956 3.83352 4.22371 0
M  V30 592 O 50.8296 5.26538 2.91618 0
M  V30 593 H 54.6556 2.99333 0.513169 0
M  V30 594 H 52.2406 1.4822 0.18743 0
M  V30 595 H 54.1226 2.99346 2.96598 0
M  V30 596 H 52.7976 1.83578 2.6661 0
M  V30 597 H 51.7046 3.56746 1.1262 0
M  V30 598 H 53.0376 4.68771 1.5005 0
M  V30 599 N 54.6897 -0.239769 1.55765 0
M  V30 600 C 55.9387 -0.964754 1.77131 0
M  V30 601 C 56.2517 -1.86213 0.59868 0
M  V30 602 O 57.4577 -2.6244 0.695522 0
M  V30 603 C 55.9137 -1.76552 3.1362 0
M  V30 604 C 55.5217 -0.915185 4.38553 0
M  V30 605 C 57.2657 -2.48281 3.44321 0
M  V30 606 C 55.1727 -1.71225 5.66071 0
M  V30 607 H 54.1027 -0.363953 0.660344 0
M  V30 608 H 56.7537 -0.219181 1.82186 0
M  V30 609 H 55.1357 -2.55331 3.02691 0
M  V30 610 H 56.3097 -0.169217 4.60489 0
M  V30 611 H 54.6247 -0.310889 4.15238 0
M  V30 612 H 57.2217 -3.08382 4.36812 0
M  V30 613 H 57.5647 -3.20256 2.65973 0
M  V30 614 H 58.0977 -1.76507 3.56497 0
M  V30 615 H 54.8367 -1.03612 6.4726 0
M  V30 616 H 54.3567 -2.43331 5.48224 0
M  V30 617 H 56.0357 -2.27758 6.05587 0
M  V30 618 N 56.1678 -1.49265 -0.50573 0
M  V30 619 C 57.5788 -1.51769 -1.08734 0
M  V30 620 C 57.9298 -0.301192 -1.93874 0
M  V30 621 O 57.0548 0.589456 -2.08217 0
M  V30 622 C 57.6498 -2.75017 -1.97867 0
M  V30 623 C 56.2088 -2.80314 -2.51199 0
M  V30 624 C 55.3558 -2.4562 -1.28709 0
M  V30 625 H 58.3068 -1.56031 -0.289855 0
M  V30 626 H 58.3278 -2.5491 -2.82491 0
M  V30 627 H 57.8398 -3.63539 -1.35873 0
M  V30 628 H 55.9408 -1.96061 -3.16845 0
M  V30 629 H 56.0538 -3.82366 -2.88675 0
M  V30 630 H 54.4178 -1.97297 -1.61078 0
M  V30 631 H 55.2008 -3.36411 -0.6843 0
M  V30 632 N 57.6459 0.756429 -1.3826 0
M  V30 633 C 58.5929 1.87011 -1.35261 0
M  V30 634 C 59.5629 1.64695 -0.215616 0
M  V30 635 O 60.7479 1.864 -0.407399 0
M  V30 636 C 57.8879 3.24275 -1.18068 0
M  V30 637 C 57.0009 3.58442 -2.41129 0
M  V30 638 C 56.1359 4.84994 -2.16689 0
M  V30 639 C 55.1749 5.11939 -3.35537 0
M  V30 640 N 54.3119 6.29685 -3.10549 0
M  V30 641 H 59.1519 1.8891 -2.30472 0
M  V30 642 H 56.6889 0.923373 -1.14509 0
M  V30 643 H 58.6469 4.03479 -1.06116 0
M  V30 644 H 57.2769 3.21711 -0.264973 0
M  V30 645 H 56.3289 2.74103 -2.63764 0
M  V30 646 H 57.6409 3.74283 -3.29717 0
M  V30 647 H 56.7949 5.72135 -2.01857 0
M  V30 648 H 55.5339 4.71286 -1.25462 0
M  V30 649 H 54.5389 4.23268 -3.50891 0
M  V30 650 H 55.7639 5.27546 -4.27635 0
M  V30 651 H 53.7099 6.17306 -2.21967 0
M  V30 652 H 53.6269 6.46014 -3.92686 0
M  V30 653 H 54.8949 7.19722 -2.99367 0
M  V30 654 N 59.124 1.23083 0.984299 0
M  V30 655 C 60.072 1.00593 2.09723 0
M  V30 656 C 61.066 -0.0538014 1.69315 0
M  V30 657 O 62.272 0.0993719 1.79725 0
M  V30 658 H 58.647 0.30817 0.685956 0
M  V30 659 H 60.618 1.95012 2.2586 0
M  V30 660 C 59.367 0.609601 3.42314 0
M  V30 661 H 58.69 1.41675 3.73856 0
M  V30 662 H 60.13 0.491726 4.21139 0
M  V30 663 C 58.589 -0.681745 3.2993 0
M  V30 664 O 59.119 -1.73192 3.62446 0
M  V30 665 N 57.325 -0.656178 2.83095 0
M  V30 666 H 56.872 0.198759 2.56832 0
M  V30 667 H 56.83 -1.52044 2.75191 0
M  V30 668 N 60.6021 -1.18246 1.0419 0
M  V30 669 C 61.5651 -2.20128 0.638452 0
M  V30 670 C 62.5651 -1.57885 -0.304805 0
M  V30 671 O 63.7551 -1.73967 -0.0900369 0
M  V30 672 C 60.8871 -3.4084 -0.0637751 0
M  V30 673 H 62.0801 -2.57336 1.54007 0
M  V30 674 H 59.6331 -1.32152 0.834598 0
M  V30 675 H 60.3681 -3.09166 -0.979136 0
M  V30 676 H 60.1531 -3.8726 0.614198 0
M  V30 677 H 61.6431 -4.16274 -0.332512 0
M  V30 678 N 62.0802 -0.821533 -1.34494 0
M  V30 679 C 63.0432 -0.247847 -2.27856 0
M  V30 680 C 64.0432 0.573453 -1.50227 0
M  V30 681 O 65.2332 0.389759 -1.69784 0
M  V30 682 C 62.3652 0.652698 -3.34593 0
M  V30 683 H 63.5582 -1.07146 -2.80107 0
M  V30 684 H 61.1112 -0.593291 -1.44602 0
M  V30 685 H 61.8462 1.49943 -2.87555 0
M  V30 686 H 61.6312 0.065292 -3.92046 0
M  V30 687 H 63.1212 1.04793 -4.04238 0
M  V30 688 N 63.5583 1.46682 -0.576371 0
M  V30 689 C 64.7883 2.06498 -0.0648694 0
M  V30 690 C 65.1963 1.42665 1.24271 0
M  V30 691 O 64.5393 0.523886 1.76071 0
M  V30 692 C 64.6013 3.5904 0.181816 0
M  V30 693 C 64.2653 4.45028 -1.0392 0
M  V30 694 C 65.2623 4.81959 -1.94966 0
M  V30 695 C 62.9473 4.86259 -1.25927 0
M  V30 696 C 64.9413 5.58942 -3.06371 0
M  V30 697 C 62.6283 5.63002 -2.37638 0
M  V30 698 C 63.6263 5.99257 -3.2769 0
M  V30 699 O 63.3143 6.7445 -4.37461 0
M  V30 700 H 63.0463 0.674028 -0.0515987 0
M  V30 701 H 65.6003 1.89393 -0.794951 0
M  V30 702 H 63.8303 3.74429 0.966436 0
M  V30 703 H 65.5193 4.00806 0.641047 0
M  V30 704 H 66.2853 4.50689 -1.79177 0
M  V30 705 H 62.1643 4.57494 -0.567448 0
M  V30 706 H 65.7083 5.87158 -3.76684 0
M  V30 707 H 61.6053 5.93686 -2.53392 0
M  V30 708 H 62.3733 6.92867 -4.35749 0
M  V30 709 N 65.0364 0.313813 1.54444 0
M  V30 710 C 66.4524 -0.0391619 1.59552 0
M  V30 711 C 66.6524 -1.51322 1.33056 0
M  V30 712 O 65.7084 -2.26782 1.11022 0
M  V30 713 C 67.0214 0.370302 2.98411 0
M  V30 714 C 68.5694 0.320139 3.11358 0
M  V30 715 C 69.0444 0.704617 4.52547 0
M  V30 716 N 70.5354 0.657645 4.58508 0
M  V30 717 C 71.2704 0.927453 5.6585 0
M  V30 718 N 70.7664 1.26389 6.81174 0
M  V30 719 N 72.5594 0.853662 5.5558 0
M  V30 720 H 64.7104 1.27433 1.69925 0
M  V30 721 H 66.9734 0.517511 0.794284 0
M  V30 722 H 66.6794 1.39694 3.22767 0
M  V30 723 H 66.5534 -0.269619 3.76235 0
M  V30 724 H 68.9404 -0.697275 2.86744 0
M  V30 725 H 69.0214 0.99486 2.35661 0
M  V30 726 H 68.6654 1.7199 4.77893 0
M  V30 727 H 68.5954 0.00768843 5.26599 0
M  V30 728 H 71.0864 0.409067 3.75679 0
M  V30 729 H 71.3994 1.4554 7.58972 0
M  V30 730 H 69.7444 1.30206 6.82694 0
M  V30 731 H 72.9354 0.590383 4.64362 0
M  V30 732 H 73.1084 1.0673 6.3915 0
M  V30 733 N 66.5145 -1.57545 0.0417849 0
M  V30 734 C 67.4615 -2.10977 -0.935805 0
M  V30 735 C 68.4315 -1.01486 -1.31491 0
M  V30 736 O 69.6165 -1.2898 -1.40602 0
M  V30 737 C 66.7565 -2.65169 -2.2086 0
M  V30 738 C 65.8695 -3.88714 -1.88482 0
M  V30 739 C 65.0045 -4.31254 -3.1015 0
M  V30 740 C 64.0435 -5.47524 -2.7365 0
M  V30 741 N 63.1805 -5.85162 -3.87982 0
M  V30 742 H 68.0205 -2.94218 -0.473249 0
M  V30 743 H 65.5575 -1.45415 -0.221981 0
M  V30 744 H 67.5155 -2.94685 -2.95325 0
M  V30 745 H 66.1455 -1.8474 -2.64709 0
M  V30 746 H 65.1975 -3.65849 -1.04205 0
M  V30 747 H 66.5095 -4.73245 -1.57608 0
M  V30 748 H 65.6635 -4.62273 -3.92923 0
M  V30 749 H 64.4025 -3.45516 -3.44195 0
M  V30 750 H 63.4075 -5.16187 -1.89291 0
M  V30 751 H 64.6325 -6.34971 -2.40807 0
M  V30 752 H 62.5785 -5.02377 -4.21846 0
M  V30 753 H 62.4955 -6.64362 -3.60775 0
M  V30 754 H 63.7635 -6.20791 -4.71422 0
M  V30 755 N 67.9926 0.231505 -1.5589 0
M  V30 756 C 69.2226 0.973092 -1.82248 0
M  V30 757 C 69.6306 1.78845 -0.617328 0
M  V30 758 O 68.9736 1.78752 0.423499 0
M  V30 759 C 69.0356 1.94732 -3.02192 0
M  V30 760 C 68.6996 1.31743 -4.37599 0
M  V30 761 C 69.6966 0.712238 -5.14998 0
M  V30 762 C 67.3816 1.33218 -4.84312 0
M  V30 763 C 69.3756 0.130195 -6.37267 0
M  V30 764 C 67.0626 0.746286 -6.06526 0
M  V30 765 C 68.0606 0.146337 -6.82843 0
M  V30 766 O 67.7486 -0.430465 -8.02747 0
M  V30 767 H 67.4806 0.29125 -0.61004 0
M  V30 768 H 70.0346 0.254915 -2.03812 0
M  V30 769 H 68.2646 2.70422 -2.76422 0
M  V30 770 H 69.9536 2.55362 -3.15508 0
M  V30 771 H 70.7196 0.69324 -4.8002 0
M  V30 772 H 66.5986 1.78854 -4.24891 0
M  V30 773 H 70.1426 -0.33871 -6.96777 0
M  V30 774 H 66.0396 0.762663 -6.40979 0
M  V30 775 H 66.8076 -0.323818 -8.17859 0
M  V30 776 N 69.4707 1.49531 0.497807 0
M  V30 777 C 70.6987 1.62893 1.27567 0
M  V30 778 C 71.1137 0.301585 1.86376 0
M  V30 779 O 70.4707 -0.713335 1.67982 0
M  V30 780 C 70.5217 2.70013 2.40364 0
M  V30 781 O 70.2427 3.976 1.83972 0
M  V30 782 C 71.7437 2.94109 3.31685 0
M  V30 783 H 68.9637 0.548298 0.386794 0
M  V30 784 H 71.5077 1.95584 0.597245 0
M  V30 785 H 69.6627 2.40092 3.04031 0
M  V30 786 H 70.0767 4.56631 2.58047 0
M  V30 787 H 71.5507 3.72788 4.07104 0
M  V30 788 H 72.0277 2.04147 3.88871 0
M  V30 789 H 72.6337 3.2546 2.73781 0
M  V30 790 N 70.9488 -0.749086 1.3866 0
M  V30 791 C 71.8588 -1.89358 1.38494 0
M  V30 792 C 72.8748 -1.71708 0.281476 0
M  V30 793 O 74.0508 -1.94554 0.520643 0
M  V30 794 C 71.1158 -3.24782 1.21316 0
M  V30 795 C 70.1768 -3.54926 2.41508 0
M  V30 796 C 69.4098 -4.83888 2.2514 0
M  V30 797 O 69.6328 -5.56592 1.24746 0
M  V30 798 O 68.5668 -5.13612 3.13826 0
M  V30 799 H 72.3928 -1.92452 2.34938 0
M  V30 800 H 69.9778 -0.894981 1.19626 0
M  V30 801 H 71.8598 -4.05739 1.13814 0
M  V30 802 H 70.5348 -3.2249 0.279592 0
M  V30 803 H 69.4418 -2.74112 2.54585 0
M  V30 804 H 70.7748 -3.61983 3.3351 0
M  V30 805 N 72.4269 -1.23603 -0.977757 0
M  V30 806 C 73.3589 -0.977369 -2.07317 0
M  V30 807 C 74.3719 0.0495845 -1.62724 0
M  V30 808 O 75.5609 -0.186261 -1.77526 0
M  V30 809 C 72.6609 -0.451216 -3.35883 0
M  V30 810 C 71.8339 -1.53896 -4.09432 0
M  V30 811 C 70.8929 -1.01721 -5.16274 0
M  V30 812 O 69.9189 -1.70676 -5.43009 0
M  V30 813 N 71.1209 0.153594 -5.80297 0
M  V30 814 H 73.8859 -1.92047 -2.30082 0
M  V30 815 H 71.4469 -1.14497 -1.14465 0
M  V30 816 H 73.4389 -0.0871574 -4.04606 0
M  V30 817 H 72.0089 0.397368 -3.10064 0
M  V30 818 H 71.2289 -2.07566 -3.35127 0
M  V30 819 H 72.5169 -2.27037 -4.55337 0
M  V30 820 H 71.9149 0.730323 -5.60966 0
M  V30 821 H 70.4719 0.458892 -6.50183 0
M  V30 822 N 73.905 1.17692 -1.04816 0
M  V30 823 C 75.154 1.87192 -0.751132 0
M  V30 824 C 75.467 1.8169 0.724441 0
M  V30 825 O 76.673 2.46625 1.13527 0
M  V30 826 C 75.129 3.35857 -1.29338 0
M  V30 827 C 74.737 3.4987 -2.79812 0
M  V30 828 C 76.481 4.10709 -1.07322 0
M  V30 829 C 74.388 4.92536 -3.27356 0
M  V30 830 H 73.318 0.701162 -0.277288 0
M  V30 831 H 75.969 1.32932 -1.26496 0
M  V30 832 H 74.351 3.89631 -0.707376 0
M  V30 833 H 75.525 3.06332 -3.44235 0
M  V30 834 H 73.84 2.88433 -3.00325 0
M  V30 835 H 76.437 5.15952 -1.4035 0
M  V30 836 H 76.78 4.16299 -0.0108001 0
M  V30 837 H 77.313 3.6313 -1.62423 0
M  V30 838 H 74.052 4.92119 -4.33012 0
M  V30 839 H 73.572 5.3676 -2.67673 0
M  V30 840 H 75.251 5.61288 -3.21815 0
M  V30 841 N 75.3831 0.828654 1.34056 0
M  V30 842 C 76.6111 0.43262 2.02326 0
M  V30 843 C 77.0261 -0.963147 1.62385 0
M  V30 844 O 76.3831 -1.62425 0.832121 0
M  V30 845 C 76.4341 0.53182 3.57567 0
M  V30 846 O 76.1551 1.87258 3.96063 0
M  V30 847 C 77.6561 0.131422 4.43105 0
M  V30 848 H 74.8761 0.172923 0.648335 0
M  V30 849 H 77.4201 1.1184 1.71208 0
M  V30 850 H 75.5751 -0.105938 3.87255 0
M  V30 851 H 75.9891 1.85087 4.90758 0
M  V30 852 H 77.4631 0.251904 5.51425 0
M  V30 853 H 77.9401 -0.925645 4.29335 0
M  V30 854 H 78.5461 0.743207 4.18756 0
M  V30 855 N 76.8612 -1.46375 0.584142 0
M  V30 856 C 77.8092 -2.32042 -0.161047 0
M  V30 857 C 78.8032 -1.44569 -0.882966 0
M  V30 858 O 80.0092 -1.61186 -0.801191 0
M  V30 859 H 76.3842 -0.748659 -0.0708033 0
M  V30 860 H 78.3552 -2.92704 0.580269 0
M  V30 861 C 77.1042 -3.27762 -1.1605 0
M  V30 862 H 76.4272 -3.95051 -0.614419 0
M  V30 863 H 77.8672 -3.90481 -1.65228 0
M  V30 864 C 76.3262 -2.53218 -2.22221 0
M  V30 865 O 76.8562 -2.29628 -3.29597 0
M  V30 866 N 75.0622 -2.13756 -1.96868 0
M  V30 867 H 74.6092 -2.33142 -1.09557 0
M  V30 868 H 74.5672 -1.642 -2.68115 0
M  V30 869 N 78.3393 -0.321999 -1.54275 0
M  V30 870 C 79.2493 0.553631 -2.27974 0
M  V30 871 C 80.2653 1.13054 -1.32268 0
M  V30 872 O 81.4413 1.15084 -1.6528 0
M  V30 873 C 78.5063 1.69927 -3.02201 0
M  V30 874 C 77.5673 1.15433 -4.1349 0
M  V30 875 C 76.8003 2.24537 -4.84168 0
M  V30 876 O 77.0233 3.44852 -4.5435 0
M  V30 877 O 75.9573 1.90044 -5.7111 0
M  V30 878 H 79.7833 -0.0448345 -3.03667 0
M  V30 879 H 77.3683 -0.0877418 -1.49142 0
M  V30 880 H 79.2503 2.3663 -3.48689 0
M  V30 881 H 77.9253 2.28395 -2.29385 0
M  V30 882 H 76.8323 0.452436 -3.71354 0
M  V30 883 H 78.1653 0.614805 -4.88345 0
M  V30 884 N 79.8174 1.5752 -0.0501392 0
M  V30 885 C 80.7644 2.1147 0.924603 0
M  V30 886 C 81.7344 1.02182 1.30951 0
M  V30 887 O 82.9194 1.29723 1.39916 0
M  V30 888 C 80.0594 2.66337 2.19451 0
M  V30 889 C 79.1724 3.89708 1.86418 0
M  V30 890 C 78.3074 4.32893 3.07859 0
M  V30 891 C 77.3464 5.48967 2.70742 0
M  V30 892 N 76.4834 5.87211 3.84874 0
M  V30 893 H 81.3234 2.94465 0.457639 0
M  V30 894 H 78.8604 1.45531 0.214266 0
M  V30 895 H 80.8184 2.96247 2.93758 0
M  V30 896 H 79.4484 1.86141 2.63726 0
M  V30 897 H 78.5004 3.66396 1.02264 0
M  V30 898 H 79.8124 4.74074 1.55096 0
M  V30 899 H 78.9664 4.6435 3.90466 0
M  V30 900 H 77.7054 3.47336 3.42358 0
M  V30 901 H 76.7104 5.17183 1.86551 0
M  V30 902 H 77.9354 6.3624 2.37436 0
M  V30 903 H 75.8814 5.04607 4.19175 0
M  V30 904 H 75.7984 6.66266 3.57247 0
M  V30 905 H 77.0664 6.23282 4.68123 0
M  V30 906 N 81.2955 -0.223234 1.56011 0
M  V30 907 C 82.2255 -1.27988 1.95298 0
M  V30 908 C 83.2065 -1.48976 0.820979 0
M  V30 909 O 84.3915 -1.61188 1.08315 0
M  V30 910 C 81.5215 -2.63 2.26822 0
M  V30 911 C 80.4755 -2.56671 3.42497 0
M  V30 912 C 79.8015 -3.95697 3.59622 0
M  V30 913 C 81.1015 -2.11601 4.77517 0
M  V30 914 H 82.7955 -0.953525 2.8381 0
M  V30 915 H 80.3415 -0.457244 1.36548 0
M  V30 916 H 82.2945 -3.37077 2.52898 0
M  V30 917 H 81.0185 -2.9732 1.35161 0
M  V30 918 H 79.6775 -1.85051 3.16467 0
M  V30 919 H 79.3255 -4.27322 2.6534 0
M  V30 920 H 79.0255 -3.92345 4.37424 0
M  V30 921 H 80.5495 -4.71438 3.88044 0
M  V30 922 H 81.9635 -2.7542 5.02809 0
M  V30 923 H 80.3605 -2.19311 5.5859 0
M  V30 924 H 81.4305 -1.06824 4.72987 0
M  V30 925 N 82.7736 -1.49793 -0.48987 0
M  V30 926 C 83.7366 -1.66752 -1.57246 0
M  V30 927 C 84.7366 -0.538867 -1.51502 0
M  V30 928 O 85.9266 -0.805545 -1.54456 0
M  V30 929 C 83.0586 -1.67528 -2.96896 0
M  V30 930 H 84.2516 -2.63321 -1.43534 0
M  V30 931 H 81.8046 -1.38992 -0.714914 0
M  V30 932 H 82.5396 -0.725837 -3.16073 0
M  V30 933 H 82.3246 -2.49504 -3.02473 0
M  V30 934 H 83.8146 -1.82667 -3.7553 0
M  V30 935 N 84.2517 0.741722 -1.39055 0
M  V30 936 C 85.1847 1.86416 -1.31622 0
M  V30 937 C 86.1627 1.61473 -0.191076 0
M  V30 938 O 87.3467 1.84825 -0.370399 0
M  V30 939 C 84.4737 3.22266 -1.04221 0
M  V30 940 C 83.5197 3.66079 -2.18834 0
M  V30 941 S 84.3527 3.7623 -3.81066 0
M  V30 942 C 85.5087 5.14881 -3.55877 0
M  V30 943 H 85.7417 1.92437 -2.26617 0
M  V30 944 H 83.2747 0.905907 -1.25031 0
M  V30 945 H 85.2327 4.00714 -0.890964 0
M  V30 946 H 83.8937 3.1391 -0.109237 0
M  V30 947 H 83.0867 4.64648 -1.95238 0
M  V30 948 H 82.6887 2.94817 -2.30128 0
M  V30 949 H 84.9807 6.01006 -3.12726 0
M  V30 950 H 85.9237 5.43503 -4.53884 0
M  V30 951 H 86.3317 4.84239 -2.90126 0
M  V30 952 N 85.7298 1.2412 0.971189 0
M  V30 953 C 86.9758 1.08041 1.71625 0
M  V30 954 C 87.3088 -0.380407 1.90438 0
M  V30 955 O 86.5838 -1.28127 1.46334 0
M  V30 956 C 86.8668 1.81682 3.10908 0
M  V30 957 C 86.7198 3.35493 2.99608 0
M  V30 958 C 88.0388 1.58671 4.10501 0
M  V30 959 H 85.1578 0.39388 0.622919 0
M  V30 960 H 87.7998 1.52743 1.13003 0
M  V30 961 H 85.9498 1.43684 3.60953 0
M  V30 962 H 87.6218 3.83068 2.57015 0
M  V30 963 H 85.8648 3.64052 2.35899 0
M  V30 964 H 86.5358 3.82217 3.98264 0
M  V30 965 H 89.0118 1.91719 3.69301 0
M  V30 966 H 87.8878 2.1266 5.06031 0
M  V30 967 H 88.1488 0.524161 4.38982 0
M  V30 968 N 87.2079 -1.17134 1.05439 0
M  V30 969 C 88.1549 -2.21235 0.657539 0
M  V30 970 C 89.1249 -1.62551 -0.341543 0
M  V30 971 O 90.3099 -1.89379 -0.232393 0
M  V30 972 C 87.4499 -3.45076 0.0410575 0
M  V30 973 C 86.5629 -4.18042 1.08927 0
M  V30 974 C 85.6979 -5.29376 0.439848 0
M  V30 975 C 84.7369 -5.94132 1.4722 0
M  V30 976 N 83.8739 -6.96975 0.846756 0
M  V30 977 H 88.7139 -2.54534 1.54972 0
M  V30 978 H 86.2509 -1.25028 0.775006 0
M  V30 979 H 88.2089 -4.15862 -0.33383 0
M  V30 980 H 86.8389 -3.12353 -0.814568 0
M  V30 981 H 85.8909 -3.45945 1.58196 0
M  V30 982 H 87.2029 -4.62306 1.87282 0
M  V30 983 H 86.3569 -6.06699 0.0115125 0
M  V30 984 H 85.0959 -4.86251 -0.375656 0
M  V30 985 H 84.1009 -5.15538 1.91052 0
M  V30 986 H 85.3259 -6.39337 2.28965 0
M  V30 987 H 83.2719 -6.5598 0.0518075 0
M  V30 988 H 83.1889 -7.39565 1.5678 0
M  V30 989 H 84.4569 -7.78239 0.443277 0
M  V30 990 N 88.686 -0.835752 -1.33615 0
M  V30 991 C 89.649 -0.272 -2.2758 0
M  V30 992 C 90.649 0.557487 -1.50827 0
M  V30 993 O 91.839 0.37173 -1.70188 0
M  V30 994 C 88.971 0.617173 -3.35267 0
M  V30 995 H 90.164 -1.10111 -2.78954 0
M  V30 996 H 87.717 -0.608594 -1.43965 0
M  V30 997 H 88.452 1.46884 -2.89129 0
M  V30 998 H 88.237 0.0237066 -3.92093 0
M  V30 999 H 89.727 1.005 -4.05326 0
M  V30 1000 N 90.1641 1.46063 -0.591896 0
M  V30 1001 C 91.0741 2.34192 0.13831 0
M  V30 1002 C 92.0901 1.50305 0.876608 0
M  V30 1003 O 93.2661 1.8315 0.837728 0
M  V30 1004 C 90.3311 3.27656 1.13326 0
M  V30 1005 C 89.3921 4.27445 0.39863 0
M  V30 1006 C 88.6251 5.16443 1.34618 0
M  V30 1007 O 88.8481 5.08553 2.58321 0
M  V30 1008 O 87.7821 5.95843 0.851768 0
M  V30 1009 H 91.6081 2.98002 -0.58552 0
M  V30 1010 H 89.1931 1.45188 -0.352239 0
M  V30 1011 H 91.0751 3.85291 1.70671 0
M  V30 1012 H 89.7501 2.6643 1.83839 0
M  V30 1013 H 88.6571 3.73471 -0.216895 0
M  V30 1014 H 89.9901 4.91482 -0.265709 0
M  V30 1015 N 91.6422 0.330177 1.54103 0
M  V30 1016 C 93.0532 -0.15652 1.86043 0
M  V30 1017 C 93.4042 -1.51086 1.2517 0
M  V30 1018 O 92.5292 -2.09023 0.560217 0
M  V30 1019 C 93.1242 -0.290784 3.3755 0
M  V30 1020 C 91.6832 -0.721705 3.69416 0
M  V30 1021 C 90.8302 0.152622 2.7688 0
M  V30 1022 H 93.7812 0.550237 1.48856 0
M  V30 1023 H 93.8022 -1.12058 3.63625 0
M  V30 1024 H 93.3142 0.695068 3.81825 0
M  V30 1025 H 91.4152 -1.71706 3.30678 0
M  V30 1026 H 91.5282 -0.520869 4.7626 0
M  V30 1027 H 89.8922 -0.372894 2.51956 0
M  V30 1028 H 90.6752 1.13536 3.23982 0
M  V30 1029 N 93.1203 -1.57491 0.0584922 0
M  V30 1030 C 94.3973 -1.84346 -0.653918 0
M  V30 1031 C 94.7773 -0.948355 -1.88599 0
M  V30 1032 O 94.1253 -0.0112403 -2.28497 0
M  V30 1033 C 94.3353 -3.34239 -1.00425 0
M  V30 1034 C 95.6833 -4.01431 -1.38342 0
M  V30 1035 O 96.7073 -3.38907 -1.09637 0
M  V30 1036 O 95.5663 -5.11683 -1.91943 0
M  V30 1037 H 92.6603 -0.761112 -0.323478 0
M  V30 1038 H 95.2063 -1.6947 0.0884125 0
M  V30 1039 H 93.9783 -3.91089 -0.128625 0
M  V30 1040 H 93.6013 -3.54329 -1.80378 0
M  V30 1041 N 94.5984 0.214957 -1.56127 0
M  V30 1042 C 95.8444 0.939762 -1.79712 0
M  V30 1043 C 96.1774 1.83723 -0.629247 0
M  V30 1044 O 95.4524 1.90925 0.371197 0
M  V30 1045 C 95.7354 1.77306 -3.13424 0
M  V30 1046 C 95.5884 0.90164 -4.40671 0
M  V30 1047 C 96.9074 2.74956 -3.43638 0
M  V30 1048 H 94.0264 0.340214 -0.653776 0
M  V30 1049 H 96.6684 0.20824 -1.88855 0
M  V30 1050 H 94.8184 2.39673 -3.0576 0
M  V30 1051 H 96.4904 0.294206 -4.60361 0
M  V30 1052 H 94.7334 0.207368 -4.33304 0
M  V30 1053 H 95.4044 1.51923 -5.30682 0
M  V30 1054 H 97.8804 2.22724 -3.51473 0
M  V30 1055 H 96.7564 3.30358 -4.38355 0
M  V30 1056 H 97.0174 3.53023 -2.66134 0
M  V30 1057 N 96.0765 1.50051 0.48192 0
M  V30 1058 C 97.0235 1.68122 1.58125 0
M  V30 1059 C 97.9935 0.522545 1.57666 0
M  V30 1060 O 99.1785 0.751844 1.75362 0
M  V30 1061 C 96.3185 1.77142 2.96167 0
M  V30 1062 C 95.4315 3.0444 3.06497 0
M  V30 1063 C 94.5665 3.04321 4.35387 0
M  V30 1064 C 93.6055 4.26118 4.3942 0
M  V30 1065 N 92.7425 4.238 5.59766 0
M  V30 1066 H 97.5825 2.6198 1.42022 0
M  V30 1067 H 95.1195 1.29877 0.690687 0
M  V30 1068 H 97.0775 1.80352 3.76203 0
M  V30 1069 H 95.7075 0.867329 3.1093 0
M  V30 1070 H 94.7595 3.10752 2.19402 0
M  V30 1071 H 96.0715 3.94426 3.05336 0
M  V30 1072 H 95.2255 3.062 5.23762 0
M  V30 1073 H 93.9645 2.12147 4.39141 0
M  V30 1074 H 92.9695 4.24463 3.49444 0
M  V30 1075 H 94.1945 5.19507 4.37366 0
M  V30 1076 H 92.1405 3.34474 5.64326 0
M  V30 1077 H 92.0575 5.07542 5.60301 0
M  V30 1078 H 93.3255 4.2981 6.50295 0
M  V30 1079 N 97.5546 -0.734337 1.39446 0
M  V30 1080 C 98.5016 -1.84835 1.38219 0
M  V30 1081 C 99.4716 -1.64331 0.24179 0
M  V30 1082 O 100.657 -1.85728 0.437002 0
M  V30 1083 C 97.7966 -3.22355 1.23212 0
M  V30 1084 C 96.9096 -3.5456 2.46801 0
M  V30 1085 C 96.0446 -4.81485 2.24377 0
M  V30 1086 C 95.0836 -5.06536 3.43639 0
M  V30 1087 N 94.2206 -6.24665 3.20528 0
M  V30 1088 H 99.0606 -1.85219 2.33448 0
M  V30 1089 H 96.5976 -0.905039 1.15963 0
M  V30 1090 H 98.5556 -4.0174 1.12522 0
M  V30 1091 H 97.1856 -3.21248 0.316121 0
M  V30 1092 H 96.2376 -2.69872 2.68092 0
M  V30 1093 H 97.5496 -3.6899 3.3563 0
M  V30 1094 H 96.7036 -5.68852 2.10933 0
M  V30 1095 H 95.4426 -4.6923 1.32944 0
M  V30 1096 H 94.4476 -4.17632 3.5758 0
M  V30 1097 H 95.6726 -5.20676 4.35974 0
M  V30 1098 H 93.6186 -6.13696 2.3176 0
M  V30 1099 H 93.5356 -6.39685 4.02913 0
M  V30 1100 H 94.8036 -7.14868 3.10779 0
M  V30 1101 N 99.0327 -1.24633 -0.964593 0
M  V30 1102 C 99.9627 -1.06611 -2.07741 0
M  V30 1103 C 100.944 0.0218666 -1.70086 0
M  V30 1104 O 102.129 -0.145793 -1.93652 0
M  V30 1105 C 99.2587 -0.673444 -3.40708 0
M  V30 1106 C 98.2127 -1.71054 -3.92332 0
M  V30 1107 C 97.5387 -1.17285 -5.21678 0
M  V30 1108 C 98.8387 -3.10718 -4.19824 0
M  V30 1109 H 100.533 -1.99693 -2.23076 0
M  V30 1110 H 98.0787 -0.96152 -1.07195 0
M  V30 1111 H 100.032 -0.534345 -4.17998 0
M  V30 1112 H 98.7557 0.293073 -3.25282 0
M  V30 1113 H 97.4147 -1.83791 -3.17201 0
M  V30 1114 H 97.0627 -0.196847 -5.02615 0
M  V30 1115 H 96.7627 -1.86592 -5.57187 0
M  V30 1116 H 98.2867 -1.04593 -6.01575 0
M  V30 1117 H 99.7007 -3.01192 -4.87808 0
M  V30 1118 H 98.0977 -3.77406 -4.66567 0
M  V30 1119 H 99.1677 -3.58524 -3.26479 0
M  V30 1120 N 100.511 1.16574 -1.06058 0
M  V30 1121 C 101.421 2.2452 -0.680282 0
M  V30 1122 C 102.437 1.71348 0.302604 0
M  V30 1123 O 103.613 2.00822 0.152513 0
M  V30 1124 C 100.678 3.46629 -0.0700315 0
M  V30 1125 C 99.7388 4.14849 -1.10448 0
M  V30 1126 C 98.9718 5.31129 -0.523256 0
M  V30 1127 O 99.1948 5.66514 0.664709 0
M  V30 1128 O 98.1288 5.88526 -1.26179 0
M  V30 1129 H 101.955 2.59355 -1.58015 0
M  V30 1130 H 99.5398 1.24043 -0.832694 0
M  V30 1131 H 101.422 4.20543 0.268667 0
M  V30 1132 H 100.097 3.13573 0.803353 0
M  V30 1133 H 99.0038 3.42916 -1.49532 0
M  V30 1134 H 100.337 4.51954 -1.94931 0
M  V30 1135 N 101.989 0.842826 1.3317 0
M  V30 1136 C 103.266 0.362216 1.92217 0
M  V30 1137 C 103.646 -1.15289 1.76838 0
M  V30 1138 O 102.994 -1.96914 1.15919 0
M  V30 1139 C 103.204 0.813495 3.39387 0
M  V30 1140 C 104.552 0.823804 4.16532 0
M  V30 1141 O 105.576 0.757358 3.48055 0
M  V30 1142 O 104.435 0.915193 5.38782 0
M  V30 1143 H 101.529 0.103317 0.820521 0
M  V30 1144 H 104.075 0.928942 1.42017 0
M  V30 1145 H 102.847 1.85624 3.4447 0
M  V30 1146 H 102.47 0.223561 3.96971 0
M  V30 1147 N 103.467 -1.45747 0.599634 0
M  V30 1148 C 104.399 -2.28628 -0.161879 0
M  V30 1149 C 105.412 -1.39494 -0.839367 0
M  V30 1150 O 106.601 -1.63941 -0.706089 0
M  V30 1151 C 103.701 -3.15014 -1.24976 0
M  V30 1152 C 102.874 -4.32378 -0.660935 0
M  V30 1153 C 101.933 -5.00033 -1.63869 0
M  V30 1154 O 100.959 -5.57085 -1.1681 0
M  V30 1155 N 102.161 -4.98589 -2.97303 0
M  V30 1156 H 104.926 -2.94624 0.549265 0
M  V30 1157 H 102.487 -1.55847 0.438565 0
M  V30 1158 H 104.479 -3.5714 -1.9035 0
M  V30 1159 H 103.049 -2.5098 -1.86354 0
M  V30 1160 H 102.269 -3.9383 0.170688 0
M  V30 1161 H 103.557 -5.08197 -0.247619 0
M  V30 1162 H 102.955 -4.53514 -3.38145 0
M  V30 1163 H 101.512 -5.44603 -3.58121 0
M  V30 1164 N 104.945 -0.338344 -1.53925 0
M  V30 1165 C 105.875 0.51328 -2.27789 0
M  V30 1166 C 106.856 1.107 -1.29149 0
M  V30 1167 O 108.041 1.12937 -1.57984 0
M  V30 1168 C 105.171 1.66697 -3.04679 0
M  V30 1169 C 104.125 1.20183 -4.1078 0
M  V30 1170 C 103.451 2.44363 -4.75595 0
M  V30 1171 C 104.751 0.30605 -5.21403 0
M  V30 1172 H 106.445 -0.102883 -2.99223 0
M  V30 1173 H 103.991 -0.0509219 -1.4391 0
M  V30 1174 H 105.944 2.26915 -3.55088 0
M  V30 1175 H 104.668 2.30995 -2.30887 0
M  V30 1176 H 103.327 0.622499 -3.61276 0
M  V30 1177 H 102.975 3.07057 -3.98403 0
M  V30 1178 H 102.675 2.13925 -5.47275 0
M  V30 1179 H 104.199 3.05317 -5.28786 0
M  V30 1180 H 105.613 0.814929 -5.67478 0
M  V30 1181 H 104.01 0.0937929 -6.00027 0
M  V30 1182 H 105.08 -0.65921 -4.80398 0
M  V30 1183 N 106.423 1.57458 -0.0668435 0
M  V30 1184 C 107.355 2.09413 0.931601 0
M  V30 1185 C 108.368 1.02522 1.26464 0
M  V30 1186 O 109.557 1.30049 1.22269 0
M  V30 1187 C 106.657 2.53537 2.24882 0
M  V30 1188 C 105.83 3.83944 2.09537 0
M  V30 1189 C 104.889 4.14214 3.2452 0
M  V30 1190 O 103.915 4.83891 2.9973 0
M  V30 1191 N 105.117 3.67367 4.49469 0
M  V30 1192 H 107.882 2.95699 0.488048 0
M  V30 1193 H 105.443 1.61462 0.119009 0
M  V30 1194 H 107.435 2.70853 3.00701 0
M  V30 1195 H 106.005 1.72415 2.60753 0
M  V30 1196 H 105.225 3.76057 1.18215 0
M  V30 1197 H 106.513 4.69312 1.96529 0
M  V30 1198 H 105.911 3.11068 4.72497 0
M  V30 1199 H 104.468 3.89891 5.2233 0
M  V30 1200 N 107.901 -0.206675 1.56239 0
M  V30 1201 C 109.149 -0.927007 1.79586 0
M  V30 1202 C 109.47 -1.8427 0.637929 0
M  V30 1203 O 108.74 -1.92849 -0.344398 0
M  V30 1204 H 107.32 -0.345292 0.662407 0
M  V30 1205 H 109.982 -0.21496 1.93711 0
M  V30 1206 H 109.078 -1.52501 2.72305 0
M  V30 1207 N 109.379 -1.50304 -0.473955 0
M  V30 1208 C 110.627 -1.60832 -1.22382 0
M  V30 1209 C 110.948 -0.30939 -1.9253 0
M  V30 1210 O 110.218 0.67296 -1.83978 0
M  V30 1211 H 108.798 -0.592652 -0.454723 0
M  V30 1212 H 111.46 -1.87068 -0.546968 0
M  V30 1213 H 110.556 -2.41803 -1.97327 0
M  V30 1214 N 110.857 0.726932 -1.39834 0
M  V30 1215 C 111.789 1.85147 -1.35104 0
M  V30 1216 C 112.802 1.60736 -0.258392 0
M  V30 1217 O 113.991 1.70821 -0.517931 0
M  V30 1218 C 111.091 3.21332 -1.07697 0
M  V30 1219 C 110.264 3.73033 -2.28396 0
M  V30 1220 C 109.323 4.87802 -1.97322 0
M  V30 1221 O 108.349 5.01043 -2.70083 0
M  V30 1222 N 109.551 5.72768 -0.944273 0
M  V30 1223 H 112.316 1.89706 -2.32017 0
M  V30 1224 H 109.877 0.908006 -1.3404 0
M  V30 1225 H 111.869 3.95691 -0.849144 0
M  V30 1226 H 110.439 3.11992 -0.194909 0
M  V30 1227 H 109.659 2.89934 -2.6708 0
M  V30 1228 H 110.947 4.0431 -3.08887 0
M  V30 1229 H 110.345 5.64669 -0.341427 0
M  V30 1230 H 108.902 6.4716 -0.776346 0
M  V30 1231 N 112.336 1.25143 0.95797 0
M  V30 1232 C 113.266 1.07711 2.07173 0
M  V30 1233 C 114.247 -0.0128462 1.70095 0
M  V30 1234 O 115.432 0.156061 1.93572 0
M  V30 1235 C 112.562 0.691503 3.40346 0
M  V30 1236 C 111.516 1.73132 3.9142 0
M  V30 1237 C 110.842 1.20049 5.21049 0
M  V30 1238 C 112.142 3.1294 4.1817 0
M  V30 1239 H 113.836 2.00873 2.22014 0
M  V30 1240 H 111.382 0.967191 1.06684 0
M  V30 1241 H 113.335 0.556505 4.17709 0
M  V30 1242 H 112.059 -0.275819 3.25433 0
M  V30 1243 H 110.718 1.8547 3.16222 0
M  V30 1244 H 110.366 0.223499 5.02503 0
M  V30 1245 H 110.066 1.89545 5.56189 0
M  V30 1246 H 111.59 1.07782 6.01012 0
M  V30 1247 H 113.004 3.03775 4.86203 0
M  V30 1248 H 111.401 3.79875 4.64559 0
M  V30 1249 H 112.471 3.6025 3.24573 0
M  V30 1250 N 113.814 -1.1601 1.06675 0
M  V30 1251 C 114.724 -2.24156 0.692179 0
M  V30 1252 C 115.74 -1.71507 -0.293513 0
M  V30 1253 O 116.916 -2.009 -0.141861 0
M  V30 1254 C 113.981 -3.46587 0.0884131 0
M  V30 1255 C 113.042 -4.14257 1.12646 0
M  V30 1256 C 112.275 -5.30844 0.551416 0
M  V30 1257 O 112.498 -5.66858 -0.634656 0
M  V30 1258 O 111.432 -5.87848 1.29298 0
M  V30 1259 H 115.258 -2.58513 1.59388 0
M  V30 1260 H 112.843 -1.23599 0.83926 0
M  V30 1261 H 114.725 -4.20679 -0.246361 0
M  V30 1262 H 113.4 -3.13994 -0.786712 0
M  V30 1263 H 112.307 -3.42118 1.51348 0
M  V30 1264 H 113.64 -4.50914 1.97325 0
M  V30 1265 N 115.292 -0.849877 -1.32721 0
M  V30 1266 C 116.202 -0.293791 -2.32753 0
M  V30 1267 C 117.218 0.585906 -1.63839 0
M  V30 1268 O 118.394 0.487413 -1.95413 0
M  V30 1269 C 115.459 0.512752 -3.42887 0
M  V30 1270 C 114.52 -0.39252 -4.27502 0
M  V30 1271 C 113.753 0.375625 -5.32377 0
M  V30 1272 O 113.976 1.60613 -5.4732 0
M  V30 1273 O 112.91 -0.256094 -6.01355 0
M  V30 1274 H 116.736 -1.12242 -2.82197 0
M  V30 1275 H 114.321 -0.612685 -1.36259 0
M  V30 1276 H 116.203 0.970704 -4.10067 0
M  V30 1277 H 114.878 1.31826 -2.95641 0
M  V30 1278 H 113.785 -0.898547 -3.63149 0
M  V30 1279 H 115.118 -1.16309 -4.7826 0
M  V30 1280 N 116.77 1.45427 -0.607355 0
M  V30 1281 C 118.016 2.0254 -0.102607 0
M  V30 1282 C 118.349 1.47478 1.26348 0
M  V30 1283 O 117.624 0.64939 1.83339 0
M  V30 1284 C 117.907 3.60044 -0.0634347 0
M  V30 1285 C 117.76 4.2544 -1.46017 0
M  V30 1286 C 119.079 4.35646 0.624514 0
M  V30 1287 H 116.198 0.73598 -0.0387607 0
M  V30 1288 H 118.84 1.73284 -0.779282 0
M  V30 1289 H 116.99 3.85101 0.512808 0
M  V30 1290 H 118.662 4.11569 -2.08347 0
M  V30 1291 H 116.905 3.83849 -2.02094 0
M  V30 1292 H 117.576 5.34342 -1.385 0
M  V30 1293 H 120.052 4.15882 0.134723 0
M  V30 1294 H 118.928 5.45376 0.621028 0
M  V30 1295 H 119.189 4.08501 1.69055 0
M  V30 1296 N 118.248 0.346503 1.53744 0
M  V30 1297 C 119.497 -0.250122 2.00143 0
M  V30 1298 C 119.81 -1.51418 1.23822 0
M  V30 1299 O 121.016 -2.18823 1.60713 0
M  V30 1300 C 119.472 -0.496252 3.56462 0
M  V30 1301 C 119.08 0.752077 4.41642 0
M  V30 1302 C 120.824 -1.05157 4.11269 0
M  V30 1303 C 118.731 0.476583 5.89477 0
M  V30 1304 H 117.661 -0.0972409 0.747703 0
M  V30 1305 H 120.312 0.46229 1.77581 0
M  V30 1306 H 118.694 -1.26944 3.75102 0
M  V30 1307 H 119.868 1.5266 4.34778 0
M  V30 1308 H 118.183 1.22925 3.97842 0
M  V30 1309 H 120.78 -1.27269 5.19333 0
M  V30 1310 H 121.123 -2.00799 3.64672 0
M  V30 1311 H 121.656 -0.339019 3.96353 0
M  V30 1312 H 118.395 1.4028 6.40314 0
M  V30 1313 H 117.915 -0.259794 5.99237 0
M  V30 1314 H 119.594 0.0949315 6.4693 0
M  V30 1315 N 119.726 -1.57421 0.075193 0
M  V30 1316 C 120.656 -2.15942 -0.888324 0
M  V30 1317 C 121.637 -1.08737 -1.30806 0
M  V30 1318 O 122.822 -1.36787 -1.37851 0
M  V30 1319 C 119.952 -2.72379 -2.1547 0
M  V30 1320 C 118.906 -3.8478 -1.87425 0
M  V30 1321 C 118.232 -4.27834 -3.20721 0
M  V30 1322 C 119.532 -5.08869 -1.17684 0
M  V30 1323 H 121.226 -2.96705 -0.400799 0
M  V30 1324 H 118.772 -1.42723 -0.191342 0
M  V30 1325 H 120.725 -3.11965 -2.83295 0
M  V30 1326 H 119.449 -1.88841 -2.6647 0
M  V30 1327 H 118.108 -3.45703 -1.22004 0
M  V30 1328 H 117.756 -3.41214 -3.6957 0
M  V30 1329 H 117.456 -5.03605 -3.02746 0
M  V30 1330 H 118.98 -4.70039 -3.89738 0
M  V30 1331 H 120.394 -5.4575 -1.75584 0
M  V30 1332 H 118.791 -5.8994 -1.09956 0
M  V30 1333 H 119.861 -4.84648 -0.156453 0
M  V30 1334 N 121.204 0.198386 -1.56346 0
M  V30 1335 C 122.136 1.26987 -1.90806 0
M  V30 1336 C 123.149 1.41877 -0.798419 0
M  V30 1337 O 124.338 1.42362 -1.07682 0
M  V30 1338 C 121.438 2.64246 -2.12196 0
M  V30 1339 C 120.611 2.71007 -3.43328 0
M  V30 1340 C 119.67 3.89439 -3.5387 0
M  V30 1341 O 118.696 3.76695 -4.26719 0
M  V30 1342 N 119.898 5.04752 -2.86715 0
M  V30 1343 H 122.663 0.977433 -2.83313 0
M  V30 1344 H 120.224 0.388322 -1.57174 0
M  V30 1345 H 122.216 3.41896 -2.1654 0
M  V30 1346 H 120.786 2.85992 -1.26204 0
M  V30 1347 H 120.006 1.79657 -3.50881 0
M  V30 1348 H 121.294 2.72512 -4.29668 0
M  V30 1349 H 120.692 5.18004 -2.2735 0
M  V30 1350 H 119.249 5.8036 -2.96691 0
M  V30 1351 N 122.682 1.50554 0.465978 0
M  V30 1352 C 123.645 1.69233 1.54574 0
M  V30 1353 C 124.645 0.562901 1.50626 0
M  V30 1354 O 125.835 0.830016 1.53155 0
M  V30 1355 C 122.967 1.7223 2.94193 0
M  V30 1356 H 124.16 2.65571 1.39327 0
M  V30 1357 H 121.713 1.40111 0.692711 0
M  V30 1358 H 122.448 0.77603 3.14878 0
M  V30 1359 H 122.233 2.54285 2.98466 0
M  V30 1360 H 123.723 1.88618 3.72576 0
M  V30 1361 N 124.16 -0.719506 1.40217 0
M  V30 1362 C 125.07 -1.86378 1.42479 0
M  V30 1363 C 126.086 -1.71073 0.317834 0
M  V30 1364 O 127.262 -1.93406 0.561794 0
M  V30 1365 C 124.327 -3.22136 1.28178 0
M  V30 1366 C 123.388 -3.49723 2.48982 0
M  V30 1367 C 122.621 -4.79004 2.35353 0
M  V30 1368 O 122.844 -5.53821 1.36524 0
M  V30 1369 O 121.778 -5.06839 3.2465 0
M  V30 1370 H 125.604 -1.87425 2.38968 0
M  V30 1371 H 123.189 -0.869405 1.21498 0
M  V30 1372 H 125.071 -4.03234 1.22395 0
M  V30 1373 H 123.746 -3.21825 0.347934 0
M  V30 1374 H 122.653 -2.6865 2.60342 0
M  V30 1375 H 123.986 -3.54828 3.41113 0
M  V30 1376 N 125.638 -1.25649 -0.95132 0
M  V30 1377 C 126.588 -1.03004 -2.03406 0
M  V30 1378 C 127.572 0.034187 -1.60864 0
M  V30 1379 O 128.764 -0.181549 -1.76066 0
M  V30 1380 C 125.893 -0.654255 -3.37008 0
M  V30 1381 C 124.979 -1.75542 -3.86065 0
M  V30 1382 N 125.37 -2.99113 -4.07879 0
M  V30 1383 C 123.668 -1.63669 -4.14884 0
M  V30 1384 C 124.369 -3.70611 -4.48356 0
M  V30 1385 N 123.345 -2.98247 -4.54477 0
M  V30 1386 H 127.147 -1.96813 -2.1827 0
M  V30 1387 H 124.661 -1.16017 -1.13639 0
M  V30 1388 H 126.658 -0.473206 -4.14206 0
M  V30 1389 H 125.318 0.276468 -3.23521 0
M  V30 1390 H 126.329 -3.35124 -3.94857 0
M  V30 1391 H 123.006 -0.775161 -4.10241 0
M  V30 1392 H 124.396 -4.76695 -4.73509 0
M  V30 1393 N 127.117 1.15442 -1.07289 0
M  V30 1394 C 128.027 2.23786 -0.704057 0
M  V30 1395 C 129.043 1.7166 0.284413 0
M  V30 1396 O 130.219 2.00972 0.131205 0
M  V30 1397 C 127.284 3.46535 -0.106792 0
M  V30 1398 C 126.345 4.13654 -1.14842 0
M  V30 1399 C 125.578 5.30544 -0.57956 0
M  V30 1400 O 125.801 5.67187 0.604585 0
M  V30 1401 O 124.735 5.87154 -1.32414 0
M  V30 1402 H 128.561 2.57664 -1.60757 0
M  V30 1403 H 126.146 1.23152 -0.845803 0
M  V30 1404 H 128.028 4.20804 0.224048 0
M  V30 1405 H 126.703 3.14407 0.770049 0
M  V30 1406 H 125.61 3.4131 -1.5316 0
M  V30 1407 H 126.943 4.49861 -1.99714 0
M  V30 1408 N 128.595 0.856903 1.32268 0
M  V30 1409 C 129.525 0.31858 2.31316 0
M  V30 1410 C 130.506 -0.583487 1.59779 0
M  V30 1411 O 131.691 -0.503259 1.87566 0
M  V30 1412 C 128.821 -0.491979 3.43798 0
M  V30 1413 C 127.775 0.315849 4.26833 0
M  V30 1414 C 127.101 -0.619586 5.31098 0
M  V30 1415 C 128.401 1.54282 4.98993 0
M  V30 1416 H 130.095 1.14621 2.76591 0
M  V30 1417 H 127.641 0.552613 1.32974 0
M  V30 1418 H 129.594 -0.879012 4.1213 0
M  V30 1419 H 128.318 -1.35299 2.97257 0
M  V30 1420 H 126.977 0.684664 3.6015 0
M  V30 1421 H 126.625 -1.47751 4.8081 0
M  V30 1422 H 126.325 -0.0830621 5.87541 0
M  V30 1423 H 127.849 -1.00375 6.02293 0
M  V30 1424 H 129.263 1.22796 5.59995 0
M  V30 1425 H 127.66 2.01745 5.65172 0
M  V30 1426 H 128.73 2.30285 4.26728 0
M  V30 1427 N 130.073 -1.45103 0.615059 0
M  V30 1428 C 131.021 -2.32331 -0.111791 0
M  V30 1429 C 132.015 -1.46409 -0.852102 0
M  V30 1430 O 133.221 -1.62849 -0.766821 0
M  V30 1431 H 129.596 -0.749993 -0.0549072 0
M  V30 1432 H 131.567 -2.91407 0.642225 0
M  V30 1433 C 130.316 -3.3015 -1.09071 0
M  V30 1434 H 129.639 -3.96265 -0.530485 0
M  V30 1435 H 131.079 -3.93898 -1.56908 0
M  V30 1436 C 129.538 -2.57875 -2.168 0
M  V30 1437 O 130.068 -2.36567 -3.24652 0
M  V30 1438 N 128.274 -2.17884 -1.92289 0
M  V30 1439 H 127.821 -2.35413 -1.04587 0
M  V30 1440 H 127.779 -1.6985 -2.64572 0
M  V30 1441 N 131.551 -0.354651 -1.53558 0
M  V30 1442 C 132.481 0.489091 -2.2832 0
M  V30 1443 C 133.462 1.09324 -1.30316 0
M  V30 1444 O 134.647 1.11255 -1.59173 0
M  V30 1445 C 131.777 1.63456 -3.0643 0
M  V30 1446 C 130.731 1.1582 -4.12031 0
M  V30 1447 C 130.057 2.39305 -4.7816 0
M  V30 1448 C 131.357 0.250731 -5.21698 0
M  V30 1449 H 133.051 -0.134614 -2.99097 0
M  V30 1450 H 130.597 -0.0661826 -1.43848 0
M  V30 1451 H 132.55 2.23136 -3.57475 0
M  V30 1452 H 131.274 2.28533 -2.33325 0
M  V30 1453 H 129.933 0.584146 -3.61916 0
M  V30 1454 H 129.581 3.02814 -4.01637 0
M  V30 1455 H 129.281 2.08109 -5.49513 0
M  V30 1456 H 130.805 2.99691 -5.31994 0
M  V30 1457 H 132.219 0.754695 -5.68311 0
M  V30 1458 H 130.616 0.0301468 -6.00092 0
M  V30 1459 H 131.686 -0.710125 -4.79672 0
M  V30 1460 N 133.029 1.57378 -0.0835403 0
M  V30 1461 C 133.992 2.12252 0.864959 0
M  V30 1462 C 134.992 1.04916 1.21858 0
M  V30 1463 O 136.182 1.30853 1.14991 0
M  V30 1464 C 133.314 2.63358 2.16461 0
M  V30 1465 H 134.507 2.97371 0.388676 0
M  V30 1466 H 132.06 1.55423 0.165317 0
M  V30 1467 H 132.795 1.81727 2.686 0
M  V30 1468 H 132.58 3.41826 1.92087 0
M  V30 1469 H 134.07 3.05847 2.84337 0
M  V30 1470 N 134.507 -0.190092 1.56449 0
M  V30 1471 C 135.923 -0.54113 1.50146 0
M  V30 1472 C 136.123 -1.85603 0.784465 0
M  V30 1473 O 135.179 -2.5024 0.337051 0
M  V30 1474 C 136.492 -0.591241 2.9483 0
M  V30 1475 C 138.04 -0.679732 3.0553 0
M  V30 1476 C 138.515 -0.760908 4.51635 0
M  V30 1477 N 140.006 -0.824302 4.55806 0
M  V30 1478 C 140.741 -0.907365 5.66175 0
M  V30 1479 N 140.237 -0.952422 6.86222 0
M  V30 1480 N 142.03 -0.94494 5.541 0
M  V30 1481 H 134.181 0.67235 2.01478 0
M  V30 1482 H 136.444 0.240127 0.917084 0
M  V30 1483 H 136.15 0.305905 3.50367 0
M  V30 1484 H 136.024 -1.44422 3.48457 0
M  V30 1485 H 138.411 -1.56731 2.50039 0
M  V30 1486 H 138.492 0.199549 2.5502 0
M  V30 1487 H 138.136 0.122336 5.07753 0
M  V30 1488 H 138.066 -1.65606 4.99882 0
M  V30 1489 H 140.557 -0.798526 3.69367 0
M  V30 1490 H 140.87 -1.01645 7.66086 0
M  V30 1491 H 139.215 -0.921014 6.8887 0
M  V30 1492 H 142.406 -0.906612 4.59236 0
M  V30 1493 H 142.579 -1.00622 6.4014 0
M  V30 1494 N 135.985 -1.50799 -0.457987 0
M  V30 1495 C 136.932 -1.70617 -1.5543 0
M  V30 1496 C 137.902 -0.547562 -1.56815 0
M  V30 1497 O 139.087 -0.779647 -1.74144 0
M  V30 1498 C 136.227 -1.81831 -2.93311 0
M  V30 1499 C 135.34 -3.09278 -3.01615 0
M  V30 1500 C 134.475 -3.11209 -4.30491 0
M  V30 1501 C 133.514 -4.33055 -4.32585 0
M  V30 1502 N 132.651 -4.32652 -5.52952 0
M  V30 1503 H 137.491 -2.64207 -1.37836 0
M  V30 1504 H 135.028 -1.30959 -0.669937 0
M  V30 1505 H 136.986 -1.86314 -3.73287 0
M  V30 1506 H 135.616 -0.916685 -3.0951 0
M  V30 1507 H 134.668 -3.14203 -2.1443 0
M  V30 1508 H 135.98 -3.99233 -2.99022 0
M  V30 1509 H 135.134 -3.14494 -5.18824 0
M  V30 1510 H 133.873 -2.19106 -4.35711 0
M  V30 1511 H 132.878 -4.29969 -3.42647 0
M  V30 1512 H 134.103 -5.264 -4.29046 0
M  V30 1513 H 132.049 -3.43409 -5.58933 0
M  V30 1514 H 131.966 -5.16392 -5.52155 0
M  V30 1515 H 133.234 -4.40101 -6.43375 0
M  V30 1516 N 137.463 0.71206 -1.40597 0
M  V30 1517 C 138.396 1.83582 -1.35546 0
M  V30 1518 C 139.374 1.61032 -0.225284 0
M  V30 1519 O 140.558 1.83998 -0.409519 0
M  V30 1520 C 137.685 3.19983 -1.11034 0
M  V30 1521 C 136.731 3.61355 -2.2655 0
M  V30 1522 S 137.564 3.68062 -3.88961 0
M  V30 1523 C 138.72 5.07216 -3.66719 0
M  V30 1524 H 138.953 1.87586 -2.30648 0
M  V30 1525 H 136.486 0.879182 -1.26924 0
M  V30 1526 H 138.444 3.98734 -0.975761 0
M  V30 1527 H 137.105 3.13608 -0.175798 0
M  V30 1528 H 136.298 4.60403 -2.0505 0
M  V30 1529 H 135.9 2.8987 -2.36329 0
M  V30 1530 H 138.192 5.94238 -3.25404 0
M  V30 1531 H 139.135 5.33753 -4.6531 0
M  V30 1532 H 139.543 4.77976 -3.00332 0
M  V30 1533 N 138.941 1.26152 0.944643 0
M  V30 1534 C 140.357 1.03189 1.21754 0
M  V30 1535 C 140.557 -0.245112 2.00004 0
M  V30 1536 O 139.613 -0.955176 2.33736 0
M  V30 1537 C 140.926 2.26119 1.98219 0
M  V30 1538 C 142.474 2.30984 2.11224 0
M  V30 1539 C 142.949 3.53597 2.91089 0
M  V30 1540 N 144.44 3.54053 2.98664 0
M  V30 1541 C 145.175 4.45593 3.60881 0
M  V30 1542 N 144.671 5.47416 4.24626 0
M  V30 1543 N 146.464 4.33252 3.58119 0
M  V30 1544 H 138.615 2.08177 0.421437 0
M  V30 1545 H 140.878 0.914723 0.248969 0
M  V30 1546 H 140.584 3.18984 1.48128 0
M  V30 1547 H 140.458 2.3009 2.98895 0
M  V30 1548 H 142.845 1.38635 2.60508 0
M  V30 1549 H 142.926 2.31026 1.09821 0
M  V30 1550 H 142.57 4.46273 2.42493 0
M  V30 1551 H 142.5 3.50802 3.92741 0
M  V30 1552 H 144.991 2.80403 2.53343 0
M  V30 1553 H 145.304 6.13459 4.69987 0
M  V30 1554 H 143.649 5.51278 4.23223 0
M  V30 1555 H 146.84 3.52924 3.0751 0
M  V30 1556 H 147.013 5.04786 4.06319 0
M  V30 1557 N 140.419 -1.14872 1.07899 0
M  V30 1558 C 141.329 -2.2341 0.715915 0
M  V30 1559 C 142.345 -1.71808 -0.275306 0
M  V30 1560 O 143.521 -2.01039 -0.120545 0
M  V30 1561 C 140.586 -3.46474 0.125168 0
M  V30 1562 C 139.647 -4.13039 1.17034 0
M  V30 1563 C 138.88 -5.30229 0.607688 0
M  V30 1564 O 139.103 -5.675 -0.574497 0
M  V30 1565 O 138.037 -5.86444 1.35526 0
M  V30 1566 H 141.863 -2.56808 1.62121 0
M  V30 1567 H 139.448 -1.22702 0.852322 0
M  V30 1568 H 141.33 -4.20917 -0.201729 0
M  V30 1569 H 140.005 -3.14811 -0.753364 0
M  V30 1570 H 138.912 -3.40493 1.54968 0
M  V30 1571 H 140.245 -4.48796 2.02097 0
M  V30 1572 N 141.898 -0.863906 -1.31812 0
M  V30 1573 C 143.144 -0.481841 -1.9761 0
M  V30 1574 C 143.499 0.954048 -1.6708 0
M  V30 1575 O 142.792 1.66182 -0.953624 0
M  V30 1576 C 142.986 -0.668547 -3.51091 0
M  V30 1577 C 142.815 -2.12103 -3.96538 0
M  V30 1578 C 141.585 -2.76141 -4.23171 0
M  V30 1579 C 143.783 -3.09265 -4.10925 0
M  V30 1580 N 141.765 -4.12205 -4.54929 0
M  V30 1581 C 143.136 -4.30341 -4.46326 0
M  V30 1582 C 145.191 -3.05337 -3.93286 0
M  V30 1583 C 143.894 -5.48 -4.65928 0
M  V30 1584 C 145.92 -4.22248 -4.14078 0
M  V30 1585 C 145.282 -5.42085 -4.49804 0
M  V30 1586 H 141.381 -0.225238 -0.74886 0
M  V30 1587 H 143.965 -1.11723 -1.59455 0
M  V30 1588 H 142.136 -0.0627898 -3.88349 0
M  V30 1589 H 143.868 -0.255467 -4.03893 0
M  V30 1590 H 140.623 -2.27125 -4.15585 0
M  V30 1591 H 141.047 -4.82416 -4.74978 0
M  V30 1592 H 145.689 -2.138 -3.64759 0
M  V30 1593 H 143.407 -6.40059 -4.93305 0
M  V30 1594 H 146.993 -4.20654 -4.01922 0
M  V30 1595 H 145.873 -6.31044 -4.65567 0
M  V30 1596 N 143.376 1.44774 -0.622745 0
M  V30 1597 C 144.323 2.30635 0.0871679 0
M  V30 1598 C 145.293 1.42994 0.845097 0
M  V30 1599 O 146.478 1.71907 0.827812 0
M  V30 1600 C 143.618 3.28144 1.06844 0
M  V30 1601 C 142.731 4.30888 0.309809 0
M  V30 1602 C 141.866 5.15494 1.28215 0
M  V30 1603 C 140.905 6.09953 0.512198 0
M  V30 1604 N 140.042 6.87287 1.43458 0
M  V30 1605 H 144.882 2.90803 -0.650974 0
M  V30 1606 H 142.419 1.43286 -0.33281 0
M  V30 1607 H 144.377 3.83157 1.65066 0
M  V30 1608 H 143.007 2.69695 1.77382 0
M  V30 1609 H 142.059 3.78414 -0.388181 0
M  V30 1610 H 143.371 4.97955 -0.290254 0
M  V30 1611 H 142.525 5.74983 1.93596 0
M  V30 1612 H 141.264 4.48481 1.91614 0
M  V30 1613 H 140.269 5.49581 -0.155151 0
M  V30 1614 H 141.494 6.78999 -0.116958 0
M  V30 1615 H 139.44 6.2295 2.05594 0
M  V30 1616 H 139.357 7.50763 0.888335 0
M  V30 1617 H 140.625 7.51306 2.07749 0
M  V30 1618 N 144.854 0.36279 1.53368 0
M  V30 1619 C 145.784 -0.476976 2.28576 0
M  V30 1620 C 146.765 -1.08631 1.30894 0
M  V30 1621 O 147.95 -1.10409 1.59761 0
M  V30 1622 C 145.08 -1.61828 3.07293 0
M  V30 1623 C 144.034 -1.13633 4.1264 0
M  V30 1624 C 143.36 -2.36766 4.79423 0
M  V30 1625 C 144.66 -0.223061 5.21823 0
M  V30 1626 H 146.354 0.150474 2.99022 0
M  V30 1627 H 143.9 0.0738103 1.43811 0
M  V30 1628 H 145.853 -2.21237 3.58653 0
M  V30 1629 H 144.577 -2.27292 2.34533 0
M  V30 1630 H 143.236 -0.564945 3.62221 0
M  V30 1631 H 142.884 -3.0068 4.03238 0
M  V30 1632 H 142.584 -2.05192 5.50609 0
M  V30 1633 H 144.108 -2.96865 5.33576 0
M  V30 1634 H 145.522 -0.724545 5.68703 0
M  V30 1635 H 143.919 0.001678 6.001 0
M  V30 1636 H 144.989 0.735553 4.79289 0
M  V30 1637 N 146.332 -1.57332 0.0918853 0
M  V30 1638 C 147.578 -1.95328 -0.567313 0
M  V30 1639 C 147.933 -0.972866 -1.65991 0
M  V30 1640 O 147.226 0.00166256 -1.916 0
M  V30 1641 C 147.42 -3.37689 -1.17051 0
M  V30 1642 C 147.249 -4.49489 -0.137875 0
M  V30 1643 C 146.019 -5.04498 0.284515 0
M  V30 1644 C 148.217 -5.10393 0.63271 0
M  V30 1645 N 146.199 -5.99853 1.30576 0
M  V30 1646 C 147.57 -6.01435 1.50587 0
M  V30 1647 C 149.625 -4.93143 0.68658 0
M  V30 1648 C 148.328 -6.77077 2.42815 0
M  V30 1649 C 150.354 -5.69445 1.59645 0
M  V30 1650 C 149.716 -6.60151 2.45725 0
M  V30 1651 H 145.815 -0.761467 -0.178023 0
M  V30 1652 H 148.399 -1.93924 0.173706 0
M  V30 1653 H 146.57 -3.39793 -1.88136 0
M  V30 1654 H 148.302 -3.62872 -1.79181 0
M  V30 1655 H 145.057 -4.73489 -0.102593 0
M  V30 1656 H 145.481 -6.52231 1.81449 0
M  V30 1657 H 150.123 -4.22785 0.035244 0
M  V30 1658 H 147.841 -7.46699 3.08975 0
M  V30 1659 H 151.427 -5.58112 1.64323 0
M  V30 1660 H 150.307 -7.18159 3.14987 0
M  V30 1661 N 147.81 0.181792 -1.56548 0
M  V30 1662 C 148.72 1.24538 -1.98815 0
M  V30 1663 C 149.736 1.49045 -0.897861 0
M  V30 1664 O 150.912 1.61399 -1.20467 0
M  V30 1665 C 147.977 2.56683 -2.33055 0
M  V30 1666 C 147.038 2.40131 -3.55859 0
M  V30 1667 C 146.271 3.65975 -3.88456 0
M  V30 1668 O 146.494 4.70711 -3.22161 0
M  V30 1669 O 145.428 3.6071 -4.81842 0
M  V30 1670 H 149.254 0.916647 -2.89536 0
M  V30 1671 H 146.839 0.387842 -1.44278 0
M  V30 1672 H 148.721 3.34655 -2.56094 0
M  V30 1673 H 147.396 2.89157 -1.45498 0
M  V30 1674 H 146.303 1.60226 -3.38051 0
M  V30 1675 H 147.636 2.12585 -4.43924 0
M  V30 1676 N 149.288 1.51039 0.449983 0
M  V30 1677 C 150.699 1.557 1.03026 0
M  V30 1678 C 151.05 0.372939 1.92623 0
M  V30 1679 O 150.175 -0.511771 2.10261 0
M  V30 1680 C 150.77 2.82171 1.87523 0
M  V30 1681 C 149.329 2.89444 2.40622 0
M  V30 1682 C 148.476 2.50228 1.19504 0
M  V30 1683 H 151.427 1.56999 0.231745 0
M  V30 1684 H 151.448 2.65219 2.72835 0
M  V30 1685 H 150.96 3.68331 1.22286 0
M  V30 1686 H 149.061 2.07685 3.0935 0
M  V30 1687 H 149.174 3.92816 2.74285 0
M  V30 1688 H 147.538 2.03139 1.53644 0
M  V30 1689 H 148.321 3.38719 0.558972 0
M  V30 1690 N 150.766 -0.704594 1.40972 0
M  V30 1691 C 151.696 -1.83124 1.44872 0
M  V30 1692 C 152.677 -1.67281 0.30838 0
M  V30 1693 O 153.862 -1.87149 0.518556 0
M  V30 1694 C 150.992 -3.21181 1.32136 0
M  V30 1695 C 149.946 -3.51714 2.43888 0
M  V30 1696 C 149.272 -4.89032 2.16222 0
M  V30 1697 C 150.572 -3.516 3.86232 0
M  V30 1698 H 152.266 -1.80117 2.39161 0
M  V30 1699 H 149.812 -0.865145 1.15114 0
M  V30 1700 H 151.765 -3.99702 1.33479 0
M  V30 1701 H 150.489 -3.24791 0.343279 0
M  V30 1702 H 149.148 -2.75539 2.41813 0
M  V30 1703 H 148.796 -4.89256 1.16778 0
M  V30 1704 H 148.496 -5.10426 2.911 0
M  V30 1705 H 150.02 -5.69873 2.19265 0
M  V30 1706 H 151.434 -4.2014 3.9007 0
M  V30 1707 H 149.831 -3.84523 4.60719 0
M  V30 1708 H 150.901 -2.50757 4.15029 0
M  V30 1709 N 152.244 -1.26651 -0.937939 0
M  V30 1710 C 153.49 -1.12553 -1.687 0
M  V30 1711 C 153.823 0.329782 -1.91379 0
M  V30 1712 O 153.098 1.24202 -1.4968 0
M  V30 1713 C 153.381 -1.89862 -3.05981 0
M  V30 1714 C 153.234 -3.43318 -2.90607 0
M  V30 1715 C 154.553 -1.69499 -4.0615 0
M  V30 1716 H 151.672 -0.410257 -0.612257 0
M  V30 1717 H 154.314 -1.55685 -1.08913 0
M  V30 1718 H 152.464 -1.53204 -3.57017 0
M  V30 1719 H 154.136 -3.89747 -2.46769 0
M  V30 1720 H 152.379 -3.70179 -2.26164 0
M  V30 1721 H 153.05 -3.92642 -3.8799 0
M  V30 1722 H 155.526 -2.01442 -3.64088 0
M  V30 1723 H 154.402 -2.26002 -5.00214 0
M  V30 1724 H 154.663 -0.640365 -4.37438 0
M  V30 1725 N 153.722 1.14298 -1.08507 0
M  V30 1726 C 154.632 2.23027 -0.727753 0
M  V30 1727 C 155.648 1.71952 0.26619 0
M  V30 1728 O 156.824 2.011 0.109882 0
M  V30 1729 C 153.889 3.46403 -0.143541 0
M  V30 1730 C 152.95 4.12413 -1.19223 0
M  V30 1731 C 152.183 5.29899 -0.635798 0
M  V30 1732 O 152.406 5.67796 0.544393 0
M  V30 1733 O 151.34 5.85717 -1.38634 0
M  V30 1734 H 155.166 2.55945 -1.63481 0
M  V30 1735 H 152.751 1.22248 -0.858817 0
M  V30 1736 H 154.633 4.21018 0.179404 0
M  V30 1737 H 153.308 3.15206 0.736659 0
M  V30 1738 H 152.215 3.39667 -1.56772 0
M  V30 1739 H 153.548 4.47718 -2.04474 0
M  V30 1740 N 155.201 0.870884 1.31352 0
M  V30 1741 C 156.111 0.330783 2.32256 0
M  V30 1742 C 157.127 -0.559767 1.6475 0
M  V30 1743 O 158.303 -0.456263 1.96164 0
M  V30 1744 C 155.368 -0.458137 3.4366 0
M  V30 1745 C 154.429 0.460482 4.26823 0
M  V30 1746 C 153.662 -0.290881 5.32907 0
M  V30 1747 O 153.885 -1.51885 5.49806 0
M  V30 1748 O 152.819 0.351732 6.00871 0
M  V30 1749 H 156.645 1.16718 2.80376 0
M  V30 1750 H 154.23 0.634285 1.35267 0
M  V30 1751 H 156.112 -0.905343 4.1156 0
M  V30 1752 H 154.787 -1.27106 2.97701 0
M  V30 1753 H 153.694 0.956207 3.61673 0
M  V30 1754 H 155.027 1.23903 4.7635 0
M  V30 1755 N 156.679 -1.44442 0.630414 0
M  V30 1756 C 158.09 -1.85434 0.217063 0
M  V30 1757 C 158.441 -1.52748 -1.23136 0
M  V30 1758 O 157.566 -0.965205 -1.93682 0
M  V30 1759 C 158.161 -3.36581 0.387168 0
M  V30 1760 C 156.72 -3.76389 0.0283297 0
M  V30 1761 C 155.867 -2.68296 0.700889 0
M  V30 1762 H 158.818 -1.34919 0.83562 0
M  V30 1763 H 158.839 -3.78657 -0.374086 0
M  V30 1764 H 158.351 -3.60339 1.44144 0
M  V30 1765 H 156.452 -3.58246 -1.02423 0
M  V30 1766 H 156.565 -4.77095 0.437892 0
M  V30 1767 H 154.929 -2.54335 0.136267 0
M  V30 1768 H 155.712 -2.94887 1.75774 0
M  V30 1769 N 158.157 -0.370918 -1.53173 0
M  V30 1770 C 159.568 0.107139 -1.86392 0
M  V30 1771 C 159.919 1.47714 -1.29132 0
M  V30 1772 O 159.044 2.07464 -0.615439 0
M  V30 1773 C 159.639 0.201187 -3.38202 0
M  V30 1774 C 158.198 0.623507 -3.712 0
M  V30 1775 C 157.345 -0.225978 -2.76378 0
M  V30 1776 H 160.296 -0.58951 -1.47345 0
M  V30 1777 H 160.317 1.02377 -3.66468 0
M  V30 1778 H 159.829 -0.796058 -3.79848 0
M  V30 1779 H 157.93 1.62879 -3.35114 0
M  V30 1780 H 158.043 0.394414 -4.77474 0
M  V30 1781 H 156.407 0.305962 -2.52856 0
M  V30 1782 H 157.19 -1.22086 -3.20858 0
M  V30 1783 N 159.635 1.57281 -0.100228 0
M  V30 1784 C 160.598 2.13158 0.842398 0
M  V30 1785 C 161.598 1.06202 1.20738 0
M  V30 1786 O 162.788 1.32066 1.13597 0
M  V30 1787 C 159.92 2.65639 2.13655 0
M  V30 1788 H 161.113 2.97766 0.357114 0
M  V30 1789 H 158.666 1.5559 0.148823 0
M  V30 1790 H 159.401 1.84566 2.66657 0
M  V30 1791 H 159.186 3.43844 1.88451 0
M  V30 1792 H 160.676 3.08846 2.81077 0
M  V30 1793 N 161.113 -0.173488 1.56642 0
M  V30 1794 C 162.39 -0.917617 1.7274 0
M  V30 1795 C 162.77 -2.00484 0.661027 0
M  V30 1796 O 162.118 -2.26184 -0.32453 0
M  V30 1797 C 162.328 -1.48433 3.15862 0
M  V30 1798 C 163.676 -1.95809 3.76754 0
M  V30 1799 O 164.7 -1.58231 3.19126 0
M  V30 1800 O 163.559 -2.65024 4.77938 0
M  V30 1801 H 160.653 -0.431772 0.705338 0
M  V30 1802 H 163.199 -0.161487 1.6893 0
M  V30 1803 H 161.971 -0.701715 3.84957 0
M  V30 1804 H 161.594 -2.30471 3.23989 0
M  V30 1805 N 162.591 -1.51276 -0.441967 0
M  V30 1806 C 163.523 -1.68444 -1.55433 0
M  V30 1807 C 164.536 -0.565187 -1.52674 0
M  V30 1808 O 165.725 -0.839356 -1.57534 0
M  V30 1809 C 162.825 -1.67966 -2.94348 0
M  V30 1810 C 161.998 -2.964 -3.21661 0
M  V30 1811 C 161.057 -2.88171 -4.40277 0
M  V30 1812 O 160.083 -3.62119 -4.39157 0
M  V30 1813 N 161.285 -2.03706 -5.43584 0
M  V30 1814 H 164.05 -2.644 -1.41112 0
M  V30 1815 H 161.611 -1.49104 -0.630838 0
M  V30 1816 H 163.603 -1.60035 -3.71713 0
M  V30 1817 H 162.173 -0.796225 -3.0229 0
M  V30 1818 H 161.393 -3.18234 -2.32638 0
M  V30 1819 H 162.681 -3.81427 -3.36736 0
M  V30 1820 H 162.079 -1.42995 -5.47329 0
M  V30 1821 H 160.636 -2.01658 -6.1982 0
M  V30 1822 N 164.069 0.697108 -1.41344 0
M  V30 1823 C 165.315 1.45796 -1.41828 0
M  V30 1824 C 165.67 1.92382 -0.0261743 0
M  V30 1825 O 164.963 1.66522 0.947688 0
M  V30 1826 C 165.157 2.68553 -2.35826 0
M  V30 1827 C 164.986 2.33975 -3.84039 0
M  V30 1828 C 163.756 2.24414 -4.52732 0
M  V30 1829 C 165.954 1.97048 -4.75054 0
M  V30 1830 N 163.936 1.82705 -5.86082 0
M  V30 1831 C 165.307 1.66086 -5.9734 0
M  V30 1832 C 167.362 1.83845 -4.62715 0
M  V30 1833 C 166.065 1.23246 -7.08663 0
M  V30 1834 C 168.091 1.4241 -5.73998 0
M  V30 1835 C 167.453 1.12357 -6.95381 0
M  V30 1836 H 163.552 0.530859 -0.574206 0
M  V30 1837 H 166.136 0.806674 -1.77203 0
M  V30 1838 H 164.307 3.31404 -2.02549 0
M  V30 1839 H 166.039 3.35015 -2.2704 0
M  V30 1840 H 162.794 2.4276 -4.0665 0
M  V30 1841 H 163.218 1.64337 -6.56751 0
M  V30 1842 H 167.86 2.05734 -3.69369 0
M  V30 1843 H 165.578 1.00102 -8.01876 0
M  V30 1844 H 169.164 1.32746 -5.66454 0
M  V30 1845 H 168.044 0.807795 -7.80028 0
M  V30 1846 N 165.547 1.27147 0.931209 0
M  V30 1847 C 166.494 1.09568 2.03134 0
M  V30 1848 C 167.464 -0.00222433 1.661 0
M  V30 1849 O 168.649 0.159439 1.90133 0
M  V30 1850 C 165.789 0.745231 3.36957 0
M  V30 1851 C 164.902 1.92041 3.86968 0
M  V30 1852 C 164.037 1.51216 5.09222 0
M  V30 1853 C 163.076 2.65504 5.5152 0
M  V30 1854 N 162.213 2.25291 6.64972 0
M  V30 1855 H 167.053 2.03708 2.17502 0
M  V30 1856 H 164.59 1.01411 1.06556 0
M  V30 1857 H 166.548 0.522878 4.1391 0
M  V30 1858 H 165.178 -0.159202 3.22407 0
M  V30 1859 H 164.23 2.25541 3.06326 0
M  V30 1860 H 165.542 2.77787 4.1429 0
M  V30 1861 H 164.696 1.25084 5.93666 0
M  V30 1862 H 163.435 0.625749 4.83669 0
M  V30 1863 H 162.44 2.92354 4.65628 0
M  V30 1864 H 163.665 3.54761 5.7907 0
M  V30 1865 H 161.611 1.39098 6.41083 0
M  V30 1866 H 161.528 3.04577 6.91931 0
M  V30 1867 H 162.796 2.02398 7.52765 0
M  V30 1868 N 167.025 -1.13721 1.09112 0
M  V30 1869 C 168.271 -1.85413 0.836283 0
M  V30 1870 C 168.626 -1.8175 -0.631249 0
M  V30 1871 O 167.919 -1.24238 -1.45861 0
M  V30 1872 C 168.113 -3.32861 1.30146 0
M  V30 1873 C 167.942 -3.50882 2.81268 0
M  V30 1874 C 166.712 -3.65312 3.49106 0
M  V30 1875 C 168.91 -3.47196 3.7942 0
M  V30 1876 N 166.892 -3.71563 4.88686 0
M  V30 1877 C 168.263 -3.59777 5.04936 0
M  V30 1878 C 170.318 -3.30577 3.72321 0
M  V30 1879 C 169.021 -3.57455 6.24194 0
M  V30 1880 C 171.047 -3.29562 4.91063 0
M  V30 1881 C 170.409 -3.42691 6.15421 0
M  V30 1882 H 166.508 -0.694812 0.358832 0
M  V30 1883 H 169.092 -1.36246 1.39087 0
M  V30 1884 H 167.263 -3.80602 0.774361 0
M  V30 1885 H 168.995 -3.92346 0.99229 0
M  V30 1886 H 165.75 -3.6685 2.9953 0
M  V30 1887 H 166.174 -3.78387 5.61384 0
M  V30 1888 H 170.816 -3.19332 2.77105 0
M  V30 1889 H 168.534 -3.67475 7.19714 0
M  V30 1890 H 172.12 -3.17905 4.87266 0
M  V30 1891 H 171 -3.41862 7.05762 0
M  V30 1892 N 168.503 -0.877838 -1.30888 0
M  V30 1893 C 169.914 -0.544193 -1.78593 0
M  V30 1894 C 170.265 0.939301 -1.72254 0
M  V30 1895 O 169.39 1.7337 -1.29505 0
M  V30 1896 C 169.985 -0.98105 -3.24285 0
M  V30 1897 C 168.544 -0.698935 -3.69854 0
M  V30 1898 C 167.691 -1.168 -2.51502 0
M  V30 1899 H 170.642 -1.06278 -1.17859 0
M  V30 1900 H 170.663 -0.307009 -3.79259 0
M  V30 1901 H 170.175 -2.06079 -3.28866 0
M  V30 1902 H 168.276 0.369112 -3.70767 0
M  V30 1903 H 168.389 -1.28148 -4.61644 0
M  V30 1904 H 166.753 -0.587535 -2.47831 0
M  V30 1905 H 167.536 -2.25533 -2.58824 0
M  V30 1906 N 169.982 1.44106 -0.638065 0
M  V30 1907 C 171.231 2.01194 -0.142744 0
M  V30 1908 C 171.544 1.50835 1.24532 0
M  V30 1909 O 172.75 2.00096 1.83504 0
M  V30 1910 C 171.206 3.59319 -0.20442 0
M  V30 1911 C 170.814 4.18674 -1.59423 0
M  V30 1912 C 172.558 4.23854 0.234079 0
M  V30 1913 C 170.465 5.69045 -1.61065 0
M  V30 1914 H 169.395 0.752367 -0.0495998 0
M  V30 1915 H 172.046 1.65246 -0.797881 0
M  V30 1916 H 170.428 3.92598 0.517946 0
M  V30 1917 H 171.602 3.96921 -2.34074 0
M  V30 1918 H 169.917 3.66453 -1.97741 0
M  V30 1919 H 172.514 5.34155 0.241443 0
M  V30 1920 H 172.857 3.96688 1.2627 0
M  V30 1921 H 173.39 3.95403 -0.436025 0
M  V30 1922 H 170.129 6.00956 -2.61787 0
M  V30 1923 H 169.649 5.929 -0.90718 0
M  V30 1924 H 171.328 6.32809 -1.34766 0
M  V30 1925 O 171.499 0.52123 1.52858 0
M  V30 1926 H 172.19 0.00896083 1.93698 0
M  V30 END ATOM
M  V30 BEGIN BOND
M  V30 END BOND
M  V30 END CTAB
M  END
$$$$
