drugbank_target|Q16706 Alpha-mannosidase 2 (DB02034; DB02318; DB02492; DB02742; DB03008; DB03414; DB03955; DB06984; DB08321)
 OpenBabel12092120333D

  0  0  0     0  0            999 V3000
M  V30 BEGIN CTAB
M  V30 COUNTS 18375 18604 0 0 0
M  V30 BEGIN ATOM
M  V30 1 H -0.908 1.98254 -0.117106 0
M  V30 2 N 0 1.576 0 0
M  V30 3 C 0.933 2.03868 1.02534 0
M  V30 4 C 1.911 0.928543 1.3348 0
M  V30 5 O 3.095 1.19667 1.45644 0
M  V30 6 C 0.222 2.43627 2.35294 0
M  V30 7 C -0.732 3.65373 2.2001 0
M  V30 8 S 0.101 5.13292 1.52614 0
M  V30 9 C 1.257 5.56322 2.86805 0
M  V30 10 H 1.49 2.90518 0.631377 0
M  V30 11 H -0.977 1.52953 0.210867 0
M  V30 12 H 0.981 2.67203 3.11629 0
M  V30 13 H -0.358 1.57376 2.7183 0
M  V30 14 H -1.165 3.90944 3.18086 0
M  V30 15 H -1.563 3.418 1.51819 0
M  V30 16 H 0.729 5.58782 3.83104 0
M  V30 17 H 1.672 6.56266 2.65933 0
M  V30 18 H 2.08 4.83886 2.90714 0
M  V30 19 N 1.4781 -0.272755 1.55222 0
M  V30 20 C 2.4251 -1.33716 1.88119 0
M  V30 21 C 3.3951 -1.49066 0.73271 0
M  V30 22 O 4.5801 -1.63469 0.984002 0
M  V30 23 C 1.7201 -2.69238 2.15882 0
M  V30 24 C 0.8331 -2.62108 3.43399 0
M  V30 25 C -0.0319 -3.89811 3.60861 0
M  V30 26 C -0.9929 -3.77193 4.8207 0
M  V30 27 N -1.8559 -4.9673 4.96189 0
M  V30 28 H 2.9841 -1.04962 2.78903 0
M  V30 29 H 0.5211 -0.507088 1.38083 0
M  V30 30 H 2.4791 -3.48089 2.29978 0
M  V30 31 H 1.1091 -2.96194 1.28331 0
M  V30 32 H 0.1611 -1.74967 3.37773 0
M  V30 33 H 1.4731 -2.48685 4.32386 0
M  V30 34 H 0.6271 -4.77103 3.74777 0
M  V30 35 H -0.6339 -4.06102 2.7006 0
M  V30 36 H -1.6289 -2.88284 4.68159 0
M  V30 37 H -0.4039 -3.62421 5.74307 0
M  V30 38 H -2.4579 -5.13431 4.08319 0
M  V30 39 H -2.5409 -4.85839 5.79221 0
M  V30 40 H -1.2729 -5.85594 5.1449 0
M  V30 41 N 2.9562 -1.48159 -0.537278 0
M  V30 42 C 3.8862 -1.65029 -1.6519 0
M  V30 43 C 4.8672 -0.499281 -1.62607 0
M  V30 44 O 6.0522 -0.730972 -1.79918 0
M  V30 45 C 3.1822 -1.68303 -3.03795 0
M  V30 46 C 2.1362 -2.8283 -3.21234 0
M  V30 47 C 1.4622 -2.71189 -4.60826 0
M  V30 48 C 2.7622 -4.24211 -3.04701 0
M  V30 49 H 4.4562 -2.58341 -1.51328 0
M  V30 50 H 2.0022 -1.24325 -0.726585 0
M  V30 51 H 3.9552 -1.78693 -3.81637 0
M  V30 52 H 2.6792 -0.715635 -3.18663 0
M  V30 53 H 1.3382 -2.71983 -2.45807 0
M  V30 54 H 0.9862 -1.72435 -4.7252 0
M  V30 55 H 0.6862 -3.48035 -4.7344 0
M  V30 56 H 2.2102 -2.83537 -5.40777 0
M  V30 57 H 3.6242 -4.3593 -3.72341 0
M  V30 58 H 2.0212 -5.01998 -3.28813 0
M  V30 59 H 3.0912 -4.41184 -2.01209 0
M  V30 60 N 4.4343 0.785586 -1.36625 0
M  V30 61 C 5.6593 1.57963 -1.34397 0
M  V30 62 C 6.0843 1.87964 0.071526 0
M  V30 63 O 5.4423 1.48182 1.0446 0
M  V30 64 C 5.4903 2.87511 -2.17646 0
M  V30 65 O 4.5943 3.81281 -1.57158 0
M  V30 66 H 3.9353 0.479014 -0.459828 0
M  V30 67 H 6.4653 0.973411 -1.79961 0
M  V30 68 H 6.4753 3.36745 -2.30362 0
M  V30 69 H 5.1503 2.65002 -3.20541 0
M  V30 70 H 3.7273 3.39885 -1.53403 0
M  V30 71 N 5.9124 1.20967 1.01018 0
M  V30 72 C 7.3284 0.965905 1.27053 0
M  V30 73 C 7.5284 -0.350785 1.98423 0
M  V30 74 O 6.5844 -1.07773 2.28344 0
M  V30 75 C 7.8974 2.15294 2.09926 0
M  V30 76 C 9.4454 2.19463 2.23171 0
M  V30 77 C 9.9204 3.3767 3.09424 0
M  V30 78 N 11.4114 3.37724 3.17012 0
M  V30 79 C 12.1464 4.25837 3.83993 0
M  V30 80 N 11.6424 5.24138 4.53047 0
M  V30 81 N 13.4354 4.1366 3.80581 0
M  V30 82 H 5.5864 2.0565 0.531194 0
M  V30 83 H 7.8494 0.90024 0.297106 0
M  V30 84 H 7.5554 3.10684 1.64828 0
M  V30 85 H 7.4294 2.13923 3.10672 0
M  V30 86 H 9.8164 1.24632 2.6749 0
M  V30 87 H 9.8974 2.2488 1.21912 0
M  V30 88 H 9.5414 4.32791 2.65808 0
M  V30 89 H 9.4714 3.29491 4.10784 0
M  V30 90 H 11.9624 2.6658 2.6785 0
M  V30 91 H 12.2754 5.87684 5.01844 0
M  V30 92 H 10.6204 5.28068 4.5185 0
M  V30 93 H 13.8114 3.36127 3.25785 0
M  V30 94 H 13.9844 4.82538 4.32505 0
M  V30 95 N 7.3905 -1.2043 1.01659 0
M  V30 96 C 8.3225 -2.22626 0.544988 0
M  V30 97 C 9.3355 -1.58479 -0.372609 0
M  V30 98 O 10.5245 -1.77679 -0.170958 0
M  V30 99 C 7.6245 -3.38141 -0.22663 0
M  V30 100 C 6.7975 -4.31877 0.692876 0
M  V30 101 C 5.8565 -5.26191 -0.0311616 0
M  V30 102 O 4.8825 -5.6612 0.591343 0
M  V30 103 N 6.0845 -5.65618 -1.30601 0
M  V30 104 H 8.8495 -2.63716 1.42388 0
M  V30 105 H 6.4105 -1.34971 0.894116 0
M  V30 106 H 8.4025 -3.98239 -0.72024 0
M  V30 107 H 6.9725 -2.95943 -1.00681 0
M  V30 108 H 6.1925 -3.69746 1.36679 0
M  V30 109 H 7.4805 -4.91426 1.31824 0
M  V30 110 H 6.8785 -5.3519 -1.83269 0
M  V30 111 H 5.4355 -6.28025 -1.74435 0
M  V30 112 N 8.8686 -0.792821 -1.36206 0
M  V30 113 C 10.1156 -0.366786 -1.99151 0
M  V30 114 C 10.4436 1.06243 -1.62919 0
M  V30 115 O 9.6986 1.74927 -0.877442 0
M  V30 116 C 9.9976 -0.481501 -3.54142 0
M  V30 117 C 9.6636 -1.87202 -4.10203 0
M  V30 118 C 8.3256 -2.25248 -4.25226 0
M  V30 119 C 10.6776 -2.78237 -4.40719 0
M  V30 120 C 8.0056 -3.53723 -4.68078 0
M  V30 121 C 10.3576 -4.06144 -4.85005 0
M  V30 122 C 9.0216 -4.44207 -4.98234 0
M  V30 123 H 8.2916 -0.134217 -0.728743 0
M  V30 124 H 10.9386 -1.01094 -1.62641 0
M  V30 125 H 9.2436 0.246146 -3.91026 0
M  V30 126 H 10.9406 -0.132844 -4.0078 0
M  V30 127 H 7.5306 -1.56639 -3.98951 0
M  V30 128 H 11.7146 -2.50097 -4.28679 0
M  V30 129 H 6.9706 -3.8308 -4.76508 0
M  V30 130 H 11.1446 -4.76796 -5.07581 0
M  V30 131 H 8.7716 -5.43814 -5.31197 0
M  V30 132 N 10.3467 1.47872 -0.545128 0
M  V30 133 C 11.5747 2.06889 -0.021084 0
M  V30 134 C 11.9897 1.39955 1.2672 0
M  V30 135 O 11.3467 0.492036 1.75742 0
M  V30 136 C 11.3977 3.60996 0.190817 0
M  V30 137 O 11.1187 4.25419 -1.04644 0
M  V30 138 C 12.6197 4.36849 0.753521 0
M  V30 139 H 9.8397 0.669785 -0.0403635 0
M  V30 140 H 12.3837 1.90049 -0.755095 0
M  V30 141 H 10.5387 3.77391 0.87492 0
M  V30 142 H 10.9527 5.17785 -0.836611 0
M  V30 143 H 12.4267 5.45399 0.851139 0
M  V30 144 H 12.9037 4.02306 1.762 0
M  V30 145 H 13.5097 4.25169 0.105503 0
M  V30 146 N 11.8248 0.280983 1.55075 0
M  V30 147 C 13.0708 -0.33461 2.00021 0
M  V30 148 C 13.4038 -1.55063 1.16915 0
M  V30 149 O 12.6788 -1.93006 0.240646 0
M  V30 150 C 12.9618 -0.711007 3.53011 0
M  V30 151 C 12.8148 0.512766 4.46868 0
M  V30 152 C 14.1338 -1.54522 4.12081 0
M  V30 153 H 11.2528 -0.120147 0.727141 0
M  V30 154 H 13.8948 0.389097 1.85973 0
M  V30 155 H 12.0448 -1.32761 3.65112 0
M  V30 156 H 13.7168 1.15131 4.46702 0
M  V30 157 H 11.9598 1.14975 4.18286 0
M  V30 158 H 12.6308 0.205556 5.51617 0
M  V30 159 H 15.1068 -1.02442 4.03293 0
M  V30 160 H 13.9828 -1.77739 5.19327 0
M  V30 161 H 14.2438 -2.52813 3.62682 0
M  V30 162 N 13.3029 -1.57598 0.00835791 0
M  V30 163 C 14.5499 -1.90928 -0.674732 0
M  V30 164 C 14.8779 -0.88277 -1.73313 0
M  V30 165 O 14.1329 0.111294 -1.95383 0
M  V30 166 C 14.4319 -3.3101 -1.34787 0
M  V30 167 C 14.0979 -4.48922 -0.421861 0
M  V30 168 C 12.7599 -4.8091 -0.166927 0
M  V30 169 C 15.1119 -5.20755 0.215211 0
M  V30 170 C 12.4399 -5.821 0.733232 0
M  V30 171 C 14.7919 -6.22905 1.1033 0
M  V30 172 C 13.4559 -6.53346 1.36733 0
M  V30 173 H 12.7259 -0.698656 -0.246902 0
M  V30 174 H 15.3729 -1.91387 0.0656779 0
M  V30 175 H 13.6779 -3.26714 -2.16253 0
M  V30 176 H 15.3749 -3.54061 -1.8826 0
M  V30 177 H 11.9649 -4.23934 -0.630729 0
M  V30 178 H 16.1489 -4.9629 0.0312829 0
M  V30 179 H 11.4049 -6.04042 0.945712 0
M  V30 180 H 15.5789 -6.77694 1.60325 0
M  V30 181 H 13.2059 -7.31573 2.06652 0
M  V30 182 N 14.781 0.264519 -1.55364 0
M  V30 183 C 16.029 0.993021 -1.76021 0
M  V30 184 C 16.35 1.86511 -0.569099 0
M  V30 185 O 15.62 1.91438 0.415735 0
M  V30 186 H 14.2 0.369639 -0.649135 0
M  V30 187 H 16.862 0.286707 -1.9278 0
M  V30 188 H 15.958 1.62502 -2.66457 0
M  V30 189 N 16.2591 1.48442 0.529413 0
M  V30 190 C 17.4841 1.60406 1.31471 0
M  V30 191 C 17.9091 0.264738 1.86228 0
M  V30 192 O 17.2671 -0.763668 1.64432 0
M  V30 193 C 17.3151 2.65419 2.44101 0
M  V30 194 O 16.4191 2.22618 3.47153 0
M  V30 195 H 15.7601 0.537863 0.389357 0
M  V30 196 H 18.2901 1.94432 0.636965 0
M  V30 197 H 18.3001 2.86709 2.90279 0
M  V30 198 H 16.9751 3.62652 2.03608 0
M  V30 199 H 15.5521 2.11543 3.0709 0
M  V30 200 N 17.7372 -0.778329 1.37039 0
M  V30 201 C 18.7002 -1.87301 1.32102 0
M  V30 202 C 19.7002 -1.59198 0.226405 0
M  V30 203 O 20.8902 -1.67403 0.481861 0
M  V30 204 C 18.0222 -3.24309 1.05055 0
M  V30 205 H 19.2152 -1.93093 2.29467 0
M  V30 206 H 16.7682 -0.977358 1.21973 0
M  V30 207 H 17.5032 -3.24196 0.0819373 0
M  V30 208 H 17.2882 -3.46098 1.84279 0
M  V30 209 H 18.7782 -4.04382 1.04234 0
M  V30 210 N 19.2153 -1.21501 -1.00376 0
M  V30 211 C 20.4643 -1.02718 -1.73586 0
M  V30 212 C 20.7773 0.439589 -1.90596 0
M  V30 213 O 21.9833 0.746848 -2.61026 0
M  V30 214 C 20.4393 -1.78929 -3.1227 0
M  V30 215 C 20.0473 -3.29783 -3.03228 0
M  V30 216 C 21.7913 -1.68557 -3.89601 0
M  V30 217 C 19.6983 -3.98479 -4.36999 0
M  V30 218 H 18.6283 -0.380733 -0.650814 0
M  V30 219 H 21.2793 -1.45248 -1.1214 0
M  V30 220 H 19.6613 -1.29192 -3.74333 0
M  V30 221 H 20.8353 -3.86832 -2.50395 0
M  V30 222 H 19.1503 -3.40711 -2.39385 0
M  V30 223 H 21.7473 -2.17211 -4.88593 0
M  V30 224 H 22.0903 -0.644021 -4.11288 0
M  V30 225 H 22.6233 -2.15778 -3.34193 0
M  V30 226 H 19.3623 -5.02841 -4.20513 0
M  V30 227 H 18.8823 -3.46219 -4.89788 0
M  V30 228 H 20.5613 -4.03462 -5.05794 0
M  V30 229 N 20.6934 1.19889 -1.02296 0
M  V30 230 C 21.9404 1.8942 -0.715972 0
M  V30 231 C 22.2684 1.79251 0.754944 0
M  V30 232 O 21.5234 1.17526 1.56481 0
M  V30 233 C 21.8224 3.39883 -1.10518 0
M  V30 234 C 21.4884 3.70254 -2.57337 0
M  V30 235 C 20.1504 3.78254 -2.97452 0
M  V30 236 C 22.5024 3.84052 -3.52354 0
M  V30 237 C 19.8304 3.97514 -4.31509 0
M  V30 238 C 22.1824 4.04824 -4.86108 0
M  V30 239 C 20.8464 4.11054 -5.25919 0
M  V30 240 H 20.1164 0.693138 -0.261993 0
M  V30 241 H 22.7634 1.42012 -1.28472 0
M  V30 242 H 21.0684 3.8915 -0.454953 0
M  V30 243 H 22.7654 3.9199 -0.845261 0
M  V30 244 H 19.3554 3.64632 -2.25258 0
M  V30 245 H 23.5394 3.77221 -3.22518 0
M  V30 246 H 18.7954 4.00574 -4.61898 0
M  V30 247 H 22.9694 4.14442 -5.59653 0
M  V30 248 H 20.5964 4.2573 -6.29808 0
M  V30 249 N 22.1715 0.800033 1.35784 0
M  V30 250 C 23.4115 0.382891 2.00782 0
M  V30 251 C 23.7755 -1.02891 1.62103 0
M  V30 252 O 24.9765 -1.54771 2.19771 0
M  V30 253 C 23.2475 0.553299 3.53091 0
M  V30 254 S 24.8065 0.225608 4.3822 0
M  V30 255 H 21.6245 0.145737 0.695904 0
M  V30 256 H 24.2265 1.04085 1.65489 0
M  V30 257 H 22.9305 1.58091 3.78729 0
M  V30 258 H 22.4615 -0.120214 3.93216 0
M  V30 259 H 24.4765 -0.969074 4.86645 0
M  V30 260 N 23.6496 -1.47581 0.552962 0
M  V30 261 C 24.8956 -2.02782 0.0273648 0
M  V30 262 C 25.2286 -1.42687 -1.31734 0
M  V30 263 O 24.5036 -0.580897 -1.85623 0
M  V30 264 C 24.7866 -3.60031 -0.0702371 0
M  V30 265 C 24.6396 -4.30566 1.30126 0
M  V30 266 C 25.9586 -4.33028 -0.785771 0
M  V30 267 H 23.0776 -0.736912 0.0114185 0
M  V30 268 H 25.7196 -1.76056 0.714432 0
M  V30 269 H 23.8696 -3.82932 -0.655382 0
M  V30 270 H 25.5416 -4.19018 1.92929 0
M  V30 271 H 23.7846 -3.91086 1.87709 0
M  V30 272 H 24.4556 -5.39114 1.18573 0
M  V30 273 H 26.9316 -4.15095 -0.288982 0
M  V30 274 H 25.8076 -5.42695 -0.823013 0
M  V30 275 H 26.0686 -4.01945 -1.841 0
M  V30 276 N 25.1277 -0.289203 -1.54924 0
M  V30 277 C 26.3737 0.323998 -2.00195 0
M  V30 278 C 26.7067 1.54441 -1.17735 0
M  V30 279 O 25.9817 1.92875 -0.250878 0
M  V30 280 C 26.2647 0.692276 -3.53383 0
M  V30 281 C 26.1177 -0.536457 -4.46589 0
M  V30 282 C 27.4367 1.52335 -4.12895 0
M  V30 283 H 24.5557 0.116289 -0.727768 0
M  V30 284 H 27.1977 -0.398954 -1.85764 0
M  V30 285 H 25.3477 1.30822 -3.65811 0
M  V30 286 H 27.0197 -1.17499 -4.46085 0
M  V30 287 H 25.2627 -1.17192 -4.1767 0
M  V30 288 H 25.9337 -0.234806 -5.515 0
M  V30 289 H 28.4097 1.00302 -4.0383 0
M  V30 290 H 27.2857 1.74982 -5.20262 0
M  V30 291 H 27.5467 2.50886 -3.64018 0
M  V30 292 N 26.6058 1.57591 -0.0167156 0
M  V30 293 C 27.8548 1.90461 0.663877 0
M  V30 294 C 28.1678 0.893515 1.73999 0
M  V30 295 O 29.3738 1.11302 2.47637 0
M  V30 296 C 27.8298 3.38155 1.23204 0
M  V30 297 C 27.4378 4.47597 0.189866 0
M  V30 298 C 29.1818 3.80111 1.88986 0
M  V30 299 C 27.0888 5.86379 0.768964 0
M  V30 300 H 26.0188 0.710738 0.251729 0
M  V30 301 H 28.6698 1.83326 -0.0799926 0
M  V30 302 H 27.0518 3.40182 2.02712 0
M  V30 303 H 28.2258 4.57112 -0.581846 0
M  V30 304 H 26.5408 4.14766 -0.368475 0
M  V30 305 H 29.1378 4.81145 2.33247 0
M  V30 306 H 29.4808 3.14511 2.72743 0
M  V30 307 H 30.0138 3.80454 1.16187 0
M  V30 308 H 26.7528 6.55493 -0.0301957 0
M  V30 309 H 26.2728 5.80496 1.50945 0
M  V30 310 H 27.9518 6.34563 1.26251 0
M  V30 311 N 28.0839 -0.256276 1.55502 0
M  V30 312 C 29.3309 -0.985619 1.76895 0
M  V30 313 C 29.6589 -1.85671 0.579355 0
M  V30 314 O 28.9139 -1.90744 -0.437651 0
M  V30 315 C 29.2129 -1.88432 3.03691 0
M  V30 316 C 28.8789 -1.16936 4.35473 0
M  V30 317 C 27.5409 -0.97173 4.71286 0
M  V30 318 C 29.8929 -0.661889 5.1698 0
M  V30 319 C 27.2209 -0.254179 5.86149 0
M  V30 320 C 29.5729 0.042149 6.32586 0
M  V30 321 C 28.2369 0.25134 6.67027 0
M  V30 322 H 27.5069 -0.360663 0.647304 0
M  V30 323 H 30.1539 -0.256483 1.89775 0
M  V30 324 H 28.4589 -2.68021 2.85783 0
M  V30 325 H 30.1559 -2.45015 3.1744 0
M  V30 326 H 26.7459 -1.33332 4.07333 0
M  V30 327 H 30.9299 -0.802145 4.89775 0
M  V30 328 H 26.1859 -0.0815408 6.11346 0
M  V30 329 H 30.3599 0.443049 6.94989 0
M  V30 330 H 27.9869 0.809314 7.5588 0
M  V30 331 N 29.562 -1.4872 -0.521534 0
M  V30 332 C 30.787 -1.61101 -1.30618 0
M  V30 333 C 31.212 -0.274611 -1.86085 0
M  V30 334 O 30.57 0.754937 -1.64834 0
M  V30 335 C 30.618 -2.66709 -2.4269 0
M  V30 336 O 29.722 -2.24456 -3.45967 0
M  V30 337 H 29.063 -0.539921 -0.386499 0
M  V30 338 H 31.593 -1.94767 -0.626645 0
M  V30 339 H 31.603 -2.88245 -2.88754 0
M  V30 340 H 30.278 -3.63727 -2.01682 0
M  V30 341 H 28.855 -2.13168 -3.05964 0
M  V30 342 N 31.0401 0.771051 -1.3745 0
M  V30 343 C 31.9701 1.89827 -1.3597 0
M  V30 344 C 32.9511 1.68562 -0.228216 0
M  V30 345 O 34.1361 1.8941 -0.428675 0
M  V30 346 C 31.2661 3.2712 -1.16662 0
M  V30 347 C 30.2201 3.6295 -2.2683 0
M  V30 348 C 29.5461 4.98791 -1.92644 0
M  V30 349 C 30.8461 3.69627 -3.69017 0
M  V30 350 H 32.5401 1.91323 -2.30295 0
M  V30 351 H 30.0861 0.919082 -1.10855 0
M  V30 352 H 32.0391 4.05615 -1.14256 0
M  V30 353 H 30.7631 3.26059 -0.187926 0
M  V30 354 H 29.4221 2.86763 -2.28392 0
M  V30 355 H 29.0701 4.94271 -0.933021 0
M  V30 356 H 28.7701 5.23733 -2.66416 0
M  V30 357 H 30.2941 5.79685 -1.91826 0
M  V30 358 H 31.7081 4.38273 -3.69581 0
M  V30 359 H 30.1051 4.06067 -4.41848 0
M  V30 360 H 31.1751 2.70273 -4.02592 0
M  V30 361 N 32.5182 1.22032 0.997298 0
M  V30 362 C 33.7482 1.06686 1.76923 0
M  V30 363 C 34.1562 -0.385838 1.85224 0
M  V30 364 O 33.4992 -1.27929 1.31833 0
M  V30 365 C 33.5612 1.59802 3.22031 0
M  V30 366 C 33.2252 3.08362 3.37286 0
M  V30 367 C 34.2222 4.05835 3.24952 0
M  V30 368 C 31.9072 3.47727 3.6248 0
M  V30 369 C 33.9012 5.4066 3.37588 0
M  V30 370 C 31.5882 4.82701 3.74757 0
M  V30 371 C 32.5862 5.78977 3.62319 0
M  V30 372 O 32.2742 7.11502 3.74193 0
M  V30 373 H 32.0062 0.374767 0.562606 0
M  V30 374 H 34.5602 1.61991 1.26286 0
M  V30 375 H 32.7902 0.989003 3.73839 0
M  V30 376 H 34.4792 1.40184 3.80924 0
M  V30 377 H 35.2452 3.76766 3.05405 0
M  V30 378 H 31.1242 2.73317 3.7124 0
M  V30 379 H 34.6682 6.15788 3.27796 0
M  V30 380 H 30.5652 5.11453 3.9381 0
M  V30 381 H 31.3332 7.19019 3.91093 0
M  V30 382 N 33.9963 -1.19345 1.0293 0
M  V30 383 C 34.9263 -2.2481 0.631105 0
M  V30 384 C 35.9073 -1.66245 -0.360104 0
M  V30 385 O 37.0923 -1.92677 -0.242726 0
M  V30 386 C 34.2223 -3.47295 -0.0184607 0
M  V30 387 C 33.1763 -4.18536 0.895073 0
M  V30 388 C 32.5023 -5.34586 0.110592 0
M  V30 389 C 33.8023 -4.73287 2.209 0
M  V30 390 H 35.4963 -2.58372 1.51275 0
M  V30 391 H 33.0423 -1.24194 0.728818 0
M  V30 392 H 34.9953 -4.20268 -0.308675 0
M  V30 393 H 33.7193 -3.12933 -0.934907 0
M  V30 394 H 32.3783 -3.47446 1.16949 0
M  V30 395 H 32.0263 -4.96469 -0.807902 0
M  V30 396 H 31.7263 -5.83183 0.719087 0
M  V30 397 H 33.2503 -6.10355 -0.172871 0
M  V30 398 H 34.6643 -5.38013 1.98028 0
M  V30 399 H 33.0613 -5.32373 2.76946 0
M  V30 400 H 34.1313 -3.91331 2.86336 0
M  V30 401 N 35.4744 -0.807222 -1.35358 0
M  V30 402 C 36.4074 -0.163572 -2.27613 0
M  V30 403 C 37.3854 0.670817 -1.48118 0
M  V30 404 O 38.5694 0.63796 -1.77376 0
M  V30 405 C 35.6964 0.773015 -3.29761 0
M  V30 406 C 34.7424 0.0181653 -4.26496 0
M  V30 407 S 35.5754 -1.31831 -5.19019 0
M  V30 408 C 36.7314 -0.38619 -6.24707 0
M  V30 409 H 36.9644 -0.945757 -2.81856 0
M  V30 410 H 34.4974 -0.602315 -1.42167 0
M  V30 411 H 36.4554 1.30788 -3.89108 0
M  V30 412 H 35.1164 1.52859 -2.74396 0
M  V30 413 H 34.3094 0.729534 -4.98692 0
M  V30 414 H 33.9114 -0.446761 -3.71322 0
M  V30 415 H 36.2034 0.428295 -6.76145 0
M  V30 416 H 37.1464 -1.07736 -6.99856 0
M  V30 417 H 37.5544 0.018398 -5.64497 0
M  V30 418 N 36.9525 1.47285 -0.560781 0
M  V30 419 C 37.8825 2.32857 0.173105 0
M  V30 420 C 38.8635 1.44009 0.905281 0
M  V30 421 O 40.0485 1.7286 0.885046 0
M  V30 422 C 37.1785 3.25861 1.20133 0
M  V30 423 C 36.1325 4.23978 0.585388 0
M  V30 424 C 35.4585 5.06332 1.7185 0
M  V30 425 C 36.7585 5.20242 -0.463178 0
M  V30 426 H 38.4525 2.94466 -0.541307 0
M  V30 427 H 35.9985 1.41601 -0.261764 0
M  V30 428 H 37.9515 3.84569 1.72293 0
M  V30 429 H 36.6755 2.62315 1.94573 0
M  V30 430 H 35.3345 3.66501 0.085054 0
M  V30 431 H 34.9825 4.39186 2.45203 0
M  V30 432 H 34.6825 5.72762 1.31213 0
M  V30 433 H 36.2065 5.67899 2.24329 0
M  V30 434 H 37.6205 5.73293 -0.027502 0
M  V30 435 H 36.0175 5.94896 -0.788627 0
M  V30 436 H 37.0875 4.65504 -1.35773 0
M  V30 437 N 38.4306 0.297415 1.54768 0
M  V30 438 C 39.7076 -0.365847 1.92148 0
M  V30 439 C 40.0876 -1.71975 1.22424 0
M  V30 440 O 39.4356 -2.25666 0.358739 0
M  V30 441 C 39.6456 -0.484056 3.45627 0
M  V30 442 C 40.9936 -0.756594 4.17805 0
M  V30 443 O 42.0176 -0.568007 3.51642 0
M  V30 444 O 40.8766 -1.11863 5.34929 0
M  V30 445 H 37.9706 -0.203919 0.801465 0
M  V30 446 H 40.5166 0.34521 1.66152 0
M  V30 447 H 39.2886 0.467865 3.88493 0
M  V30 448 H 38.9116 -1.24372 3.77647 0
M  V30 449 N 39.9087 -1.5758 0.0250728 0
M  V30 450 C 41.3247 -1.56124 -0.331282 0
M  V30 451 C 41.5247 -1.03029 -1.73169 0
M  V30 452 O 40.5807 -0.675215 -2.43305 0
M  V30 453 C 41.8937 -3.00139 -0.183584 0
M  V30 454 C 43.4417 -3.11946 -0.256654 0
M  V30 455 C 43.9167 -4.57793 -0.137792 0
M  V30 456 N 45.4077 -4.6279 -0.194904 0
M  V30 457 C 46.1427 -5.7326 -0.126655 0
M  V30 458 N 45.6387 -6.928 -0.00755288 0
M  V30 459 N 47.4317 -5.61811 -0.180348 0
M  V30 460 H 39.5827 -1.90424 0.94087 0
M  V30 461 H 41.8457 -0.875761 0.362968 0
M  V30 462 H 41.5517 -3.4292 0.780927 0
M  V30 463 H 41.4257 -3.64899 -0.955448 0
M  V30 464 H 43.8127 -2.69079 -1.21162 0
M  V30 465 H 43.8937 -2.49915 0.545517 0
M  V30 466 H 43.5377 -5.01339 0.813739 0
M  V30 467 H 43.4677 -5.17798 -0.958775 0
M  V30 468 H 45.9587 -3.76807 -0.287267 0
M  V30 469 H 46.2717 -7.72791 0.0379428 0
M  V30 470 H 44.6167 -6.94995 0.0271731 0
M  V30 471 H 47.8077 -4.6731 -0.271767 0
M  V30 472 H 47.9807 -6.47882 -0.123697 0
M  V30 473 N 41.3868 0.248026 -1.55636 0
M  V30 474 C 42.6348 0.974295 -1.77065 0
M  V30 475 C 42.9558 1.85897 -0.588849 0
M  V30 476 O 42.2258 1.91868 0.395407 0
M  V30 477 H 40.8058 0.362733 -0.653019 0
M  V30 478 H 43.4678 0.266244 -1.93073 0
M  V30 479 H 42.5638 1.59667 -2.68166 0
M  V30 480 N 42.8649 1.48995 0.513639 0
M  V30 481 C 43.8149 1.61127 1.61314 0
M  V30 482 C 44.7989 0.467521 1.53958 0
M  V30 483 O 45.9909 0.719826 1.61702 0
M  V30 484 C 43.1199 1.66937 2.99978 0
M  V30 485 C 42.2059 2.86847 3.12377 0
M  V30 486 N 42.5969 4.11078 2.94701 0
M  V30 487 C 40.8949 2.84521 3.43459 0
M  V30 488 C 41.5959 4.91615 3.10949 0
M  V30 489 N 40.5719 4.24739 3.3926 0
M  V30 490 H 44.3739 2.54909 1.46282 0
M  V30 491 H 41.8879 1.45593 0.719483 0
M  V30 492 H 43.8849 1.73725 3.78979 0
M  V30 493 H 42.5449 0.742831 3.16089 0
M  V30 494 H 43.5559 4.41258 2.71131 0
M  V30 495 H 40.2329 2.01192 3.65825 0
M  V30 496 H 41.6229 6.00264 3.01882 0
M  V30 497 N 44.343 -0.763751 1.37857 0
M  V30 498 C 45.273 -1.89103 1.36975 0
M  V30 499 C 46.254 -1.68439 0.237152 0
M  V30 500 O 47.439 -1.8918 0.438713 0
M  V30 501 C 44.569 -3.26496 1.18395 0
M  V30 502 C 43.523 -3.61741 2.28751 0
M  V30 503 C 42.849 -4.97762 1.95286 0
M  V30 504 C 44.149 -3.67665 3.70972 0
M  V30 505 H 45.843 -1.90099 2.31307 0
M  V30 506 H 43.389 -0.91319 1.11341 0
M  V30 507 H 45.342 -4.05003 1.16406 0
M  V30 508 H 44.066 -3.25955 0.205215 0
M  V30 509 H 42.725 -2.85547 2.29909 0
M  V30 510 H 42.373 -4.93769 0.959221 0
M  V30 511 H 42.073 -5.22313 2.69189 0
M  V30 512 H 43.597 -5.7866 1.94898 0
M  V30 513 H 45.011 -4.36307 3.719 0
M  V30 514 H 43.408 -4.03718 4.43995 0
M  V30 515 H 44.478 -2.68134 4.0402 0
M  V30 516 N 45.8211 -1.22559 -0.990812 0
M  V30 517 C 47.0981 -0.959875 -1.70428 0
M  V30 518 C 47.4781 0.524455 -2.04481 0
M  V30 519 O 46.8261 1.49302 -1.72977 0
M  V30 520 C 47.0361 -1.85955 -2.95333 0
M  V30 521 C 48.3841 -2.11687 -3.68068 0
M  V30 522 O 49.4081 -1.8342 -3.05345 0
M  V30 523 O 48.2671 -2.59572 -4.80921 0
M  V30 524 H 45.3611 -0.361154 -0.743974 0
M  V30 525 H 47.9071 -1.33554 -1.04697 0
M  V30 526 H 46.6791 -2.86346 -2.66687 0
M  V30 527 H 46.3021 -1.4856 -3.68803 0
M  V30 528 N 47.2992 1.18797 -1.03562 0
M  V30 529 C 48.5292 1.92319 -0.754773 0
M  V30 530 C 48.9372 1.7612 0.691248 0
M  V30 531 O 48.2802 1.08491 1.48241 0
M  V30 532 C 48.3422 3.44284 -1.03484 0
M  V30 533 C 48.0062 3.84258 -2.47376 0
M  V30 534 C 49.0032 3.88459 -3.45537 0
M  V30 535 C 46.6882 4.15701 -2.81954 0
M  V30 536 C 48.6822 4.23545 -4.76328 0
M  V30 537 C 46.3692 4.50458 -4.12954 0
M  V30 538 C 47.3672 4.54356 -5.09951 0
M  V30 539 O 47.0552 4.88305 -6.38603 0
M  V30 540 H 46.7872 0.617527 -0.275021 0
M  V30 541 H 49.3412 1.51683 -1.38497 0
M  V30 542 H 47.5712 3.85135 -0.347513 0
M  V30 543 H 49.2602 3.99049 -0.7426 0
M  V30 544 H 50.0262 3.6431 -3.20162 0
M  V30 545 H 45.9052 4.11847 -2.0713 0
M  V30 546 H 49.4492 4.26502 -5.52035 0
M  V30 547 H 45.3462 4.74067 -4.38099 0
M  V30 548 H 46.1142 5.06227 -6.43177 0
M  V30 549 N 48.7773 0.814389 1.34928 0
M  V30 550 C 50.1883 0.458364 1.80986 0
M  V30 551 C 50.5393 -1.02042 1.67577 0
M  V30 552 O 49.6643 -1.79352 1.21086 0
M  V30 553 C 50.2593 0.825212 3.28597 0
M  V30 554 C 48.8183 0.521677 3.72767 0
M  V30 555 C 47.9653 1.04668 2.56788 0
M  V30 556 H 50.9163 1.00533 1.22795 0
M  V30 557 H 50.9373 0.12571 3.80292 0
M  V30 558 H 50.4493 1.90154 3.38324 0
M  V30 559 H 48.5503 -0.545589 3.68584 0
M  V30 560 H 48.6633 1.05977 4.67232 0
M  V30 561 H 47.0273 0.468622 2.50352 0
M  V30 562 H 47.8103 2.12927 2.6929 0
M  V30 563 N 50.2554 -1.46986 0.568584 0
M  V30 564 C 51.6714 -1.57946 0.229189 0
M  V30 565 C 51.8714 -1.56567 -1.26843 0
M  V30 566 O 50.9274 -1.47511 -2.04931 0
M  V30 567 C 52.2404 -2.87963 0.865909 0
M  V30 568 C 53.7884 -3.01568 0.838188 0
M  V30 569 C 54.2634 -4.34301 1.45419 0
M  V30 570 N 55.7544 -4.40965 1.41788 0
M  V30 571 C 56.4894 -5.42256 1.86403 0
M  V30 572 N 55.9854 -6.50297 2.38926 0
M  V30 573 N 57.7784 -5.3337 1.77405 0
M  V30 574 H 49.9294 -1.46126 1.54146 0
M  V30 575 H 52.1924 -0.696156 0.643484 0
M  V30 576 H 51.8984 -2.94742 1.91886 0
M  V30 577 H 51.7724 -3.75423 0.365687 0
M  V30 578 H 54.1594 -2.94379 -0.206106 0
M  V30 579 H 54.2404 -2.1562 1.37629 0
M  V30 580 H 53.8844 -4.42247 2.49761 0
M  V30 581 H 53.8144 -5.19 0.891435 0
M  V30 582 H 56.3054 -3.63484 1.03381 0
M  V30 583 H 56.6184 -7.23777 2.70863 0
M  V30 584 H 54.9634 -6.51155 2.42944 0
M  V30 585 H 58.1544 -4.47865 1.3614 0
M  V30 586 H 58.3274 -6.12169 2.12492 0
M  V30 587 N 51.7335 -0.305618 -1.54608 0
M  V30 588 C 52.6815 0.584119 -2.25146 0
M  V30 589 C 53.6755 1.13326 -1.25911 0
M  V30 590 O 54.8815 1.08337 -1.43747 0
M  V30 591 H 51.2565 0.206983 -0.722954 0
M  V30 592 H 53.2275 -0.033291 -2.98381 0
M  V30 593 C 51.9765 1.74225 -3.009 0
M  V30 594 H 51.2995 1.32892 -3.77067 0
M  V30 595 H 52.7395 2.34077 -3.53531 0
M  V30 596 C 51.1985 2.64914 -2.0814 0
M  V30 597 O 51.7285 3.66137 -1.65246 0
M  V30 598 N 49.9345 2.3275 -1.74 0
M  V30 599 H 49.4815 1.50479 -2.09078 0
M  V30 600 H 49.4395 2.93694 -1.12211 0
M  V30 601 N 53.2116 1.57565 -0.0334293 0
M  V30 602 C 54.6226 1.79746 0.504798 0
M  V30 603 C 54.9736 0.944091 1.71992 0
M  V30 604 O 54.0986 0.155694 2.15839 0
M  V30 605 C 54.6936 3.25997 0.922567 0
M  V30 606 C 53.2526 3.49159 1.40588 0
M  V30 607 C 52.3996 2.74785 0.372633 0
M  V30 608 H 55.3506 1.56565 -0.259436 0
M  V30 609 H 55.3716 3.35945 1.78666 0
M  V30 610 H 54.8836 3.88081 0.0379825 0
M  V30 611 H 52.9846 2.92332 2.31025 0
M  V30 612 H 53.0976 4.57873 1.41028 0
M  V30 613 H 51.4616 2.40391 0.841672 0
M  V30 614 H 52.2446 3.39587 -0.503559 0
M  V30 615 N 54.6897 -0.239769 1.55765 0
M  V30 616 C 56.1057 -0.588624 1.48349 0
M  V30 617 C 56.3057 -1.88005 0.72502 0
M  V30 618 O 55.3617 -2.51186 0.257269 0
M  V30 619 C 56.6747 -0.68474 2.928 0
M  V30 620 C 58.2227 -0.77659 3.03213 0
M  V30 621 C 58.6977 -0.904207 4.48986 0
M  V30 622 N 60.1887 -0.968896 4.52953 0
M  V30 623 C 60.9237 -1.08703 5.63002 0
M  V30 624 N 60.4197 -1.17026 6.82845 0
M  V30 625 N 62.2127 -1.12074 5.50814 0
M  V30 626 H 54.3637 0.607911 2.03515 0
M  V30 627 H 56.6267 0.21083 0.924259 0
M  V30 628 H 56.3327 0.194284 3.51163 0
M  V30 629 H 56.2067 -1.55435 3.43686 0
M  V30 630 H 58.5937 -1.64606 2.44926 0
M  V30 631 H 58.6747 0.118315 2.55526 0
M  V30 632 H 58.3187 -0.0392633 5.07885 0
M  V30 633 H 58.2487 -1.81426 4.9436 0
M  V30 634 H 60.7397 -0.915633 3.6664 0
M  V30 635 H 61.0527 -1.25966 7.62465 0
M  V30 636 H 59.3977 -1.13971 6.85591 0
M  V30 637 H 62.5887 -1.05226 4.5612 0
M  V30 638 H 62.7617 -1.20936 6.36615 0
M  V30 639 N 56.1678 -1.49265 -0.50573 0
M  V30 640 C 57.5838 -1.35923 -0.836486 0
M  V30 641 C 57.7838 -0.388704 -1.97715 0
M  V30 642 O 56.8398 0.181336 -2.51848 0
M  V30 643 C 58.1528 -2.76531 -1.18115 0
M  V30 644 C 59.7008 -2.85197 -1.28964 0
M  V30 645 C 60.1758 -4.26561 -1.66761 0
M  V30 646 N 61.6668 -4.2935 -1.73819 0
M  V30 647 C 62.4018 -5.35693 -2.045 0
M  V30 648 N 61.8978 -6.52287 -2.33438 0
M  V30 649 N 63.6908 -5.23105 -2.05711 0
M  V30 650 H 55.8418 -2.10965 0.246519 0
M  V30 651 H 58.1048 -0.9468 0.0476887 0
M  V30 652 H 57.8108 -3.49226 -0.416398 0
M  V30 653 H 57.6848 -3.11599 -2.1257 0
M  V30 654 H 60.0718 -2.12742 -2.04511 0
M  V30 655 H 60.1528 -2.53718 -0.325704 0
M  V30 656 H 59.7968 -4.99541 -0.917656 0
M  V30 657 H 59.7268 -4.55502 -2.64246 0
M  V30 658 H 62.2178 -3.4526 -1.53635 0
M  V30 659 H 62.5308 -7.29158 -2.56024 0
M  V30 660 H 60.8758 -6.55521 -2.30905 0
M  V30 661 H 64.0668 -4.31026 -1.82577 0
M  V30 662 H 64.2398 -6.06078 -2.29289 0
M  V30 663 N 57.6459 0.756429 -1.3826 0
M  V30 664 C 58.5559 1.9009 -1.37488 0
M  V30 665 C 59.5719 1.71855 -0.272366 0
M  V30 666 O 60.7479 1.94827 -0.510318 0
M  V30 667 C 57.8129 3.25421 -1.19592 0
M  V30 668 C 56.8739 3.56202 -2.39622 0
M  V30 669 C 56.1069 4.85075 -2.2257 0
M  V30 670 O 56.3299 5.57246 -1.21793 0
M  V30 671 O 55.2639 5.15269 -3.11098 0
M  V30 672 H 59.0899 1.93695 -2.33914 0
M  V30 673 H 56.6749 0.901313 -1.1915 0
M  V30 674 H 58.5569 4.06337 -1.11661 0
M  V30 675 H 57.2319 3.22634 -0.262486 0
M  V30 676 H 56.1389 2.75458 -2.53128 0
M  V30 677 H 57.4719 3.63747 -3.31586 0
M  V30 678 N 59.124 1.23083 0.984299 0
M  V30 679 C 60.372 1.05848 1.72165 0
M  V30 680 C 60.693 -0.406049 1.90726 0
M  V30 681 O 59.963 -1.29139 1.47309 0
M  V30 682 H 58.543 0.388685 0.637913 0
M  V30 683 H 61.205 1.54736 1.18503 0
M  V30 684 H 60.301 1.54327 2.71274 0
M  V30 685 N 60.6021 -1.18246 1.0419 0
M  V30 686 C 61.8271 -1.92736 0.765996 0
M  V30 687 C 62.2521 -1.75728 -0.67091 0
M  V30 688 O 61.6101 -1.06825 -1.46486 0
M  V30 689 C 61.6581 -3.42148 1.13875 0
M  V30 690 O 60.7621 -4.11548 0.264954 0
M  V30 691 H 60.1031 -0.601238 0.281797 0
M  V30 692 H 62.6331 -1.49942 1.39207 0
M  V30 693 H 62.6431 -3.92858 1.1012 0
M  V30 694 H 61.3181 -3.53848 2.18551 0
M  V30 695 H 59.8951 -3.71137 0.362226 0
M  V30 696 N 62.0802 -0.821533 -1.34494 0
M  V30 697 C 63.3272 -0.408946 -1.98328 0
M  V30 698 C 63.6552 1.02764 -1.65136 0
M  V30 699 O 62.9102 1.73026 -0.914349 0
M  V30 700 C 63.2092 -0.556512 -3.53041 0
M  V30 701 C 62.8752 -1.95861 -4.0614 0
M  V30 702 C 61.5372 -2.34217 -4.20352 0
M  V30 703 C 63.8892 -2.87523 -4.34718 0
M  V30 704 C 61.2172 -3.63572 -4.6047 0
M  V30 705 C 63.5692 -4.1634 -4.76281 0
M  V30 706 C 62.2332 -4.54675 -4.88699 0
M  V30 707 H 61.5032 -0.149644 -0.725732 0
M  V30 708 H 64.1502 -1.04521 -1.6046 0
M  V30 709 H 62.4552 0.163148 -3.9146 0
M  V30 710 H 64.1522 -0.217826 -4.00408 0
M  V30 711 H 60.7422 -1.65066 -3.95539 0
M  V30 712 H 64.9262 -2.59133 -4.23277 0
M  V30 713 H 60.1822 -3.93101 -4.68275 0
M  V30 714 H 64.3562 -4.87455 -4.97354 0
M  V30 715 H 61.9832 -5.54959 -5.19542 0
M  V30 716 N 63.5583 1.46682 -0.576371 0
M  V30 717 C 64.9693 1.86112 -0.148091 0
M  V30 718 C 65.3203 1.48073 1.2872 0
M  V30 719 O 64.4453 0.892656 1.97131 0
M  V30 720 C 65.0403 3.37786 -0.261982 0
M  V30 721 C 63.5993 3.76235 0.111384 0
M  V30 722 C 62.7463 2.70713 -0.60083 0
M  V30 723 H 65.6973 1.37927 -0.78497 0
M  V30 724 H 65.7183 3.77007 0.514364 0
M  V30 725 H 65.2303 3.6544 -1.30671 0
M  V30 726 H 63.3313 3.54198 1.15649 0
M  V30 727 H 63.4443 4.78391 -0.26052 0
M  V30 728 H 61.8083 2.54666 -0.0417783 0
M  V30 729 H 62.5913 3.01208 -1.64708 0
M  V30 730 N 65.0364 0.313813 1.54444 0
M  V30 731 C 65.9684 -0.590425 2.21465 0
M  V30 732 C 66.9814 -1.08753 1.21147 0
M  V30 733 O 68.1704 -1.00278 1.4767 0
M  V30 734 C 65.2704 -1.82179 2.85769 0
M  V30 735 C 64.4434 -1.46502 4.12136 0
M  V30 736 C 63.5024 -2.55288 4.60124 0
M  V30 737 O 62.5284 -2.19842 5.25032 0
M  V30 738 N 63.7304 -3.86053 4.33525 0
M  V30 739 H 66.4954 -0.0166033 2.99695 0
M  V30 740 H 64.0564 0.136578 1.61323 0
M  V30 741 H 66.0484 -2.54328 3.14801 0
M  V30 742 H 64.6184 -2.30369 2.11303 0
M  V30 743 H 63.8384 -0.575595 3.89975 0
M  V30 744 H 65.1264 -1.20221 4.94393 0
M  V30 745 H 64.5244 -4.17654 3.81552 0
M  V30 746 H 63.0814 -4.54461 4.67235 0
M  V30 747 N 66.5145 -1.57545 0.0417849 0
M  V30 748 C 67.7625 -1.91937 -0.632829 0
M  V30 749 C 68.0835 -0.919978 -1.71934 0
M  V30 750 O 67.3535 0.0366064 -1.95866 0
M  V30 751 H 65.9335 -0.708493 -0.236742 0
M  V30 752 H 68.5955 -1.9468 0.0925745 0
M  V30 753 H 67.6915 -2.92912 -1.07746 0
M  V30 754 N 67.9926 0.231505 -1.5589 0
M  V30 755 C 68.9246 1.31006 -1.8807 0
M  V30 756 C 69.9376 1.43539 -0.768145 0
M  V30 757 O 71.1266 1.44614 -1.04638 0
M  V30 758 C 68.2266 2.68688 -2.06543 0
M  V30 759 C 67.3996 2.78228 -3.37502 0
M  V30 760 C 66.4586 3.96857 -3.4553 0
M  V30 761 O 65.4846 3.85662 -4.18633 0
M  V30 762 N 66.6866 5.1072 -2.75944 0
M  V30 763 H 69.4516 1.03731 -2.81176 0
M  V30 764 H 67.0126 0.421573 -1.56315 0
M  V30 765 H 69.0046 3.46412 -2.09239 0
M  V30 766 H 67.5746 2.88605 -1.20109 0
M  V30 767 H 66.7946 1.87059 -3.46991 0
M  V30 768 H 68.0826 2.81564 -4.23791 0
M  V30 769 H 67.4806 5.2271 -2.16311 0
M  V30 770 H 66.0376 5.86523 -2.84314 0
M  V30 771 N 69.4707 1.49531 0.497807 0
M  V30 772 C 70.4007 1.6935 1.60757 0
M  V30 773 C 71.3817 0.542218 1.61227 0
M  V30 774 O 72.5667 0.778417 1.77917 0
M  V30 775 C 69.6967 1.76298 2.99226 0
M  V30 776 C 68.6507 2.91248 3.13622 0
M  V30 777 C 67.9767 2.83312 4.53474 0
M  V30 778 C 69.2767 4.3214 2.93346 0
M  V30 779 H 70.9707 2.62263 1.44425 0
M  V30 780 H 68.5167 1.26208 0.693367 0
M  V30 781 H 70.4697 1.88749 3.76765 0
M  V30 782 H 69.1937 0.799871 3.16654 0
M  V30 783 H 67.8527 2.78404 2.38509 0
M  V30 784 H 67.5007 1.84902 4.67782 0
M  V30 785 H 67.2007 3.60465 4.64046 0
M  V30 786 H 68.7247 2.97775 5.33069 0
M  V30 787 H 70.1387 4.45649 3.60652 0
M  V30 788 H 68.5357 5.1054 3.15387 0
M  V30 789 H 69.6057 4.46363 1.89441 0
M  V30 790 N 70.9488 -0.749086 1.3866 0
M  V30 791 C 72.1738 -1.54344 1.38538 0
M  V30 792 C 72.5988 -1.88088 -0.0216655 0
M  V30 793 O 71.9568 -1.50899 -1.00494 0
M  V30 794 C 72.0048 -2.8164 2.25192 0
M  V30 795 O 71.1088 -3.7698 1.67212 0
M  V30 796 H 70.4498 -0.466654 0.472367 0
M  V30 797 H 72.9798 -0.925355 1.82478 0
M  V30 798 H 72.9898 -3.30519 2.3921 0
M  V30 799 H 71.6648 -2.56411 3.27454 0
M  V30 800 H 70.2418 -3.35699 1.6236 0
M  V30 801 N 72.4269 -1.23603 -0.977757 0
M  V30 802 C 73.3599 -0.962772 -2.06896 0
M  V30 803 C 74.3379 0.0998743 -1.62293 0
M  V30 804 O 75.5219 -0.0349421 -1.88468 0
M  V30 805 C 72.6489 -0.45095 -3.35685 0
M  V30 806 C 71.6949 -1.50061 -3.99229 0
M  V30 807 S 72.5279 -3.07884 -4.38142 0
M  V30 808 C 73.6839 -2.58378 -5.7008 0
M  V30 809 H 73.9169 -1.88677 -2.29757 0
M  V30 810 H 71.4499 -1.06876 -1.11431 0
M  V30 811 H 73.4079 -0.162261 -4.10179 0
M  V30 812 H 72.0689 0.452179 -3.10828 0
M  V30 813 H 71.2619 -1.09269 -4.92013 0
M  V30 814 H 70.8639 -1.73878 -3.31123 0
M  V30 815 H 73.1559 -2.00563 -6.47133 0
M  V30 816 H 74.0989 -3.49711 -6.15717 0
M  V30 817 H 74.5069 -1.99143 -5.28207 0
M  V30 818 N 73.905 1.17692 -1.04816 0
M  V30 819 C 74.835 2.23777 -0.666791 0
M  V30 820 C 75.816 1.66796 0.33361 0
M  V30 821 O 77.001 1.93039 0.212042 0
M  V30 822 C 74.131 3.47281 -0.0367933 0
M  V30 823 C 73.085 4.17059 -0.961546 0
M  V30 824 C 72.411 5.34342 -0.195626 0
M  V30 825 C 73.711 4.69713 -2.28402 0
M  V30 826 H 75.405 2.55933 -1.55367 0
M  V30 827 H 72.951 1.23019 -0.748484 0
M  V30 828 H 74.904 4.20706 0.241775 0
M  V30 829 H 73.628 3.14381 0.885004 0
M  V30 830 H 72.287 3.45541 -1.22462 0
M  V30 831 H 71.935 4.97692 0.728816 0
M  V30 832 H 71.635 5.81966 -0.811775 0
M  V30 833 H 73.159 6.10553 0.0757473 0
M  V30 834 H 74.573 5.34794 -2.06563 0
M  V30 835 H 72.97 5.279 -2.8538 0
M  V30 836 H 74.04 3.86726 -2.92525 0
M  V30 837 N 75.3831 0.828654 1.34056 0
M  V30 838 C 76.3151 0.212052 2.28217 0
M  V30 839 C 77.3281 -0.601362 1.51286 0
M  V30 840 O 78.5171 -0.430104 1.73241 0
M  V30 841 C 75.6171 -0.72088 3.31144 0
M  V30 842 C 74.7901 0.0509587 4.3737 0
M  V30 843 C 73.8491 -0.803766 5.20025 0
M  V30 844 O 72.8751 -0.246667 5.68665 0
M  V30 845 N 74.0771 -2.1227 5.40298 0
M  V30 846 H 76.8421 1.02105 2.81771 0
M  V30 847 H 74.4031 0.686153 1.46641 0
M  V30 848 H 76.3951 -1.29742 3.8334 0
M  V30 849 H 74.9651 -1.43061 2.77943 0
M  V30 850 H 74.1851 0.808831 3.85813 0
M  V30 851 H 75.4731 0.582065 5.0546 0
M  V30 852 H 74.8711 -2.59898 5.02464 0
M  V30 853 H 73.4281 -2.64796 5.95589 0
M  V30 854 N 76.8612 -1.46375 0.584142 0
M  V30 855 C 77.7712 -2.34115 -0.150728 0
M  V30 856 C 78.7872 -1.49838 -0.884567 0
M  V30 857 O 79.9632 -1.82704 -0.847429 0
M  V30 858 C 77.0282 -3.2705 -1.15062 0
M  V30 859 C 76.0892 -4.27228 -0.421293 0
M  V30 860 C 75.3222 -5.15722 -1.37355 0
M  V30 861 O 75.5452 -5.07176 -2.61014 0
M  V30 862 O 74.4792 -5.95383 -0.883355 0
M  V30 863 H 78.3052 -2.98309 0.569708 0
M  V30 864 H 75.8902 -1.45373 0.344535 0
M  V30 865 H 77.7722 -3.84381 -1.72712 0
M  V30 866 H 76.4472 -2.65451 -1.8525 0
M  V30 867 H 75.3542 -3.7358 0.197085 0
M  V30 868 H 76.6872 -4.91616 0.239641 0
M  V30 869 N 78.3393 -0.321999 -1.54275 0
M  V30 870 C 79.2863 0.544664 -2.24281 0
M  V30 871 C 80.2563 1.1129 -1.23303 0
M  V30 872 O 81.4413 1.15354 -1.51981 0
M  V30 873 C 78.5813 1.70045 -3.00298 0
M  V30 874 C 77.6943 1.16159 -4.1609 0
M  V30 875 C 76.8293 2.28293 -4.79641 0
M  V30 876 C 75.8683 1.71648 -5.8754 0
M  V30 877 N 75.0053 2.77438 -6.44959 0
M  V30 878 H 79.8453 -0.0588907 -2.97942 0
M  V30 879 H 77.3823 -0.0408345 -1.47043 0
M  V30 880 H 79.3403 2.38054 -3.42616 0
M  V30 881 H 77.9703 2.27531 -2.28975 0
M  V30 882 H 77.0223 0.373092 -3.78566 0
M  V30 883 H 78.3343 0.707087 -4.93763 0
M  V30 884 H 77.4883 3.0421 -5.2492 0
M  V30 885 H 76.2273 2.77079 -4.01346 0
M  V30 886 H 75.2323 0.942282 -5.41665 0
M  V30 887 H 76.4573 1.23741 -6.67731 0
M  V30 888 H 74.4033 3.25519 -5.69538 0
M  V30 889 H 74.3203 2.36547 -7.1804 0
M  V30 890 H 75.5883 3.53189 -6.94894 0
M  V30 891 N 79.8174 1.5752 -0.0501392 0
M  V30 892 C 81.0664 1.91827 0.623328 0
M  V30 893 C 81.3794 0.930222 1.72065 0
M  V30 894 O 82.5854 1.1653 2.4522 0
M  V30 895 C 81.0414 3.40692 1.16003 0
M  V30 896 C 80.6494 4.479 0.0948811 0
M  V30 897 C 82.3934 3.84034 1.80881 0
M  V30 898 C 80.3004 5.87879 0.644411 0
M  V30 899 H 79.2304 0.715918 0.236596 0
M  V30 900 H 81.8814 1.83115 -0.118861 0
M  V30 901 H 80.2634 3.44405 1.9545 0
M  V30 902 H 81.4374 4.55775 -0.678675 0
M  V30 903 H 79.7524 4.13892 -0.45637 0
M  V30 904 H 82.3494 4.85984 2.22988 0
M  V30 905 H 82.6924 3.20225 2.6601 0
M  V30 906 H 83.2254 3.82833 1.0809 0
M  V30 907 H 79.9644 6.55282 -0.169229 0
M  V30 908 H 79.4844 5.83567 1.38598 0
M  V30 909 H 81.1634 6.37098 1.12763 0
M  V30 910 N 81.2955 -0.223234 1.56011 0
M  V30 911 C 82.5725 -0.972108 1.69733 0
M  V30 912 C 82.9525 -2.02485 0.59691 0
M  V30 913 O 82.3005 -2.25037 -0.396324 0
M  V30 914 C 82.5105 -1.58407 3.10979 0
M  V30 915 C 83.8585 -2.07696 3.70334 0
M  V30 916 O 84.8825 -1.68304 3.1393 0
M  V30 917 O 83.7415 -2.80096 4.69264 0
M  V30 918 H 80.8355 -0.453993 0.691245 0
M  V30 919 H 83.3815 -0.215149 1.68331 0
M  V30 920 H 82.1535 -0.823831 3.82529 0
M  V30 921 H 81.7765 -2.40661 3.16493 0
M  V30 922 N 82.7736 -1.49793 -0.48987 0
M  V30 923 C 83.7236 -1.63673 -1.5873 0
M  V30 924 C 84.7076 -0.491956 -1.53195 0
M  V30 925 O 85.8996 -0.745461 -1.60536 0
M  V30 926 C 83.0286 -1.71689 -2.97284 0
M  V30 927 C 82.1146 -2.91781 -3.07774 0
M  V30 928 N 82.5056 -4.15714 -2.88124 0
M  V30 929 C 80.8036 -2.89949 -3.38889 0
M  V30 930 C 81.5046 -4.965 -3.03088 0
M  V30 931 N 80.4806 -4.30083 -3.3246 0
M  V30 932 H 84.2826 -2.57204 -1.42208 0
M  V30 933 H 81.7966 -1.46719 -0.69623 0
M  V30 934 H 83.7936 -1.79732 -3.76168 0
M  V30 935 H 82.4536 -0.793024 -3.14867 0
M  V30 936 H 83.4646 -4.45515 -2.64077 0
M  V30 937 H 80.1416 -2.06987 -3.62578 0
M  V30 938 H 81.5316 -6.04991 -2.92294 0
M  V30 939 N 84.2517 0.741722 -1.39055 0
M  V30 940 C 85.1817 1.869 -1.39966 0
M  V30 941 C 86.1627 1.6804 -0.26392 0
M  V30 942 O 87.3477 1.88458 -0.468755 0
M  V30 943 C 84.4777 3.24572 -1.23574 0
M  V30 944 C 83.4317 3.58056 -2.34477 0
M  V30 945 C 82.7577 4.94593 -2.0318 0
M  V30 946 C 84.0577 3.61716 -3.76774 0
M  V30 947 H 85.7517 1.86395 -2.34302 0
M  V30 948 H 83.2977 0.895361 -1.1278 0
M  V30 949 H 85.2507 4.031 -1.22834 0
M  V30 950 H 83.9747 3.25587 -0.257045 0
M  V30 951 H 82.6337 2.81854 -2.34423 0
M  V30 952 H 82.2817 4.92181 -1.03765 0
M  V30 953 H 81.9817 5.17964 -2.77465 0
M  V30 954 H 83.5057 5.75486 -2.04079 0
M  V30 955 H 84.9197 4.30335 -3.78794 0
M  V30 956 H 83.3167 3.96603 -4.50362 0
M  V30 957 H 84.3867 2.61672 -4.08235 0
M  V30 958 N 85.7298 1.2412 0.971189 0
M  V30 959 C 86.6398 1.04747 2.09917 0
M  V30 960 C 87.6558 -0.0107162 1.73997 0
M  V30 961 O 88.8318 0.186714 2.00533 0
M  V30 962 C 85.8968 0.650828 3.40537 0
M  V30 963 C 84.9578 1.7851 3.90426 0
M  V30 964 C 84.1908 1.40729 5.14812 0
M  V30 965 O 84.4138 0.29557 5.69634 0
M  V30 966 O 83.3478 2.23168 5.58999 0
M  V30 967 H 87.1738 1.99304 2.29154 0
M  V30 968 H 84.7588 1.02908 1.08307 0
M  V30 969 H 86.6408 0.440992 4.19086 0
M  V30 970 H 85.3158 -0.265649 3.22608 0
M  V30 971 H 84.2228 2.04966 3.12953 0
M  V30 972 H 85.5558 2.68023 4.12825 0
M  V30 973 N 87.2079 -1.17134 1.05439 0
M  V30 974 C 88.6239 -1.39454 0.776201 0
M  V30 975 C 88.8239 -1.91454 -0.628307 0
M  V30 976 O 87.8799 -2.10777 -1.39031 0
M  V30 977 C 89.1929 -2.38305 1.83388 0
M  V30 978 C 90.7409 -2.52006 1.85639 0
M  V30 979 C 91.2159 -3.54133 2.90437 0
M  V30 980 N 92.7069 -3.61653 2.89415 0
M  V30 981 C 93.4419 -4.4044 3.67152 0
M  V30 982 N 92.9379 -5.22721 4.54681 0
M  V30 983 N 94.7309 -4.35337 3.55581 0
M  V30 984 H 86.8819 -0.817134 1.96053 0
M  V30 985 H 89.1449 -0.421626 0.849079 0
M  V30 986 H 88.8509 -2.07173 2.84204 0
M  V30 987 H 88.7249 -3.37841 1.67761 0
M  V30 988 H 91.1119 -2.82447 0.85486 0
M  V30 989 H 91.1929 -1.52537 2.05344 0
M  V30 990 H 90.8369 -3.24431 3.90777 0
M  V30 991 H 90.7669 -4.53313 2.67983 0
M  V30 992 H 93.2579 -3.02909 2.25952 0
M  V30 993 H 93.5709 -5.80027 5.10674 0
M  V30 994 H 91.9159 -5.22093 4.58741 0
M  V30 995 H 95.1069 -3.70112 2.86592 0
M  V30 996 H 95.2799 -4.96494 4.1641 0
M  V30 997 N 88.686 -0.835752 -1.33615 0
M  V30 998 C 89.616 -0.281739 -2.31794 0
M  V30 999 C 90.597 0.608833 -1.58831 0
M  V30 1000 O 91.782 0.533035 -1.86741 0
M  V30 1001 C 88.912 0.546612 -3.42971 0
M  V30 1002 C 87.866 -0.247904 -4.27281 0
M  V30 1003 C 87.192 0.704001 -5.30045 0
M  V30 1004 C 88.492 -1.46324 -5.01385 0
M  V30 1005 H 90.186 -1.10206 -2.78379 0
M  V30 1006 H 87.732 -0.531388 -1.33837 0
M  V30 1007 H 89.685 0.944467 -4.1068 0
M  V30 1008 H 88.409 1.40011 -2.95067 0
M  V30 1009 H 87.068 -0.627281 -3.61194 0
M  V30 1010 H 86.716 1.55381 -4.78399 0
M  V30 1011 H 86.416 0.176524 -5.87335 0
M  V30 1012 H 87.94 1.09944 -6.0062 0
M  V30 1013 H 89.354 -1.13871 -5.61877 0
M  V30 1014 H 87.751 -1.92728 -5.6831 0
M  V30 1015 H 88.821 -2.23467 -4.30338 0
M  V30 1016 N 90.1641 1.46063 -0.591896 0
M  V30 1017 C 91.0941 2.33172 0.123673 0
M  V30 1018 C 92.0751 1.45897 0.87453 0
M  V30 1019 O 93.2601 1.74698 0.848181 0
M  V30 1020 C 90.3901 3.28336 1.13194 0
M  V30 1021 C 89.3441 4.25124 0.495324 0
M  V30 1022 C 88.6701 5.09863 1.61071 0
M  V30 1023 C 89.9701 5.19143 -0.573425 0
M  V30 1024 H 91.6641 2.93252 -0.603646 0
M  V30 1025 H 89.2101 1.41014 -0.291741 0
M  V30 1026 H 91.1631 3.88137 1.64097 0
M  V30 1027 H 89.8871 2.66383 1.88965 0
M  V30 1028 H 88.5461 3.66599 0.00729452 0
M  V30 1029 H 88.1941 4.44288 2.35832 0
M  V30 1030 H 87.8941 5.75417 1.19035 0
M  V30 1031 H 89.4181 5.72529 2.12233 0
M  V30 1032 H 90.8321 5.73106 -0.1491 0
M  V30 1033 H 89.2291 5.93089 -0.914636 0
M  V30 1034 H 90.2991 4.62519 -1.45617 0
M  V30 1035 N 91.6422 0.330177 1.54103 0
M  V30 1036 C 92.6052 -0.520144 2.2322 0
M  V30 1037 C 93.6052 -1.03828 1.22786 0
M  V30 1038 O 94.7952 -0.929652 1.4732 0
M  V30 1039 C 91.9272 -1.72317 2.94142 0
M  V30 1040 H 93.1202 0.0841605 2.99782 0
M  V30 1041 H 90.6732 0.0813433 1.56088 0
M  V30 1042 H 91.4082 -2.36653 2.21734 0
M  V30 1043 H 91.1932 -1.35898 3.67796 0
M  V30 1044 H 92.6832 -2.3266 3.46784 0
M  V30 1045 N 93.1203 -1.57491 0.0584922 0
M  V30 1046 C 94.0303 -2.15448 -0.928414 0
M  V30 1047 C 95.0463 -1.11416 -1.3365 0
M  V30 1048 O 96.2223 -1.4362 -1.41193 0
M  V30 1049 C 93.2873 -2.69393 -2.18239 0
M  V30 1050 C 92.3483 -3.88249 -1.83196 0
M  V30 1051 C 91.5813 -4.39613 -3.02616 0
M  V30 1052 O 91.8043 -3.90023 -4.16219 0
M  V30 1053 O 90.7383 -5.31111 -2.83204 0
M  V30 1054 H 94.5643 -3.00112 -0.465483 0
M  V30 1055 H 92.1493 -1.48499 -0.163826 0
M  V30 1056 H 94.0313 -3.04026 -2.91798 0
M  V30 1057 H 92.7063 -1.87796 -2.63656 0
M  V30 1058 H 91.6133 -3.58492 -1.06931 0
M  V30 1059 H 92.9463 -4.71098 -1.42573 0
M  V30 1060 N 94.5984 0.214957 -1.56127 0
M  V30 1061 C 95.5464 1.28601 -1.93816 0
M  V30 1062 C 96.5404 1.48175 -0.821016 0
M  V30 1063 O 97.7464 1.49271 -1.0059 0
M  V30 1064 H 94.1214 0.431302 -0.616022 0
M  V30 1065 H 96.0924 0.940991 -2.83175 0
M  V30 1066 C 94.8414 2.62779 -2.27689 0
M  V30 1067 H 94.1644 2.48527 -3.13168 0
M  V30 1068 H 95.6044 3.36517 -2.57939 0
M  V30 1069 C 94.0634 3.18285 -1.10436 0
M  V30 1070 O 94.5934 4.00002 -0.368945 0
M  V30 1071 N 92.7994 2.7675 -0.886433 0
M  V30 1072 H 92.3464 2.10404 -1.48619 0
M  V30 1073 H 92.3044 3.14229 -0.103656 0
M  V30 1074 N 96.0765 1.50051 0.48192 0
M  V30 1075 C 97.0245 1.68635 1.60203 0
M  V30 1076 C 98.0185 0.552184 1.60148 0
M  V30 1077 O 99.2245 0.732377 1.64427 0
M  V30 1078 H 95.5995 0.532081 0.531407 0
M  V30 1079 H 97.5705 2.62616 1.41688 0
M  V30 1080 C 96.3195 1.78775 2.9822 0
M  V30 1081 H 95.6425 2.6543 2.98976 0
M  V30 1082 H 97.0825 1.95806 3.7608 0
M  V30 1083 C 95.5415 0.536849 3.32595 0
M  V30 1084 O 96.0715 -0.328897 4.00351 0
M  V30 1085 N 94.2775 0.394091 2.87915 0
M  V30 1086 H 93.8245 1.09962 2.32951 0
M  V30 1087 H 93.7825 -0.441737 3.11281 0
M  V30 1088 N 97.5546 -0.734337 1.39446 0
M  V30 1089 C 98.4646 -1.87879 1.40495 0
M  V30 1090 C 99.4806 -1.714 0.299672 0
M  V30 1091 O 100.657 -1.93991 0.541249 0
M  V30 1092 C 97.7216 -3.23477 1.24754 0
M  V30 1093 C 96.7826 -3.52344 2.45259 0
M  V30 1094 C 96.0156 -4.81473 2.30259 0
M  V30 1095 O 96.2386 -5.55237 1.30643 0
M  V30 1096 O 95.1726 -5.10254 3.19256 0
M  V30 1097 H 98.9986 -1.89949 2.36966 0
M  V30 1098 H 96.5836 -0.882243 1.20569 0
M  V30 1099 H 98.4656 -4.04509 1.18111 0
M  V30 1100 H 97.1406 -3.22176 0.313781 0
M  V30 1101 H 96.0476 -2.71396 2.57478 0
M  V30 1102 H 97.3806 -3.58426 3.37331 0
M  V30 1103 N 99.0327 -1.24633 -0.964593 0
M  V30 1104 C 100.282 -1.08188 -1.7023 0
M  V30 1105 C 100.595 0.37873 -1.91898 0
M  V30 1106 O 101.801 0.663427 -2.6327 0
M  V30 1107 C 100.257 -1.88773 -3.06419 0
M  V30 1108 C 99.8647 -3.39263 -2.92582 0
M  V30 1109 C 101.609 -1.80867 -3.84041 0
M  V30 1110 C 99.5157 -4.1218 -4.24101 0
M  V30 1111 H 98.4457 -0.401245 -0.638372 0
M  V30 1112 H 101.097 -1.48742 -1.07462 0
M  V30 1113 H 99.4787 -1.41035 -3.70034 0
M  V30 1114 H 100.653 -3.94603 -2.37961 0
M  V30 1115 H 98.9677 -3.48154 -2.28424 0
M  V30 1116 H 101.565 -2.32646 -4.81435 0
M  V30 1117 H 101.908 -0.774543 -4.09031 0
M  V30 1118 H 102.441 -2.26301 -3.27159 0
M  V30 1119 H 99.1797 -5.15965 -4.04303 0
M  V30 1120 H 98.6997 -3.61626 -4.78526 0
M  V30 1121 H 100.379 -4.19349 -4.92702 0
M  V30 1122 N 100.511 1.16574 -1.06058 0
M  V30 1123 C 101.76 1.86385 -0.770944 0
M  V30 1124 C 102.073 1.82448 0.705129 0
M  V30 1125 O 103.279 2.47815 1.10905 0
M  V30 1126 C 101.735 3.34466 -1.32893 0
M  V30 1127 C 101.343 3.46883 -2.83507 0
M  V30 1128 C 103.087 4.09548 -1.11672 0
M  V30 1129 C 100.994 4.89036 -3.32562 0
M  V30 1130 H 99.9238 0.698181 -0.284709 0
M  V30 1131 H 102.575 1.31583 -1.27899 0
M  V30 1132 H 100.957 3.88859 -0.748662 0
M  V30 1133 H 102.131 3.02663 -3.47465 0
M  V30 1134 H 100.446 2.85232 -3.03368 0
M  V30 1135 H 103.043 5.14434 -1.45814 0
M  V30 1136 H 103.386 4.16264 -0.0549535 0
M  V30 1137 H 103.919 3.61387 -1.66265 0
M  V30 1138 H 100.658 4.87499 -4.38207 0
M  V30 1139 H 100.178 5.3389 -2.73351 0
M  V30 1140 H 101.857 5.57843 -3.2775 0
M  V30 1141 N 101.989 0.842826 1.3317 0
M  V30 1142 C 103.214 0.453129 2.02389 0
M  V30 1143 C 103.639 -0.939105 1.6298 0
M  V30 1144 O 102.997 -1.61472 0.8244 0
M  V30 1145 C 103.045 0.586094 3.55805 0
M  V30 1146 O 102.149 -0.386029 4.10589 0
M  V30 1147 H 101.49 0.183664 0.638094 0
M  V30 1148 H 104.02 1.13875 1.69981 0
M  V30 1149 H 104.03 0.469209 4.05293 0
M  V30 1150 H 102.705 1.6014 3.83833 0
M  V30 1151 H 101.282 -0.226371 3.72212 0
M  V30 1152 N 103.467 -1.45747 0.599634 0
M  V30 1153 C 104.415 -2.322 -0.136426 0
M  V30 1154 C 105.409 -1.45497 -0.867583 0
M  V30 1155 O 106.615 -1.62027 -0.78405 0
M  V30 1156 H 102.99 -0.749368 -0.0628588 0
M  V30 1157 H 104.961 -2.92072 0.611281 0
M  V30 1158 C 103.71 -3.28974 -1.12567 0
M  V30 1159 H 103.033 -3.9568 -0.572484 0
M  V30 1160 H 104.473 -3.92212 -1.61077 0
M  V30 1161 C 102.932 -2.55561 -2.19523 0
M  V30 1162 O 103.462 -2.33111 -3.27143 0
M  V30 1163 N 101.668 -2.15832 -1.94589 0
M  V30 1164 H 101.215 -2.3429 -1.07078 0
M  V30 1165 H 101.173 -1.67034 -2.66359 0
M  V30 1166 N 104.945 -0.338344 -1.53925 0
M  V30 1167 C 106.194 0.260732 -2.00008 0
M  V30 1168 C 106.507 1.52073 -1.23017 0
M  V30 1169 O 107.713 2.19672 -1.5955 0
M  V30 1170 C 106.169 0.51515 -3.56194 0
M  V30 1171 C 105.777 -0.728645 -4.42035 0
M  V30 1172 C 107.521 1.07337 -4.10706 0
M  V30 1173 C 105.428 -0.445315 -5.89721 0
M  V30 1174 H 104.358 0.101205 -0.747177 0
M  V30 1175 H 107.009 -0.452866 -1.77824 0
M  V30 1176 H 105.391 1.28932 -3.74423 0
M  V30 1177 H 106.565 -1.50352 -4.35581 0
M  V30 1178 H 104.88 -1.20813 -3.98489 0
M  V30 1179 H 107.477 1.30022 -5.18651 0
M  V30 1180 H 107.82 2.0273 -3.63602 0
M  V30 1181 H 108.353 0.360034 -3.96167 0
M  V30 1182 H 105.092 -1.36883 -6.41049 0
M  V30 1183 H 104.612 0.291569 -5.99091 0
M  V30 1184 H 106.291 -0.0606218 -6.46972 0
M  V30 1185 N 106.423 1.57458 -0.0668435 0
M  V30 1186 C 107.839 1.56947 0.289772 0
M  V30 1187 C 108.039 1.07584 1.70376 0
M  V30 1188 O 107.095 0.739486 2.41429 0
M  V30 1189 C 108.408 3.0052 0.103943 0
M  V30 1190 C 109.956 3.12517 0.173857 0
M  V30 1191 C 110.431 4.57997 0.0163682 0
M  V30 1192 N 111.922 4.63144 0.0721352 0
M  V30 1193 C 112.657 5.73394 -0.0253794 0
M  V30 1194 N 112.153 6.92576 -0.176133 0
M  V30 1195 N 113.946 5.62091 0.0313305 0
M  V30 1196 H 106.097 1.87863 -0.991027 0
M  V30 1197 H 108.36 0.86583 -0.38606 0
M  V30 1198 H 108.066 3.40729 -0.871572 0
M  V30 1199 H 107.94 3.67304 0.858366 0
M  V30 1200 H 110.327 2.72197 1.13985 0
M  V30 1201 H 110.408 2.48381 -0.611586 0
M  V30 1202 H 110.052 4.99005 -0.946374 0
M  V30 1203 H 109.982 5.20158 0.821153 0
M  V30 1204 H 112.473 3.77436 0.187263 0
M  V30 1205 H 112.786 7.72418 -0.242821 0
M  V30 1206 H 111.131 6.94678 -0.211429 0
M  V30 1207 H 114.322 4.67867 0.147773 0
M  V30 1208 H 114.495 6.47982 -0.048121 0
M  V30 1209 N 107.901 -0.206675 1.56239 0
M  V30 1210 C 109.178 -0.954051 1.70755 0
M  V30 1211 C 109.558 -2.01841 0.618353 0
M  V30 1212 O 108.906 -2.25444 -0.372434 0
M  V30 1213 C 109.116 -1.551 3.12642 0
M  V30 1214 C 110.464 -2.03757 3.72516 0
M  V30 1215 O 111.488 -1.64965 3.15698 0
M  V30 1216 O 110.347 -2.75103 4.72208 0
M  V30 1217 H 107.441 -0.446636 0.696021 0
M  V30 1218 H 109.987 -0.197283 1.68549 0
M  V30 1219 H 108.759 -0.783212 3.83382 0
M  V30 1220 H 108.382 -2.37291 3.19028 0
M  V30 1221 N 109.379 -1.50304 -0.473955 0
M  V30 1222 C 110.604 -1.65175 -1.25427 0
M  V30 1223 C 111.029 -0.333673 -1.85117 0
M  V30 1224 O 110.387 0.702114 -1.67153 0
M  V30 1225 C 110.435 -2.74295 -2.34082 0
M  V30 1226 O 109.539 -2.35349 -3.38651 0
M  V30 1227 H 108.88 -0.551944 -0.369126 0
M  V30 1228 H 111.41 -1.96662 -0.564364 0
M  V30 1229 H 111.42 -2.97285 -2.79438 0
M  V30 1230 H 110.095 -3.69959 -1.90008 0
M  V30 1231 H 108.672 -2.22794 -2.99027 0
M  V30 1232 N 110.857 0.726932 -1.39834 0
M  V30 1233 C 112.103 1.48884 -1.377 0
M  V30 1234 C 112.436 1.94185 0.0244852 0
M  V30 1235 O 111.711 1.67361 0.990986 0
M  V30 1236 C 111.994 2.72288 -2.3565 0
M  V30 1237 C 111.847 2.32956 -3.84775 0
M  V30 1238 C 113.166 3.74414 -2.31306 0
M  V30 1239 H 110.285 0.540062 -0.5015 0
M  V30 1240 H 112.927 0.830547 -1.70886 0
M  V30 1241 H 111.077 3.28457 -2.07481 0
M  V30 1242 H 112.749 1.82356 -4.23726 0
M  V30 1243 H 110.992 1.65088 -4.01159 0
M  V30 1244 H 111.663 3.21362 -4.4881 0
M  V30 1245 H 114.139 3.27849 -2.56231 0
M  V30 1246 H 113.015 4.58414 -3.01907 0
M  V30 1247 H 113.276 4.21909 -1.32081 0
M  V30 1248 N 112.336 1.25143 0.95797 0
M  V30 1249 C 113.585 1.0909 1.69654 0
M  V30 1250 C 113.898 -0.368548 1.92097 0
M  V30 1251 O 115.104 -0.649455 2.63618 0
M  V30 1252 C 113.56 1.90395 3.05414 0
M  V30 1253 C 113.168 3.4081 2.90779 0
M  V30 1254 C 114.912 1.82901 3.83076 0
M  V30 1255 C 112.819 4.14423 4.21909 0
M  V30 1256 H 111.749 0.404625 0.636235 0
M  V30 1257 H 114.4 1.4931 1.06672 0
M  V30 1258 H 112.782 1.42996 3.69281 0
M  V30 1259 H 113.956 3.95859 2.35865 0
M  V30 1260 H 112.271 3.49361 2.26575 0
M  V30 1261 H 114.868 2.35196 4.80195 0
M  V30 1262 H 115.211 0.796224 4.08615 0
M  V30 1263 H 115.744 2.28033 3.25954 0
M  V30 1264 H 112.483 5.18102 4.01561 0
M  V30 1265 H 112.003 3.64159 4.76601 0
M  V30 1266 H 113.682 4.21956 4.90471 0
M  V30 1267 N 113.814 -1.1601 1.06675 0
M  V30 1268 C 114.762 -2.22586 0.675157 0
M  V30 1269 C 115.756 -1.66525 -0.310766 0
M  V30 1270 O 116.962 -1.79145 -0.175215 0
M  V30 1271 H 113.337 -0.724855 0.200223 0
M  V30 1272 H 115.308 -2.52899 1.58381 0
M  V30 1273 C 114.057 -3.47604 0.0817162 0
M  V30 1274 H 113.38 -3.91058 0.831484 0
M  V30 1275 H 114.82 -4.23718 -0.154708 0
M  V30 1276 C 113.279 -3.15718 -1.17576 0
M  V30 1277 O 113.809 -3.31878 -2.26318 0
M  V30 1278 N 112.015 -2.69816 -1.07923 0
M  V30 1279 H 111.562 -2.56866 -0.194293 0
M  V30 1280 H 111.52 -2.48855 -1.92141 0
M  V30 1281 N 115.292 -0.849877 -1.32721 0
M  V30 1282 C 116.222 -0.306308 -2.31482 0
M  V30 1283 C 117.203 0.591952 -1.59468 0
M  V30 1284 O 118.388 0.513199 -1.87296 0
M  V30 1285 C 115.518 0.510204 -3.43532 0
M  V30 1286 C 114.472 -0.293209 -4.26994 0
M  V30 1287 C 113.798 0.647743 -5.30762 0
M  V30 1288 C 115.098 -1.51634 -4.99804 0
M  V30 1289 H 116.792 -1.13153 -2.77195 0
M  V30 1290 H 114.338 -0.545553 -1.33266 0
M  V30 1291 H 116.291 0.900856 -4.11658 0
M  V30 1292 H 115.015 1.36874 -2.96535 0
M  V30 1293 H 113.674 -0.665555 -3.60508 0
M  V30 1294 H 113.322 1.50299 -4.8002 0
M  V30 1295 H 113.022 0.11422 -5.87489 0
M  V30 1296 H 114.546 1.03567 -6.01753 0
M  V30 1297 H 115.96 -1.19824 -5.60638 0
M  V30 1298 H 114.357 -1.98745 -5.66234 0
M  V30 1299 H 115.427 -2.28018 -4.27943 0
M  V30 1300 N 116.77 1.45427 -0.607355 0
M  V30 1301 C 117.995 2.07124 -0.107006 0
M  V30 1302 C 118.42 1.44906 1.19933 0
M  V30 1303 O 117.778 0.541687 1.73019 0
M  V30 1304 C 117.826 3.60595 0.0194119 0
M  V30 1305 O 116.93 3.98285 1.0697 0
M  V30 1306 H 116.271 0.659868 -0.0739597 0
M  V30 1307 H 118.801 1.86683 -0.837297 0
M  V30 1308 H 118.811 4.07419 0.2177 0
M  V30 1309 H 117.486 4.05266 -0.934453 0
M  V30 1310 H 116.063 3.63133 0.847889 0
M  V30 1311 N 118.248 0.346503 1.53744 0
M  V30 1312 C 119.158 -0.517293 2.28826 0
M  V30 1313 C 120.174 -1.10935 1.3405 0
M  V30 1314 O 121.35 -1.1244 1.6709 0
M  V30 1315 C 118.415 -1.65098 3.04866 0
M  V30 1316 C 117.476 -1.0884 4.15274 0
M  V30 1317 C 116.709 -2.16806 4.87679 0
M  V30 1318 O 116.932 -3.3758 4.59778 0
M  V30 1319 O 115.866 -1.80934 5.74061 0
M  V30 1320 H 119.692 0.0931396 3.03557 0
M  V30 1321 H 117.277 0.111458 1.48984 0
M  V30 1322 H 119.159 -2.31053 3.5241 0
M  V30 1323 H 117.834 -2.24717 2.32989 0
M  V30 1324 H 116.741 -0.3933 3.72027 0
M  V30 1325 H 118.074 -0.537036 4.89261 0
M  V30 1326 N 119.726 -1.57421 0.075193 0
M  V30 1327 C 120.951 -1.98364 -0.605515 0
M  V30 1328 C 121.376 -0.953383 -1.62149 0
M  V30 1329 O 120.734 0.0806053 -1.81121 0
M  V30 1330 C 120.782 -3.38332 -1.24756 0
M  V30 1331 O 119.886 -3.37959 -2.36342 0
M  V30 1332 H 119.227 -0.645553 -0.155428 0
M  V30 1333 H 121.757 -2.04044 0.150714 0
M  V30 1334 H 121.767 -3.75591 -1.5936 0
M  V30 1335 H 120.442 -4.12846 -0.503129 0
M  V30 1336 H 119.019 -3.12474 -2.03506 0
M  V30 1337 N 121.204 0.198386 -1.56346 0
M  V30 1338 C 122.45 0.920648 -1.80698 0
M  V30 1339 C 122.783 1.83045 -0.648697 0
M  V30 1340 O 122.058 1.91308 0.350925 0
M  V30 1341 C 122.341 1.73971 -3.15287 0
M  V30 1342 C 122.194 0.85485 -4.41602 0
M  V30 1343 C 123.513 2.71296 -3.46535 0
M  V30 1344 H 120.632 0.333261 -0.657348 0
M  V30 1345 H 123.274 0.188198 -1.89066 0
M  V30 1346 H 121.424 2.36416 -3.08285 0
M  V30 1347 H 123.096 0.245362 -4.60647 0
M  V30 1348 H 121.339 0.161398 -4.335 0
M  V30 1349 H 122.01 1.46286 -5.32264 0
M  V30 1350 H 124.486 2.18983 -3.53816 0
M  V30 1351 H 123.362 3.2569 -4.41834 0
M  V30 1352 H 123.623 3.5018 -2.69864 0
M  V30 1353 N 122.682 1.50554 0.465978 0
M  V30 1354 C 123.592 1.72585 1.58907 0
M  V30 1355 C 124.608 0.60911 1.6299 0
M  V30 1356 O 125.784 0.88804 1.80765 0
M  V30 1357 C 122.849 1.81995 2.95091 0
M  V30 1358 C 121.91 3.05751 3.01355 0
M  V30 1359 C 121.143 3.14702 4.31043 0
M  V30 1360 O 121.366 2.30313 5.21835 0
M  V30 1361 O 120.3 4.07468 4.43005 0
M  V30 1362 H 124.126 2.67799 1.43239 0
M  V30 1363 H 121.711 1.34711 0.646013 0
M  V30 1364 H 123.593 1.90335 3.75966 0
M  V30 1365 H 122.268 0.899659 3.10947 0
M  V30 1366 H 121.175 3.02908 2.19539 0
M  V30 1367 H 122.508 3.97375 2.90437 0
M  V30 1368 N 124.16 -0.719506 1.40217 0
M  V30 1369 C 125.437 -1.47221 1.28784 0
M  V30 1370 C 125.817 -2.10883 -0.0956067 0
M  V30 1371 O 125.165 -1.99833 -1.10811 0
M  V30 1372 C 125.375 -2.5111 2.42373 0
M  V30 1373 C 126.723 -3.17053 2.82423 0
M  V30 1374 O 127.747 -2.61429 2.41937 0
M  V30 1375 O 126.606 -4.17742 3.52355 0
M  V30 1376 H 123.7 -0.654491 0.50554 0
M  V30 1377 H 126.246 -0.752014 1.52128 0
M  V30 1378 H 125.018 -2.02556 3.34793 0
M  V30 1379 H 124.641 -3.3067 2.20778 0
M  V30 1380 N 125.638 -1.25649 -0.95132 0
M  V30 1381 C 126.886 -1.10375 -1.69298 0
M  V30 1382 C 127.207 0.355339 -1.91735 0
M  V30 1383 O 126.477 1.25188 -1.50681 0
M  V30 1384 H 125.057 -0.405461 -0.627384 0
M  V30 1385 H 127.719 -1.57823 -1.14358 0
M  V30 1386 H 126.815 -1.61465 -2.67087 0
M  V30 1387 N 127.117 1.15442 -1.07289 0
M  V30 1388 C 128.528 1.67803 -0.818475 0
M  V30 1389 C 128.879 1.8489 0.656507 0
M  V30 1390 O 128.004 1.55176 1.50829 0
M  V30 1391 C 128.599 3.04805 -1.47917 0
M  V30 1392 C 127.158 3.54245 -1.27229 0
M  V30 1393 C 126.305 2.29986 -1.54925 0
M  V30 1394 H 129.256 0.996646 -1.23502 0
M  V30 1395 H 129.277 3.69702 -0.90005 0
M  V30 1396 H 128.789 2.92336 -2.55267 0
M  V30 1397 H 126.89 3.71956 -0.21899 0
M  V30 1398 H 127.003 4.35723 -1.99203 0
M  V30 1399 H 125.367 2.35496 -0.970242 0
M  V30 1400 H 126.15 2.20105 -2.63455 0
M  V30 1401 N 128.595 0.856903 1.32268 0
M  V30 1402 C 129.542 0.301172 2.28827 0
M  V30 1403 C 130.512 -0.593104 1.5515 0
M  V30 1404 O 131.697 -0.527537 1.83362 0
M  V30 1405 C 128.837 -0.502523 3.41422 0
M  V30 1406 C 127.95 0.417797 4.29975 0
M  V30 1407 C 127.085 -0.398749 5.29701 0
M  V30 1408 C 126.124 0.518827 6.09897 0
M  V30 1409 N 125.261 -0.260674 7.01616 0
M  V30 1410 H 130.101 1.12983 2.75751 0
M  V30 1411 H 127.638 0.568582 1.35667 0
M  V30 1412 H 129.596 -0.984141 4.05426 0
M  V30 1413 H 128.226 -1.29599 2.95642 0
M  V30 1414 H 127.278 1.01781 3.66531 0
M  V30 1415 H 128.59 1.12191 4.86019 0
M  V30 1416 H 127.744 -0.943435 5.9932 0
M  V30 1417 H 126.483 -1.13622 4.7428 0
M  V30 1418 H 125.488 1.07538 5.39181 0
M  V30 1419 H 126.713 1.25495 6.67404 0
M  V30 1420 H 124.659 -0.981198 6.4862 0
M  V30 1421 H 124.576 0.384364 7.55022 0
M  V30 1422 H 125.844 -0.787014 7.75517 0
M  V30 1423 N 130.073 -1.45103 0.615059 0
M  V30 1424 C 131.298 -2.07064 0.117988 0
M  V30 1425 C 131.723 -1.4554 -1.19163 0
M  V30 1426 O 131.081 -0.550855 -1.72729 0
M  V30 1427 C 131.129 -3.606 -0.000288387 0
M  V30 1428 O 130.233 -3.98847 -1.04856 0
M  V30 1429 H 129.574 -0.659467 0.0774581 0
M  V30 1430 H 132.104 -1.86236 0.847186 0
M  V30 1431 H 132.114 -4.07529 -0.196091 0
M  V30 1432 H 130.789 -4.04765 0.955932 0
M  V30 1433 H 129.366 -3.63577 -0.828619 0
M  V30 1434 N 131.551 -0.354651 -1.53558 0
M  V30 1435 C 132.776 0.242153 -2.05981 0
M  V30 1436 C 133.201 1.42553 -1.2272 0
M  V30 1437 O 132.559 1.79656 -0.243604 0
M  V30 1438 C 132.607 0.624367 -3.55154 0
M  V30 1439 O 131.711 1.72301 -3.74681 0
M  V30 1440 H 131.052 0.0378432 -0.662921 0
M  V30 1441 H 133.582 -0.512087 -1.98088 0
M  V30 1442 H 133.592 0.898433 -3.97985 0
M  V30 1443 H 132.267 -0.240989 -4.15201 0
M  V30 1444 H 130.844 1.44535 -3.4375 0
M  V30 1445 N 133.029 1.57378 -0.0835403 0
M  V30 1446 C 133.961 2.10389 0.909338 0
M  V30 1447 C 134.974 1.03858 1.25369 0
M  V30 1448 O 136.163 1.31338 1.20882 0
M  V30 1449 C 133.263 2.55908 2.2218 0
M  V30 1450 C 132.436 3.86145 2.05453 0
M  V30 1451 C 131.495 4.17633 3.20108 0
M  V30 1452 O 130.521 4.87043 2.94581 0
M  V30 1453 N 131.723 3.72113 4.45547 0
M  V30 1454 H 134.488 2.962 0.456657 0
M  V30 1455 H 132.049 1.61579 0.101877 0
M  V30 1456 H 134.041 2.74027 2.97811 0
M  V30 1457 H 132.611 1.75171 2.58909 0
M  V30 1458 H 131.831 3.7729 1.1422 0
M  V30 1459 H 133.119 4.7137 1.91541 0
M  V30 1460 H 132.517 3.16062 4.69171 0
M  V30 1461 H 131.074 3.95409 5.18165 0
M  V30 1462 N 134.507 -0.190092 1.56449 0
M  V30 1463 C 135.732 -0.929864 1.85387 0
M  V30 1464 C 136.157 -1.7585 0.667704 0
M  V30 1465 O 135.515 -1.77198 -0.383459 0
M  V30 1466 C 135.563 -1.79773 3.12593 0
M  V30 1467 O 134.667 -2.89713 2.93496 0
M  V30 1468 H 134.008 -0.261574 0.610307 0
M  V30 1469 H 136.538 -0.193896 2.03679 0
M  V30 1470 H 136.548 -2.20139 3.43515 0
M  V30 1471 H 135.223 -1.18892 3.98544 0
M  V30 1472 H 133.8 -2.53065 2.73884 0
M  V30 1473 N 135.985 -1.50799 -0.457987 0
M  V30 1474 C 136.933 -1.71162 -1.575 0
M  V30 1475 C 137.927 -0.577592 -1.59249 0
M  V30 1476 O 139.133 -0.758443 -1.63241 0
M  V30 1477 H 135.508 -0.540468 -0.522875 0
M  V30 1478 H 137.479 -2.64837 -1.37492 0
M  V30 1479 C 136.228 -1.83496 -2.95338 0
M  V30 1480 H 135.551 -2.70153 -2.94716 0
M  V30 1481 H 136.991 -2.01765 -3.72917 0
M  V30 1482 C 135.45 -0.589694 -3.31699 0
M  V30 1483 O 135.98 0.265163 -4.00824 0
M  V30 1484 N 134.186 -0.439845 -2.87252 0
M  V30 1485 H 133.733 -1.13655 -2.31172 0
M  V30 1486 H 133.691 0.392159 -3.11945 0
M  V30 1487 N 137.463 0.71206 -1.40597 0
M  V30 1488 C 138.71 1.47197 -1.39065 0
M  V30 1489 C 139.038 1.94499 0.00583891 0
M  V30 1490 O 138.293 1.68752 0.99102 0
M  V30 1491 C 138.592 2.71039 -2.32965 0
M  V30 1492 C 138.258 2.42484 -3.80148 0
M  V30 1493 C 136.92 2.34406 -4.20247 0
M  V30 1494 C 139.272 2.18598 -4.73143 0
M  V30 1495 C 136.6 2.00516 -5.51371 0
M  V30 1496 C 138.952 1.8622 -6.0457 0
M  V30 1497 C 137.616 1.76626 -6.43708 0
M  V30 1498 H 136.886 0.538634 -0.508876 0
M  V30 1499 H 139.533 0.815325 -1.73276 0
M  V30 1500 H 137.838 3.41558 -1.91951 0
M  V30 1501 H 139.535 3.29138 -2.29061 0
M  V30 1502 H 136.125 2.49659 -3.4838 0
M  V30 1503 H 140.309 2.23793 -4.42979 0
M  V30 1504 H 135.565 1.91628 -5.80593 0
M  V30 1505 H 139.739 1.66752 -6.76141 0
M  V30 1506 H 137.366 1.50133 -7.45228 0
M  V30 1507 N 138.941 1.26152 0.944643 0
M  V30 1508 C 140.166 1.14363 1.7302 0
M  V30 1509 C 140.591 -0.29772 1.85729 0
M  V30 1510 O 139.949 -1.2157 1.34501 0
M  V30 1511 C 139.997 1.81378 3.11664 0
M  V30 1512 O 139.101 1.10022 3.97453 0
M  V30 1513 H 138.442 0.398694 0.53098 0
M  V30 1514 H 140.972 1.66906 1.18337 0
M  V30 1515 H 140.982 1.88064 3.62072 0
M  V30 1516 H 139.657 2.86237 3.0173 0
M  V30 1517 H 138.234 1.11287 3.55907 0
M  V30 1518 N 140.419 -1.14872 1.07899 0
M  V30 1519 C 141.351 -2.19425 0.662231 0
M  V30 1520 C 142.364 -1.60231 -0.288079 0
M  V30 1521 O 143.553 -1.78336 -0.076534 0
M  V30 1522 C 140.653 -3.38867 -0.0470695 0
M  V30 1523 C 139.826 -4.27597 0.920831 0
M  V30 1524 C 138.885 -5.25616 0.247805 0
M  V30 1525 O 137.911 -5.62189 0.890599 0
M  V30 1526 N 139.113 -5.71746 -1.00435 0
M  V30 1527 H 141.878 -2.55797 1.56166 0
M  V30 1528 H 139.439 -1.30042 0.964404 0
M  V30 1529 H 141.431 -4.01497 -0.50813 0
M  V30 1530 H 140.001 -3.00864 -0.848523 0
M  V30 1531 H 139.221 -3.61982 1.56087 0
M  V30 1532 H 140.509 -4.83748 1.57688 0
M  V30 1533 H 139.907 -5.44153 -1.54642 0
M  V30 1534 H 138.464 -6.36389 -1.40899 0
M  V30 1535 N 141.898 -0.863906 -1.31812 0
M  V30 1536 C 143.146 -0.470904 -1.96537 0
M  V30 1537 C 143.467 0.978771 -1.68657 0
M  V30 1538 O 142.737 1.6853 -0.998717 0
M  V30 1539 H 141.317 -0.171148 -0.72713 0
M  V30 1540 H 143.979 -1.10236 -1.60729 0
M  V30 1541 H 143.075 -0.623616 -3.05806 0
M  V30 1542 N 143.376 1.44774 -0.622745 0
M  V30 1543 C 144.339 2.29069 0.0774015 0
M  V30 1544 C 145.339 1.4059 0.780461 0
M  V30 1545 O 146.529 1.62551 0.626322 0
M  V30 1546 C 143.661 3.21974 1.12006 0
M  V30 1547 H 144.854 2.92459 -0.663901 0
M  V30 1548 H 142.407 1.51548 -0.382486 0
M  V30 1549 H 143.142 2.63417 1.89162 0
M  V30 1550 H 142.927 3.87168 0.619951 0
M  V30 1551 H 144.417 3.85318 1.60995 0
M  V30 1552 N 144.854 0.36279 1.53368 0
M  V30 1553 C 146.102 -0.227326 2.00817 0
M  V30 1554 C 146.423 -1.49511 1.25186 0
M  V30 1555 O 145.693 -1.92482 0.364348 0
M  V30 1556 H 144.273 -0.0869923 0.741917 0
M  V30 1557 H 146.935 0.488381 1.88682 0
M  V30 1558 H 146.031 -0.456273 3.08747 0
M  V30 1559 N 146.332 -1.57332 0.0918853 0
M  V30 1560 C 147.557 -1.98995 -0.584442 0
M  V30 1561 C 147.982 -0.970528 -1.61128 0
M  V30 1562 O 147.34 0.0613904 -1.81196 0
M  V30 1563 C 147.388 -3.39636 -1.21161 0
M  V30 1564 O 146.492 -3.40447 -2.32744 0
M  V30 1565 H 145.833 -0.647165 -0.148572 0
M  V30 1566 H 148.363 -2.03873 0.172347 0
M  V30 1567 H 148.373 -3.7726 -1.55367 0
M  V30 1568 H 147.048 -4.13356 -0.459313 0
M  V30 1569 H 145.625 -3.14614 -2.0018 0
M  V30 1570 N 147.81 0.181792 -1.56548 0
M  V30 1571 C 148.76 1.22961 -1.92002 0
M  V30 1572 C 149.744 1.40331 -0.787146 0
M  V30 1573 O 150.936 1.42478 -1.05019 0
M  V30 1574 C 148.065 2.57144 -2.27446 0
M  V30 1575 C 147.151 2.43512 -3.47222 0
M  V30 1576 N 147.542 1.99577 -4.64761 0
M  V30 1577 C 145.84 2.74368 -3.51622 0
M  V30 1578 C 146.541 1.98156 -5.46909 0
M  V30 1579 N 145.517 2.40164 -4.8767 0
M  V30 1580 H 149.319 0.881462 -2.8037 0
M  V30 1581 H 146.833 0.390141 -1.57644 0
M  V30 1582 H 148.83 3.32847 -2.51035 0
M  V30 1583 H 147.49 2.92771 -1.40411 0
M  V30 1584 H 148.501 1.70078 -4.89177 0
M  V30 1585 H 145.178 3.14102 -2.75038 0
M  V30 1586 H 146.568 1.65975 -6.51077 0
M  V30 1587 N 149.288 1.51039 0.449983 0
M  V30 1588 C 150.218 1.74379 1.55288 0
M  V30 1589 C 151.199 0.593236 1.5942 0
M  V30 1590 O 152.384 0.834625 1.7535 0
M  V30 1591 C 149.514 1.85728 2.93466 0
M  V30 1592 C 148.468 3.01078 3.04197 0
M  V30 1593 C 147.794 2.97595 4.44231 0
M  V30 1594 C 149.094 4.41254 2.7945 0
M  V30 1595 H 150.788 2.66725 1.36008 0
M  V30 1596 H 148.334 1.2835 0.652864 0
M  V30 1597 H 150.287 2.0064 3.70569 0
M  V30 1598 H 149.011 0.900207 3.13949 0
M  V30 1599 H 147.67 2.85851 2.29531 0
M  V30 1600 H 147.318 1.99691 4.61663 0
M  V30 1601 H 147.018 3.75046 4.52343 0
M  V30 1602 H 148.542 3.14583 5.23326 0
M  V30 1603 H 149.956 4.56897 3.46292 0
M  V30 1604 H 148.353 5.20315 2.98985 0
M  V30 1605 H 149.423 4.52164 1.75144 0
M  V30 1606 N 150.766 -0.704594 1.40972 0
M  V30 1607 C 151.696 -1.83124 1.44872 0
M  V30 1608 C 152.677 -1.67281 0.30838 0
M  V30 1609 O 153.862 -1.87149 0.518556 0
M  V30 1610 C 150.992 -3.21181 1.32136 0
M  V30 1611 C 149.946 -3.51714 2.43888 0
M  V30 1612 C 149.272 -4.89032 2.16222 0
M  V30 1613 C 150.572 -3.516 3.86232 0
M  V30 1614 H 152.266 -1.80117 2.39161 0
M  V30 1615 H 149.812 -0.865145 1.15114 0
M  V30 1616 H 151.765 -3.99702 1.33479 0
M  V30 1617 H 150.489 -3.24791 0.343279 0
M  V30 1618 H 149.148 -2.75539 2.41813 0
M  V30 1619 H 148.796 -4.89256 1.16778 0
M  V30 1620 H 148.496 -5.10426 2.911 0
M  V30 1621 H 150.02 -5.69873 2.19265 0
M  V30 1622 H 151.434 -4.2014 3.9007 0
M  V30 1623 H 149.831 -3.84523 4.60719 0
M  V30 1624 H 150.901 -2.50757 4.15029 0
M  V30 1625 N 152.244 -1.26651 -0.937939 0
M  V30 1626 C 153.655 -1.1125 -1.49934 0
M  V30 1627 C 154.006 0.306077 -1.93798 0
M  V30 1628 O 153.131 1.19792 -1.80219 0
M  V30 1629 C 153.726 -2.01339 -2.72485 0
M  V30 1630 C 152.285 -1.90074 -3.24883 0
M  V30 1631 C 151.432 -1.94498 -1.97651 0
M  V30 1632 H 154.383 -1.39693 -0.753091 0
M  V30 1633 H 154.404 -1.56319 -3.46907 0
M  V30 1634 H 153.916 -3.04577 -2.40529 0
M  V30 1635 H 152.017 -0.897827 -3.61621 0
M  V30 1636 H 152.13 -2.75778 -3.9177 0
M  V30 1637 H 150.494 -1.38591 -2.13693 0
M  V30 1638 H 151.277 -2.99372 -1.68022 0
M  V30 1639 N 153.722 1.14298 -1.08507 0
M  V30 1640 C 154.947 1.8976 -0.837001 0
M  V30 1641 C 155.372 1.78097 0.605228 0
M  V30 1642 O 154.73 1.12188 1.4242 0
M  V30 1643 C 154.778 3.37685 -1.26495 0
M  V30 1644 O 153.882 4.10281 -0.417514 0
M  V30 1645 H 153.223 0.590365 -0.303917 0
M  V30 1646 H 155.753 1.44672 -1.44676 0
M  V30 1647 H 155.763 3.88501 -1.24625 0
M  V30 1648 H 154.438 3.45492 -2.31534 0
M  V30 1649 H 153.015 3.69536 -0.499722 0
M  V30 1650 N 155.201 0.870884 1.31352 0
M  V30 1651 C 156.133 0.28455 2.27427 0
M  V30 1652 C 157.146 -0.552927 1.53123 0
M  V30 1653 O 158.335 -0.374771 1.74521 0
M  V30 1654 C 155.435 -0.615164 3.3327 0
M  V30 1655 C 154.608 0.190079 4.36987 0
M  V30 1656 C 153.667 -0.637917 5.22319 0
M  V30 1657 O 152.693 -0.065626 5.69162 0
M  V30 1658 N 153.895 -1.94973 5.46778 0
M  V30 1659 H 156.66 1.11017 2.7838 0
M  V30 1660 H 154.221 0.732458 1.44384 0
M  V30 1661 H 156.213 -1.1748 3.87273 0
M  V30 1662 H 154.783 -1.34146 2.82354 0
M  V30 1663 H 154.003 0.931165 3.83044 0
M  V30 1664 H 155.291 0.742579 5.03352 0
M  V30 1665 H 154.689 -2.4378 5.10478 0
M  V30 1666 H 153.246 -2.45713 6.03712 0
M  V30 1667 N 156.679 -1.44442 0.630414 0
M  V30 1668 C 157.609 -2.33418 -0.0618083 0
M  V30 1669 C 158.59 -1.48165 -0.835541 0
M  V30 1670 O 159.775 -1.76886 -0.801564 0
M  V30 1671 C 156.905 -3.31222 -1.04449 0
M  V30 1672 C 155.859 -4.26288 -0.382436 0
M  V30 1673 C 155.185 -5.13954 -1.47497 0
M  V30 1674 C 156.485 -5.1744 0.710865 0
M  V30 1675 H 158.179 -2.91548 0.681184 0
M  V30 1676 H 155.725 -1.40191 0.329026 0
M  V30 1677 H 157.678 -3.92351 -1.53748 0
M  V30 1678 H 156.402 -2.71299 -1.81836 0
M  V30 1679 H 155.061 -3.6649 0.0899054 0
M  V30 1680 H 154.709 -4.50385 -2.2397 0
M  V30 1681 H 154.409 -5.7837 -1.03737 0
M  V30 1682 H 155.933 -5.77955 -1.96979 0
M  V30 1683 H 157.347 -5.72509 0.300996 0
M  V30 1684 H 155.744 -5.90455 1.07156 0
M  V30 1685 H 156.814 -4.58496 1.57829 0
M  V30 1686 N 158.157 -0.370918 -1.53173 0
M  V30 1687 C 159.382 0.220293 -2.06227 0
M  V30 1688 C 159.807 1.41243 -1.24225 0
M  V30 1689 O 159.165 1.79387 -0.262645 0
M  V30 1690 C 159.213 0.586663 -3.55796 0
M  V30 1691 O 158.317 1.68317 -3.76488 0
M  V30 1692 H 157.658 0.0308099 -0.663285 0
M  V30 1693 H 160.188 -0.533068 -1.97534 0
M  V30 1694 H 160.198 0.85617 -3.98916 0
M  V30 1695 H 158.873 -0.285013 -4.14922 0
M  V30 1696 H 157.45 1.40881 -3.45264 0
M  V30 1697 N 159.635 1.57281 -0.100228 0
M  V30 1698 C 160.565 2.17328 0.853857 0
M  V30 1699 C 161.546 1.10804 1.2906 0
M  V30 1700 O 162.731 1.38963 1.35657 0
M  V30 1701 C 159.861 2.75772 2.11109 0
M  V30 1702 C 158.815 3.87713 1.81279 0
M  V30 1703 C 158.141 4.32882 3.13874 0
M  V30 1704 C 159.441 5.10677 1.09574 0
M  V30 1705 H 161.135 2.97305 0.353545 0
M  V30 1706 H 158.681 1.43009 0.168612 0
M  V30 1707 H 160.634 3.16433 2.78296 0
M  V30 1708 H 159.358 1.93057 2.63432 0
M  V30 1709 H 158.017 3.476 1.16489 0
M  V30 1710 H 157.665 3.47051 3.64095 0
M  V30 1711 H 157.365 5.08358 2.94696 0
M  V30 1712 H 158.889 4.7618 3.82211 0
M  V30 1713 H 160.303 5.48474 1.66879 0
M  V30 1714 H 158.7 5.91615 1.00557 0
M  V30 1715 H 159.77 4.84835 0.0793299 0
M  V30 1716 N 161.113 -0.173488 1.56642 0
M  V30 1717 C 162.338 -0.910149 1.86363 0
M  V30 1718 C 162.763 -1.75132 0.686318 0
M  V30 1719 O 162.121 -1.77595 -0.364643 0
M  V30 1720 C 162.169 -1.76447 3.14482 0
M  V30 1721 O 161.273 -2.86584 2.96553 0
M  V30 1722 H 160.614 -0.255086 0.613047 0
M  V30 1723 H 163.144 -0.172283 2.03873 0
M  V30 1724 H 163.154 -2.16483 3.45831 0
M  V30 1725 H 161.829 -1.14658 3.99783 0
M  V30 1726 H 160.406 -2.50146 2.76553 0
M  V30 1727 N 162.591 -1.51276 -0.441967 0
M  V30 1728 C 163.837 -1.63958 -1.19355 0
M  V30 1729 C 164.17 -0.352543 -1.90973 0
M  V30 1730 O 163.445 0.647627 -1.83401 0
M  V30 1731 C 163.728 -2.83979 -2.21422 0
M  V30 1732 C 163.581 -4.22646 -1.53918 0
M  V30 1733 C 164.9 -2.99521 -3.22451 0
M  V30 1734 H 162.019 -0.596709 -0.432559 0
M  V30 1735 H 164.661 -1.83748 -0.483398 0
M  V30 1736 H 162.811 -2.67237 -2.81987 0
M  V30 1737 H 164.483 -4.51045 -0.967256 0
M  V30 1738 H 162.726 -4.25558 -0.841615 0
M  V30 1739 H 163.397 -5.02609 -2.28229 0
M  V30 1740 H 165.873 -3.14944 -2.71937 0
M  V30 1741 H 164.749 -3.85072 -3.91166 0
M  V30 1742 H 165.01 -2.11391 -3.88287 0
M  V30 1743 N 164.069 0.697108 -1.41344 0
M  V30 1744 C 165.346 1.45154 -1.31109 0
M  V30 1745 C 165.726 2.11009 0.0620449 0
M  V30 1746 O 165.074 2.01571 1.07618 0
M  V30 1747 C 165.284 2.47223 -2.46337 0
M  V30 1748 C 166.632 3.1252 -2.87431 0
M  V30 1749 O 167.656 2.57547 -2.46065 0
M  V30 1750 O 166.515 4.12083 -3.58957 0
M  V30 1751 H 163.609 0.646365 -0.515889 0
M  V30 1752 H 166.155 0.727716 -1.53305 0
M  V30 1753 H 164.927 1.97204 -3.37974 0
M  V30 1754 H 164.55 3.27116 -2.2601 0
M  V30 1755 N 165.547 1.27147 0.931209 0
M  V30 1756 C 166.775 1.16082 1.71267 0
M  V30 1757 C 167.19 -0.282772 1.8667 0
M  V30 1758 O 166.547 -1.19283 1.38122 0
M  V30 1759 C 166.598 1.8358 3.11417 0
M  V30 1760 O 166.319 3.22299 2.96741 0
M  V30 1761 C 167.82 1.78597 4.05732 0
M  V30 1762 H 165.04 0.403758 0.535929 0
M  V30 1763 H 167.584 1.67953 1.16671 0
M  V30 1764 H 165.739 1.35623 3.62885 0
M  V30 1765 H 166.153 3.55851 3.85319 0
M  V30 1766 H 167.627 2.30444 5.01597 0
M  V30 1767 H 168.104 0.754564 4.3267 0
M  V30 1768 H 168.71 2.26152 3.60188 0
M  V30 1769 N 167.025 -1.13721 1.09112 0
M  V30 1770 C 167.988 -2.17222 0.731241 0
M  V30 1771 C 168.988 -1.59035 -0.237566 0
M  V30 1772 O 170.178 -1.74192 -0.0161704 0
M  V30 1773 C 167.31 -3.40804 0.0808443 0
M  V30 1774 H 168.503 -2.50573 1.64783 0
M  V30 1775 H 166.056 -1.28493 0.889897 0
M  V30 1776 H 166.791 -3.1304 -0.847127 0
M  V30 1777 H 166.576 -3.84306 0.777896 0
M  V30 1778 H 168.066 -4.1731 -0.155657 0
M  V30 1779 N 168.503 -0.877838 -1.30888 0
M  V30 1780 C 169.78 -0.413052 -1.91189 0
M  V30 1781 C 170.16 1.1056 -1.79832 0
M  V30 1782 O 169.508 1.93771 -1.21099 0
M  V30 1783 C 169.718 -0.903191 -3.3711 0
M  V30 1784 C 171.066 -0.93395 -4.14201 0
M  V30 1785 O 172.09 -0.849373 -3.45925 0
M  V30 1786 O 170.949 -1.05772 -5.36167 0
M  V30 1787 H 168.043 -0.125035 -0.817493 0
M  V30 1788 H 170.589 -0.966269 -1.39504 0
M  V30 1789 H 169.361 -1.94692 -3.39427 0
M  V30 1790 H 168.984 -0.328732 -3.96239 0
M  V30 1791 N 169.982 1.44106 -0.638065 0
M  V30 1792 C 171.222 2.03858 -0.148733 0
M  V30 1793 C 171.586 1.49153 1.20903 0
M  V30 1794 O 172.787 2.00452 1.79088 0
M  V30 1795 C 171.058 3.57117 -0.142314 0
M  V30 1796 S 172.617 4.37897 0.281385 0
M  V30 1797 H 169.435 0.708069 -0.0644912 0
M  V30 1798 H 172.037 1.7639 -0.843009 0
M  V30 1799 H 170.741 3.94436 -1.13349 0
M  V30 1800 H 170.272 3.89205 0.572988 0
M  V30 1801 H 172.287 4.72218 1.52395 0
M  V30 1802 N 171.46 0.379036 1.52974 0
M  V30 1803 C 172.39 -0.452706 2.29069 0
M  V30 1804 C 173.371 -1.07237 1.32039 0
M  V30 1805 O 174.556 -1.08708 1.60923 0
M  V30 1806 C 171.686 -1.5856 3.08992 0
M  V30 1807 C 170.64 -1.0925 4.13822 0
M  V30 1808 C 169.966 -2.31668 4.81907 0
M  V30 1809 C 171.266 -0.167702 5.22031 0
M  V30 1810 H 172.96 0.182181 2.98845 0
M  V30 1811 H 170.506 0.0890592 1.43724 0
M  V30 1812 H 172.459 -2.1742 3.6098 0
M  V30 1813 H 171.183 -2.24792 2.36931 0
M  V30 1814 H 169.842 -0.526494 3.628 0
M  V30 1815 H 169.49 -2.96386 4.06404 0
M  V30 1816 H 169.19 -1.9934 5.52754 0
M  V30 1817 H 170.714 -2.91189 5.36695 0
M  V30 1818 H 172.128 -0.664186 5.6944 0
M  V30 1819 H 170.525 0.0653265 6.00064 0
M  V30 1820 H 171.595 0.786347 4.78482 0
M  V30 1821 N 172.938 -1.57226 0.108567 0
M  V30 1822 C 174.185 -1.94833 -0.551943 0
M  V30 1823 C 174.513 -0.991204 -1.67348 0
M  V30 1824 O 173.768 -0.0131878 -1.95696 0
M  V30 1825 C 174.067 -3.38911 -1.13463 0
M  V30 1826 C 173.733 -4.50696 -0.135509 0
M  V30 1827 C 172.395 -4.80998 0.139252 0
M  V30 1828 C 174.747 -5.18333 0.545957 0
M  V30 1829 C 172.075 -5.76259 1.10194 0
M  V30 1830 C 174.427 -6.14627 1.49721 0
M  V30 1831 C 173.091 -6.43327 1.78006 0
M  V30 1832 H 172.361 -0.712944 -0.20197 0
M  V30 1833 H 175.008 -1.90582 0.18726 0
M  V30 1834 H 173.313 -3.39805 -1.95037 0
M  V30 1835 H 175.01 -3.65317 -1.65362 0
M  V30 1836 H 171.6 -4.27087 -0.359846 0
M  V30 1837 H 175.784 -4.95087 0.346842 0
M  V30 1838 H 171.04 -5.96804 1.32795 0
M  V30 1839 H 175.214 -6.66126 2.03099 0
M  V30 1840 H 172.841 -7.1695 2.52759 0
M  V30 1841 N 174.416 0.165178 -1.56732 0
M  V30 1842 C 175.379 1.18822 -1.95995 0
M  V30 1843 C 176.379 1.3685 -0.84431 0
M  V30 1844 O 177.569 1.34152 -1.11126 0
M  V30 1845 C 174.701 2.5521 -2.26011 0
M  V30 1846 H 175.894 0.851825 -2.87548 0
M  V30 1847 H 173.447 0.407857 -1.50885 0
M  V30 1848 H 174.182 2.93852 -1.37191 0
M  V30 1849 H 173.967 2.43489 -3.07336 0
M  V30 1850 H 175.457 3.28927 -2.57288 0
M  V30 1851 N 175.894 1.51508 0.433938 0
M  V30 1852 C 177.119 1.68443 1.21003 0
M  V30 1853 C 177.544 0.382636 1.84167 0
M  V30 1854 O 176.902 -0.65755 1.68956 0
M  V30 1855 C 176.95 2.80405 2.26727 0
M  V30 1856 O 176.054 2.44245 3.32292 0
M  V30 1857 H 175.395 0.561536 0.354363 0
M  V30 1858 H 177.925 1.9809 0.512024 0
M  V30 1859 H 177.935 3.0459 2.71457 0
M  V30 1860 H 176.61 3.74867 1.80132 0
M  V30 1861 H 175.187 2.30644 2.93015 0
M  V30 1862 N 177.372 -0.689602 1.41712 0
M  V30 1863 C 178.304 -1.815 1.39966 0
M  V30 1864 C 179.317 -1.59995 0.300917 0
M  V30 1865 O 180.506 -1.69387 0.563039 0
M  V30 1866 C 177.606 -3.18364 1.16179 0
M  V30 1867 C 176.779 -3.66847 2.38206 0
M  V30 1868 C 175.838 -4.82398 2.10186 0
M  V30 1869 O 174.864 -4.93706 2.83272 0
M  V30 1870 N 176.066 -5.70064 1.0958 0
M  V30 1871 H 178.831 -1.83488 2.36965 0
M  V30 1872 H 176.392 -0.872149 1.36401 0
M  V30 1873 H 178.384 -3.93301 0.953756 0
M  V30 1874 H 176.954 -3.11365 0.27756 0
M  V30 1875 H 176.174 -2.82751 2.74673 0
M  V30 1876 H 177.462 -3.95978 3.19498 0
M  V30 1877 H 176.86 -5.63565 0.491019 0
M  V30 1878 H 175.417 -6.44874 0.947656 0
M  V30 1879 N 178.85 -1.27639 -0.924453 0
M  V30 1880 C 180.075 -1.17101 -1.71179 0
M  V30 1881 C 180.5 0.268134 -1.86179 0
M  V30 1882 O 179.858 1.19415 -1.36418 0
M  V30 1883 C 179.906 -1.86313 -3.08739 0
M  V30 1884 O 179.01 -1.16331 -3.95652 0
M  V30 1885 H 178.351 -0.407091 -0.524569 0
M  V30 1886 H 180.881 -1.68767 -1.15666 0
M  V30 1887 H 180.891 -1.938 -3.59034 0
M  V30 1888 H 179.566 -2.91001 -2.97138 0
M  V30 1889 H 178.143 -1.16935 -3.54091 0
M  V30 1890 N 180.328 1.1314 -1.09713 0
M  V30 1891 C 181.576 1.84119 -0.833338 0
M  V30 1892 C 181.897 1.84097 0.642904 0
M  V30 1893 O 181.167 1.29881 1.46655 0
M  V30 1894 H 179.747 0.681766 -0.305293 0
M  V30 1895 H 182.409 1.37038 -1.38588 0
M  V30 1896 H 181.505 2.88543 -1.18951 0
M  V30 1897 N 181.806 0.884767 1.30421 0
M  V30 1898 C 183.031 0.517288 2.00845 0
M  V30 1899 C 183.456 -0.886779 1.65885 0
M  V30 1900 O 182.814 -1.58768 0.875354 0
M  V30 1901 C 182.862 0.698994 3.5376 0
M  V30 1902 O 181.966 -0.255208 4.1161 0
M  V30 1903 H 181.307 0.203872 0.631927 0
M  V30 1904 H 183.837 1.19225 1.66272 0
M  V30 1905 H 183.847 0.597912 4.03595 0
M  V30 1906 H 182.522 1.72271 3.78544 0
M  V30 1907 H 181.099 -0.10784 3.72744 0
M  V30 1908 N 183.284 -1.43765 0.645699 0
M  V30 1909 C 184.234 -2.27884 -0.0726442 0
M  V30 1910 C 185.218 -1.39483 -0.802086 0
M  V30 1911 O 186.41 -1.63174 -0.685791 0
M  V30 1912 C 183.539 -3.27055 -1.04356 0
M  V30 1913 C 182.625 -4.22944 -0.312985 0
M  V30 1914 N 183.016 -5.01391 0.666386 0
M  V30 1915 C 181.314 -4.42528 -0.55546 0
M  V30 1916 C 182.015 -5.71217 1.09935 0
M  V30 1917 N 180.991 -5.41856 0.435137 0
M  V30 1918 H 184.793 -2.85949 0.678988 0
M  V30 1919 H 182.307 -1.55378 0.472368 0
M  V30 1920 H 184.304 -3.86089 -1.57292 0
M  V30 1921 H 182.964 -2.70551 -1.79534 0
M  V30 1922 H 183.975 -5.07252 1.04481 0
M  V30 1923 H 180.652 -3.97104 -1.28899 0
M  V30 1924 H 182.042 -6.44202 1.90929 0
M  V30 1925 N 184.763 -0.387143 -1.52771 0
M  V30 1926 C 185.711 0.463953 -2.27926 0
M  V30 1927 C 186.705 1.06493 -1.31741 0
M  V30 1928 O 187.911 1.00565 -1.49287 0
M  V30 1929 H 184.286 0.16837 -0.732909 0
M  V30 1930 H 186.257 -0.19141 -2.97785 0
M  V30 1931 C 185.006 1.5803 -3.09713 0
M  V30 1932 H 184.329 1.12718 -3.83581 0
M  V30 1933 H 185.769 2.15008 -3.65442 0
M  V30 1934 C 184.228 2.53509 -2.2189 0
M  V30 1935 O 184.758 3.56863 -1.84422 0
M  V30 1936 N 182.964 2.23199 -1.86093 0
M  V30 1937 H 182.511 1.39185 -2.16761 0
M  V30 1938 H 182.469 2.87333 -1.27621 0
M  V30 1939 N 186.241 1.57166 -0.116904 0
M  V30 1940 C 187.466 1.999 0.55271 0
M  V30 1941 C 187.891 0.996039 1.59564 0
M  V30 1942 O 187.249 -0.032556 1.81271 0
M  V30 1943 C 187.297 3.4152 1.15742 0
M  V30 1944 O 186.401 3.44106 2.27299 0
M  V30 1945 H 185.742 0.649447 0.138258 0
M  V30 1946 H 188.272 2.03573 -0.204759 0
M  V30 1947 H 188.282 3.79684 1.49346 0
M  V30 1948 H 186.957 4.14034 0.393493 0
M  V30 1949 H 185.534 3.17759 1.9515 0
M  V30 1950 N 187.719 -0.156864 1.56817 0
M  V30 1951 C 188.996 -0.899244 1.73704 0
M  V30 1952 C 189.376 -1.99771 0.682254 0
M  V30 1953 O 188.724 -2.26515 -0.300522 0
M  V30 1954 C 188.934 -1.45075 3.17418 0
M  V30 1955 C 190.282 -1.91802 3.7881 0
M  V30 1956 O 191.306 -1.54838 3.20786 0
M  V30 1957 O 190.165 -2.5994 4.80722 0
M  V30 1958 H 187.259 -0.424267 0.709878 0
M  V30 1959 H 189.805 -0.143561 1.69092 0
M  V30 1960 H 188.577 -0.660846 3.85679 0
M  V30 1961 H 188.2 -2.27021 3.26416 0
M  V30 1962 N 189.197 -1.51736 -0.425897 0
M  V30 1963 C 190.443 -1.65214 -1.1761 0
M  V30 1964 C 190.776 -0.372778 -1.90589 0
M  V30 1965 O 190.051 0.628139 -1.84078 0
M  V30 1966 C 190.334 -2.86312 -2.18398 0
M  V30 1967 C 190.187 -4.24254 -1.49426 0
M  V30 1968 C 191.506 -3.02925 -3.19256 0
M  V30 1969 H 188.625 -0.601263 -0.426206 0
M  V30 1970 H 191.267 -1.8425 -0.463882 0
M  V30 1971 H 189.417 -2.70213 -2.79137 0
M  V30 1972 H 191.089 -4.52046 -0.919362 0
M  V30 1973 H 189.332 -4.26426 -0.796432 0
M  V30 1974 H 190.003 -5.05001 -2.22885 0
M  V30 1975 H 192.479 -3.1781 -2.68581 0
M  V30 1976 H 191.355 -3.89199 -3.8706 0
M  V30 1977 H 191.616 -2.15497 -3.86023 0
M  V30 1978 N 190.675 0.682077 -1.42076 0
M  V30 1979 C 191.607 1.80755 -1.40926 0
M  V30 1980 C 192.62 1.59833 -0.309398 0
M  V30 1981 O 193.809 1.69087 -0.572014 0
M  V30 1982 C 190.909 3.17744 -1.17865 0
M  V30 1983 C 190.082 3.65578 -2.40149 0
M  V30 1984 C 189.141 4.81277 -2.12742 0
M  V30 1985 O 188.167 4.92197 -2.85887 0
M  V30 1986 N 189.369 5.69474 -1.12602 0
M  V30 1987 H 192.134 1.82229 -2.37935 0
M  V30 1988 H 189.695 0.864903 -1.36861 0
M  V30 1989 H 191.687 3.9279 -0.9746 0
M  V30 1990 H 190.257 3.11214 -0.294068 0
M  V30 1991 H 189.477 2.81291 -2.76169 0
M  V30 1992 H 190.765 3.94278 -3.21593 0
M  V30 1993 H 190.163 5.63297 -0.520899 0
M  V30 1994 H 188.72 6.44363 -0.981842 0
M  V30 1995 N 192.153 1.28127 0.917671 0
M  V30 1996 C 193.086 1.06039 2.02067 0
M  V30 1997 C 194.064 -0.0223285 1.62585 0
M  V30 1998 O 195.248 0.124823 1.88086 0
M  V30 1999 C 192.375 0.610596 3.33151 0
M  V30 2000 C 191.421 1.68937 3.91615 0
M  V30 2001 S 192.254 3.28437 4.22953 0
M  V30 2002 C 193.41 2.85283 5.57103 0
M  V30 2003 H 193.643 1.99425 2.20493 0
M  V30 2004 H 191.176 1.12071 1.06205 0
M  V30 2005 H 193.134 0.357778 4.08938 0
M  V30 2006 H 191.795 -0.303364 3.12632 0
M  V30 2007 H 190.988 1.32619 4.86239 0
M  V30 2008 H 190.59 1.89478 3.2245 0
M  V30 2009 H 192.882 2.3121 6.36827 0
M  V30 2010 H 193.825 3.7869 5.98331 0
M  V30 2011 H 194.233 2.24118 5.18104 0
M  V30 2012 N 193.631 -1.12557 1.10312 0
M  V30 2013 C 194.561 -2.20341 0.772798 0
M  V30 2014 C 195.542 -1.68198 -0.25365 0
M  V30 2015 O 196.727 -1.93831 -0.119699 0
M  V30 2016 C 193.857 -3.46709 0.202443 0
M  V30 2017 C 192.811 -4.11996 1.15943 0
M  V30 2018 C 192.137 -5.328 0.450345 0
M  V30 2019 C 193.437 -4.5828 2.50552 0
M  V30 2020 H 195.131 -2.48229 1.674 0
M  V30 2021 H 192.677 -1.19308 0.806326 0
M  V30 2022 H 194.63 -4.2138 -0.0407752 0
M  V30 2023 H 193.354 -3.18245 -0.734001 0
M  V30 2024 H 192.013 -3.39305 1.38808 0
M  V30 2025 H 191.661 -5.00602 -0.490531 0
M  V30 2026 H 191.361 -5.7743 1.08851 0
M  V30 2027 H 192.885 -6.10219 0.215642 0
M  V30 2028 H 194.299 -5.2433 2.31843 0
M  V30 2029 H 192.696 -5.13683 3.10242 0
M  V30 2030 H 193.766 -3.72329 3.10643 0
M  V30 2031 N 195.109 -0.891671 -1.2995 0
M  V30 2032 C 196.386 -0.433307 -1.9074 0
M  V30 2033 C 196.766 1.08646 -1.80995 0
M  V30 2034 O 196.114 1.92476 -1.23147 0
M  V30 2035 C 196.324 -0.938895 -3.36134 0
M  V30 2036 C 197.672 -0.977829 -4.13187 0
M  V30 2037 O 198.696 -0.886015 -3.45005 0
M  V30 2038 O 197.555 -1.11453 -5.35015 0
M  V30 2039 H 194.649 -0.133699 -0.816121 0
M  V30 2040 H 197.195 -0.981011 -1.38471 0
M  V30 2041 H 195.967 -1.98281 -3.37343 0
M  V30 2042 H 195.59 -0.37074 -3.95868 0
M  V30 2043 N 196.587 1.43421 -0.653314 0
M  V30 2044 C 197.833 2.02111 -0.166992 0
M  V30 2045 C 198.166 1.51423 1.21592 0
M  V30 2046 O 197.441 0.707389 1.8118 0
M  V30 2047 C 197.724 3.5966 -0.177948 0
M  V30 2048 C 197.577 4.20579 -1.59478 0
M  V30 2049 C 198.896 4.37413 0.4856 0
M  V30 2050 H 196.015 0.734374 -0.0621557 0
M  V30 2051 H 198.657 1.70717 -0.834016 0
M  V30 2052 H 196.807 3.86537 0.390032 0
M  V30 2053 H 198.479 4.04732 -2.21336 0
M  V30 2054 H 196.722 3.77226 -2.14204 0
M  V30 2055 H 197.393 5.29665 -1.5543 0
M  V30 2056 H 199.869 4.161 0.00234528 0
M  V30 2057 H 198.745 5.47075 0.447207 0
M  V30 2058 H 199.006 4.13672 1.55974 0
M  V30 2059 N 198.065 0.39524 1.52563 0
M  V30 2060 C 199.295 -0.184675 2.05773 0
M  V30 2061 C 199.703 -1.40571 1.26635 0
M  V30 2062 O 199.046 -1.81105 0.30769 0
M  V30 2063 C 199.108 -0.613551 3.54226 0
M  V30 2064 C 198.772 0.49484 4.54313 0
M  V30 2065 C 199.769 1.3541 5.01956 0
M  V30 2066 C 197.454 0.663565 4.97898 0
M  V30 2067 C 199.448 2.36716 5.91814 0
M  V30 2068 C 197.135 1.67996 5.87555 0
M  V30 2069 C 198.133 2.53017 6.34406 0
M  V30 2070 O 197.821 3.52917 7.22291 0
M  V30 2071 H 197.553 -0.030077 0.675331 0
M  V30 2072 H 200.107 0.560708 1.97599 0
M  V30 2073 H 198.337 -1.411 3.60038 0
M  V30 2074 H 200.026 -1.11981 3.90148 0
M  V30 2075 H 200.792 1.23509 4.6901 0
M  V30 2076 H 196.671 0.0114913 4.60999 0
M  V30 2077 H 200.215 3.03113 6.28306 0
M  V30 2078 H 196.112 1.79933 6.19915 0
M  V30 2079 H 196.88 3.48996 7.40367 0
M  V30 2080 N 199.544 -1.57102 0.125237 0
M  V30 2081 C 200.769 -2.0019 -0.542101 0
M  V30 2082 C 201.194 -1.00449 -1.59034 0
M  V30 2083 O 200.552 0.0229423 -1.81285 0
M  V30 2084 C 200.6 -3.42129 -1.13929 0
M  V30 2085 O 199.704 -3.45307 -2.2547 0
M  V30 2086 H 199.045 -0.650171 -0.134812 0
M  V30 2087 H 201.575 -2.03461 0.215553 0
M  V30 2088 H 201.585 -3.80471 -1.4733 0
M  V30 2089 H 200.26 -4.14237 -0.371531 0
M  V30 2090 H 198.837 -3.1879 -1.93462 0
M  V30 2091 N 201.022 0.148545 -1.56898 0
M  V30 2092 C 201.952 1.18524 -2.01182 0
M  V30 2093 C 202.933 1.4489 -0.891123 0
M  V30 2094 O 204.118 1.55836 -1.15882 0
M  V30 2095 C 201.248 2.51879 -2.39112 0
M  V30 2096 C 200.202 2.40038 -3.54353 0
M  V30 2097 C 199.528 3.78089 -3.78091 0
M  V30 2098 C 200.828 1.88577 -4.87069 0
M  V30 2099 H 202.522 0.817029 -2.88036 0
M  V30 2100 H 200.068 0.391575 -1.38574 0
M  V30 2101 H 202.021 3.24627 -2.68692 0
M  V30 2102 H 200.745 2.90532 -1.49193 0
M  V30 2103 H 199.404 1.69742 -3.24936 0
M  V30 2104 H 199.052 4.14175 -2.85426 0
M  V30 2105 H 198.752 3.71028 -4.55645 0
M  V30 2106 H 200.276 4.52387 -4.10095 0
M  V30 2107 H 201.69 2.51117 -5.15377 0
M  V30 2108 H 200.087 1.9241 -5.68417 0
M  V30 2109 H 201.157 0.84136 -4.77545 0
M  V30 2110 N 202.5 1.5196 0.417844 0
M  V30 2111 C 203.749 1.6482 1.16264 0
M  V30 2112 C 204.062 0.379886 1.91876 0
M  V30 2113 O 205.268 0.388154 2.68711 0
M  V30 2114 C 203.724 2.91161 2.1155 0
M  V30 2115 C 203.332 4.25068 1.41495 0
M  V30 2116 C 205.076 3.13383 2.86341 0
M  V30 2117 C 202.983 5.42541 2.35379 0
M  V30 2118 H 201.913 0.613954 0.437694 0
M  V30 2119 H 204.564 1.78442 0.427871 0
M  V30 2120 H 202.946 2.71218 2.88543 0
M  V30 2121 H 204.12 4.55463 0.699263 0
M  V30 2122 H 202.435 4.0888 0.787792 0
M  V30 2123 H 205.032 3.98324 3.5671 0
M  V30 2124 H 205.375 2.27256 3.48798 0
M  V30 2125 H 205.908 3.33757 2.1645 0
M  V30 2126 H 202.647 6.30987 1.77582 0
M  V30 2127 H 202.167 5.16497 3.04945 0
M  V30 2128 H 203.846 5.75272 2.96093 0
M  V30 2129 N 203.978 -0.674533 1.42435 0
M  V30 2130 C 205.203 -1.46784 1.46524 0
M  V30 2131 C 205.628 -1.87938 0.078066 0
M  V30 2132 O 204.986 -1.56014 -0.92354 0
M  V30 2133 C 205.034 -2.69307 2.39805 0
M  V30 2134 O 204.138 -3.67587 1.86959 0
M  V30 2135 H 203.479 -0.440959 0.496439 0
M  V30 2136 H 206.009 -0.827326 1.87127 0
M  V30 2137 H 206.019 -3.17374 2.56393 0
M  V30 2138 H 204.694 -2.38692 3.40586 0
M  V30 2139 H 203.271 -3.2662 1.79927 0
M  V30 2140 N 205.456 -1.28612 -0.910864 0
M  V30 2141 C 206.703 -1.15934 -1.66029 0
M  V30 2142 C 207.031 0.291483 -1.92303 0
M  V30 2143 O 206.286 1.22816 -1.52364 0
M  V30 2144 C 206.585 -1.90624 -3.0232 0
M  V30 2145 C 206.251 -3.40405 -2.95695 0
M  V30 2146 C 204.913 -3.81255 -2.93595 0
M  V30 2147 C 207.265 -4.359 -2.85728 0
M  V30 2148 C 204.593 -5.15936 -2.79334 0
M  V30 2149 C 206.945 -5.70657 -2.73007 0
M  V30 2150 C 205.609 -6.10779 -2.69267 0
M  V30 2151 H 204.879 -0.424234 -0.607541 0
M  V30 2152 H 207.526 -1.5942 -1.06101 0
M  V30 2153 H 205.831 -1.39696 -3.6605 0
M  V30 2154 H 207.528 -1.78228 -3.59215 0
M  V30 2155 H 204.118 -3.07927 -2.98125 0
M  V30 2156 H 208.302 -4.053 -2.86436 0
M  V30 2157 H 203.558 -5.46146 -2.74835 0
M  V30 2158 H 207.732 -6.44311 -2.64264 0
M  V30 2159 H 205.359 -7.1509 -2.57974 0
M  V30 2160 N 206.934 1.1197 -1.10907 0
M  V30 2161 C 208.211 1.79959 -0.766432 0
M  V30 2162 C 208.591 1.97466 0.746363 0
M  V30 2163 O 207.939 1.55491 1.67436 0
M  V30 2164 C 208.149 3.14009 -1.52314 0
M  V30 2165 C 209.497 3.89134 -1.69883 0
M  V30 2166 O 210.521 3.2368 -1.48692 0
M  V30 2167 O 209.38 5.06572 -2.05054 0
M  V30 2168 H 206.474 0.779208 -0.277062 0
M  V30 2169 H 209.02 1.18762 -1.21217 0
M  V30 2170 H 207.792 2.96587 -2.55249 0
M  V30 2171 H 207.415 3.82915 -1.07059 0
M  V30 2172 N 208.412 0.89855 1.29475 0
M  V30 2173 C 209.36 0.365253 2.29714 0
M  V30 2174 C 210.354 -0.534993 1.6073 0
M  V30 2175 O 211.56 -0.417921 1.75081 0
M  V30 2176 H 207.935 0.0994853 0.74539 0
M  V30 2177 H 209.906 1.22406 2.72138 0
M  V30 2178 C 208.655 -0.393159 3.4547 0
M  V30 2179 H 207.978 0.290332 3.98744 0
M  V30 2180 H 209.418 -0.731189 4.17648 0
M  V30 2181 C 207.877 -1.59539 2.9673 0
M  V30 2182 O 208.407 -2.69469 2.97908 0
M  V30 2183 N 206.613 -1.43716 2.52575 0
M  V30 2184 H 206.16 -0.542828 2.51816 0
M  V30 2185 H 206.118 -2.24288 2.20323 0
M  V30 2186 N 209.89 -1.43072 0.660911 0
M  V30 2187 C 211.301 -1.84932 0.256348 0
M  V30 2188 C 211.652 -1.55325 -1.19868 0
M  V30 2189 O 210.777 -1.00607 -1.91591 0
M  V30 2190 C 211.372 -3.35684 0.458475 0
M  V30 2191 C 209.931 -3.76245 0.108161 0
M  V30 2192 C 209.078 -2.66749 0.757641 0
M  V30 2193 H 212.029 -1.33116 0.864051 0
M  V30 2194 H 212.05 -3.79365 -0.293683 0
M  V30 2195 H 211.562 -3.572 1.51755 0
M  V30 2196 H 209.663 -3.60338 -0.948014 0
M  V30 2197 H 209.776 -4.76058 0.538992 0
M  V30 2198 H 208.14 -2.53989 0.190185 0
M  V30 2199 H 208.923 -2.91092 1.81989 0
M  V30 2200 N 211.368 -0.403325 -1.52352 0
M  V30 2201 C 212.645 0.232611 -1.94212 0
M  V30 2202 C 213.025 1.63133 -1.33981 0
M  V30 2203 O 212.373 2.22659 -0.513344 0
M  V30 2204 C 212.583 0.244811 -3.4814 0
M  V30 2205 C 213.931 0.46698 -4.22024 0
M  V30 2206 O 214.955 0.324419 -3.5472 0
M  V30 2207 O 213.814 0.74747 -5.41364 0
M  V30 2208 H 210.908 0.148223 -0.813609 0
M  V30 2209 H 213.454 -0.458848 -1.63379 0
M  V30 2210 H 212.226 -0.734378 -3.84347 0
M  V30 2211 H 211.849 0.980611 -3.85318 0
M  V30 2212 N 212.846 1.57033 -0.133567 0
M  V30 2213 C 214.094 1.953 0.519848 0
M  V30 2214 C 214.415 1.01866 1.66278 0
M  V30 2215 O 213.685 0.0776513 1.95746 0
M  V30 2216 H 212.265 0.721091 0.195032 0
M  V30 2217 H 214.927 1.93809 -0.205921 0
M  V30 2218 H 214.023 2.98695 0.904854 0
M  V30 2219 N 214.325 -0.140222 1.56975 0
M  V30 2220 C 215.573 -0.850005 1.83356 0
M  V30 2221 C 215.894 -1.81399 0.71551 0
M  V30 2222 O 215.164 -1.94136 -0.262294 0
M  V30 2223 H 213.744 -0.316886 0.676456 0
M  V30 2224 H 216.406 -0.132608 1.94448 0
M  V30 2225 H 215.502 -1.40814 2.78528 0
M  V30 2226 N 215.803 -1.52179 -0.40978 0
M  V30 2227 C 217.049 -1.66453 -1.15851 0
M  V30 2228 C 217.382 -0.392972 -1.90182 0
M  V30 2229 O 216.657 0.608579 -1.84734 0
M  V30 2230 C 216.94 -2.88612 -2.15349 0
M  V30 2231 C 216.793 -4.25815 -1.44918 0
M  V30 2232 C 218.112 -3.06294 -3.16026 0
M  V30 2233 H 215.231 -0.60575 -0.419805 0
M  V30 2234 H 217.873 -1.84732 -0.444314 0
M  V30 2235 H 216.023 -2.73158 -2.76255 0
M  V30 2236 H 217.695 -4.52995 -0.871365 0
M  V30 2237 H 215.938 -4.27247 -0.751159 0
M  V30 2238 H 216.609 -5.07337 -2.17516 0
M  V30 2239 H 219.085 -3.20641 -2.65195 0
M  V30 2240 H 217.961 -3.93283 -3.8291 0
M  V30 2241 H 218.222 -2.19579 -3.83715 0
M  V30 2242 N 217.281 0.66697 -1.42791 0
M  V30 2243 C 218.527 1.42754 -1.44889 0
M  V30 2244 C 218.882 1.92283 -0.0669755 0
M  V30 2245 O 218.175 1.68494 0.912154 0
M  V30 2246 C 218.369 2.6349 -2.4147 0
M  V30 2247 C 218.198 2.25776 -3.88915 0
M  V30 2248 C 216.968 2.1476 -4.57391 0
M  V30 2249 C 219.166 1.86927 -4.79127 0
M  V30 2250 N 217.148 1.70232 -5.89826 0
M  V30 2251 C 218.519 1.53378 -6.00729 0
M  V30 2252 C 220.574 1.73989 -4.66511 0
M  V30 2253 C 219.277 1.08187 -7.11117 0
M  V30 2254 C 221.303 1.30203 -5.76889 0
M  V30 2255 C 220.665 0.975818 -6.97608 0
M  V30 2256 H 216.764 0.518559 -0.585338 0
M  V30 2257 H 219.348 0.768906 -1.78874 0
M  V30 2258 H 217.519 3.27033 -2.09533 0
M  V30 2259 H 219.251 3.30123 -2.34096 0
M  V30 2260 H 216.006 2.3408 -4.11708 0
M  V30 2261 H 216.43 1.50369 -6.6009 0
M  V30 2262 H 221.072 1.97853 -3.7365 0
M  V30 2263 H 218.79 0.830701 -8.03819 0
M  V30 2264 H 222.376 1.20701 -5.69142 0
M  V30 2265 H 221.256 0.642157 -7.81566 0
M  V30 2266 N 218.759 1.29093 0.90403 0
M  V30 2267 C 219.706 1.13853 2.00764 0
M  V30 2268 C 220.676 0.0330084 1.66067 0
M  V30 2269 O 221.861 0.199733 1.89752 0
M  V30 2270 C 219.001 0.816537 3.35301 0
M  V30 2271 C 218.114 2.00206 3.82807 0
M  V30 2272 C 217.249 1.61983 5.059 0
M  V30 2273 C 216.288 2.77143 5.45764 0
M  V30 2274 N 215.425 2.39346 6.60044 0
M  V30 2275 H 220.265 2.08276 2.13132 0
M  V30 2276 H 217.802 1.03648 1.04381 0
M  V30 2277 H 219.76 0.610557 4.12708 0
M  V30 2278 H 218.39 -0.090779 3.22672 0
M  V30 2279 H 217.442 2.31988 3.01473 0
M  V30 2280 H 218.754 2.86512 4.08304 0
M  V30 2281 H 217.908 1.37649 5.90879 0
M  V30 2282 H 216.647 0.728202 4.82233 0
M  V30 2283 H 215.652 3.02165 4.59322 0
M  V30 2284 H 216.877 3.66964 5.71414 0
M  V30 2285 H 214.823 1.52665 6.37989 0
M  V30 2286 H 214.74 3.19185 6.85315 0
M  V30 2287 H 216.008 2.1832 7.48303 0
M  V30 2288 N 220.237 -1.11381 1.11499 0
M  V30 2289 C 221.169 -2.17207 0.731704 0
M  V30 2290 C 222.182 -1.61066 -0.236957 0
M  V30 2291 O 223.371 -1.78489 -0.0197591 0
M  V30 2292 C 220.471 -3.38846 0.0607624 0
M  V30 2293 C 219.644 -4.24451 1.0564 0
M  V30 2294 C 218.703 -5.24562 0.4149 0
M  V30 2295 O 217.729 -5.59071 1.069 0
M  V30 2296 N 218.931 -5.74651 -0.821943 0
M  V30 2297 H 221.696 -2.50699 1.64225 0
M  V30 2298 H 219.257 -1.26908 1.00529 0
M  V30 2299 H 221.249 -4.02911 -0.380139 0
M  V30 2300 H 219.819 -3.03411 -0.752376 0
M  V30 2301 H 219.039 -3.56833 1.67524 0
M  V30 2302 H 220.327 -4.78486 1.72998 0
M  V30 2303 H 219.725 -5.48797 -1.37252 0
M  V30 2304 H 218.282 -6.40549 -1.20582 0
M  V30 2305 N 221.715 -0.905404 -1.28997 0
M  V30 2306 C 222.963 -0.533192 -1.9494 0
M  V30 2307 C 223.284 0.924618 -1.71685 0
M  V30 2308 O 222.554 1.65268 -1.05183 0
M  V30 2309 H 221.134 -0.194194 -0.721317 0
M  V30 2310 H 223.796 -1.15294 -1.57141 0
M  V30 2311 H 222.892 -0.72059 -3.03667 0
M  V30 2312 N 223.193 1.4272 -0.668489 0
M  V30 2313 C 224.44 2.01624 -0.18814 0
M  V30 2314 C 224.768 1.5282 1.20317 0
M  V30 2315 O 224.023 0.718323 1.8204 0
M  V30 2316 C 224.322 3.57021 -0.164499 0
M  V30 2317 C 223.988 4.25232 -1.49962 0
M  V30 2318 C 222.65 4.4358 -1.8652 0
M  V30 2319 C 225.002 4.63727 -2.37921 0
M  V30 2320 C 222.33 4.97694 -3.10674 0
M  V30 2321 C 224.682 5.19218 -3.6138 0
M  V30 2322 C 223.346 5.3578 -3.98115 0
M  V30 2323 H 222.616 0.737795 -0.0688454 0
M  V30 2324 H 225.263 1.70991 -0.862225 0
M  V30 2325 H 223.568 3.87285 0.593079 0
M  V30 2326 H 225.265 4.00372 0.224271 0
M  V30 2327 H 221.855 4.11306 -1.20522 0
M  V30 2328 H 226.039 4.4923 -2.10964 0
M  V30 2329 H 221.295 5.08702 -3.39164 0
M  V30 2330 H 225.469 5.4799 -4.29743 0
M  V30 2331 H 223.096 5.77475 -4.94395 0
M  V30 2332 N 224.671 0.411399 1.52136 0
M  V30 2333 C 225.948 -0.222308 1.94333 0
M  V30 2334 C 226.328 -1.6242 1.34844 0
M  V30 2335 O 225.676 -2.22384 0.525145 0
M  V30 2336 C 225.886 -0.226345 3.48265 0
M  V30 2337 C 227.234 -0.444592 4.22266 0
M  V30 2338 O 228.258 -0.305602 3.54887 0
M  V30 2339 O 227.117 -0.718749 5.41753 0
M  V30 2340 H 224.211 -0.143907 0.814383 0
M  V30 2341 H 226.757 0.467506 1.63133 0
M  V30 2342 H 225.529 0.75475 3.83952 0
M  V30 2343 H 225.152 -0.960163 3.85832 0
M  V30 2344 N 226.149 -1.5696 0.141893 0
M  V30 2345 C 227.398 -1.95135 -0.510427 0
M  V30 2346 C 227.711 -1.02896 -1.66348 0
M  V30 2347 O 228.917 -1.30629 -2.38009 0
M  V30 2348 C 227.373 -3.46876 -0.959427 0
M  V30 2349 C 226.981 -4.47691 0.166419 0
M  V30 2350 C 228.725 -3.93927 -1.58183 0
M  V30 2351 C 226.632 -5.90636 -0.300565 0
M  V30 2352 H 225.562 -0.728494 -0.194454 0
M  V30 2353 H 228.213 -1.8211 0.22542 0
M  V30 2354 H 226.595 -3.55215 -1.75038 0
M  V30 2355 H 227.769 -4.51043 0.94325 0
M  V30 2356 H 226.084 -4.10527 0.696905 0
M  V30 2357 H 228.681 -4.98158 -1.94275 0
M  V30 2358 H 229.024 -3.3519 -2.46888 0
M  V30 2359 H 229.557 -3.88484 -0.855863 0
M  V30 2360 H 226.296 -6.5318 0.550989 0
M  V30 2361 H 225.816 -5.90655 -1.04338 0
M  V30 2362 H 227.495 -6.42588 -0.754265 0
M  V30 2363 N 227.627 0.131896 -1.57047 0
M  V30 2364 C 228.855 0.856461 -1.88341 0
M  V30 2365 C 229.27 1.74042 -0.731757 0
M  V30 2366 O 228.627 1.80051 0.297945 0
M  V30 2367 C 228.678 1.70064 -3.18999 0
M  V30 2368 O 228.399 0.852278 -4.2973 0
M  V30 2369 C 229.9 2.53148 -3.63911 0
M  V30 2370 H 227.12 0.246885 -0.62393 0
M  V30 2371 H 229.664 0.120152 -2.04147 0
M  V30 2372 H 227.819 2.38984 -3.04902 0
M  V30 2373 H 228.233 1.43329 -5.04537 0
M  V30 2374 H 229.707 3.07931 -4.58129 0
M  V30 2375 H 230.184 3.29901 -2.89935 0
M  V30 2376 H 230.79 1.89492 -3.80753 0
M  V30 2377 N 229.106 1.52395 0.401703 0
M  V30 2378 C 230.336 1.70429 1.1678 0
M  V30 2379 C 230.744 0.416702 1.84554 0
M  V30 2380 O 230.087 -0.617697 1.73003 0
M  V30 2381 C 230.149 2.78919 2.26814 0
M  V30 2382 C 229.813 4.20437 1.79113 0
M  V30 2383 C 230.81 5.04028 1.27482 0
M  V30 2384 C 228.495 4.66704 1.85722 0
M  V30 2385 C 230.489 6.31961 0.830913 0
M  V30 2386 C 228.176 5.94625 1.40942 0
M  V30 2387 C 229.174 6.77082 0.897128 0
M  V30 2388 O 228.862 8.02607 0.455822 0
M  V30 2389 H 228.594 0.574272 0.356634 0
M  V30 2390 H 231.148 1.99767 0.477724 0
M  V30 2391 H 229.378 2.44973 2.99207 0
M  V30 2392 H 231.067 2.8548 2.88541 0
M  V30 2393 H 231.833 4.69471 1.21744 0
M  V30 2394 H 227.712 4.0262 2.24539 0
M  V30 2395 H 231.256 6.96271 0.430368 0
M  V30 2396 H 227.153 6.28688 1.46362 0
M  V30 2397 H 227.921 8.16453 0.578457 0
M  V30 2398 N 230.584 -0.659388 1.43143 0
M  V30 2399 C 231.494 -1.80167 1.50256 0
M  V30 2400 C 232.51 -1.69571 0.390106 0
M  V30 2401 O 233.686 -1.90849 0.643319 0
M  V30 2402 C 230.751 -3.16409 1.41725 0
M  V30 2403 C 229.812 -3.38848 2.63591 0
M  V30 2404 C 229.045 -4.68591 2.55458 0
M  V30 2405 O 229.268 -5.47532 1.59891 0
M  V30 2406 O 228.202 -4.92614 3.45854 0
M  V30 2407 H 232.028 -1.77121 2.46702 0
M  V30 2408 H 229.613 -0.817092 1.25076 0
M  V30 2409 H 231.495 -3.9768 1.39387 0
M  V30 2410 H 230.17 -3.20059 0.484118 0
M  V30 2411 H 229.077 -2.57366 2.71502 0
M  V30 2412 H 230.41 -3.4004 3.55856 0
M  V30 2413 N 232.062 -1.29571 -0.897171 0
M  V30 2414 C 233.287 -1.20705 -1.68656 0
M  V30 2415 C 233.712 0.228582 -1.86706 0
M  V30 2416 O 233.07 1.16494 -1.3892 0
M  V30 2417 C 233.118 -1.9282 -3.04717 0
M  V30 2418 O 232.222 -1.24697 -3.93096 0
M  V30 2419 H 231.563 -0.418126 -0.515816 0
M  V30 2420 H 234.093 -1.71183 -1.12061 0
M  V30 2421 H 234.103 -2.01372 -3.54843 0
M  V30 2422 H 232.778 -2.97239 -2.90899 0
M  V30 2423 H 231.355 -1.2442 -3.51531 0
M  V30 2424 N 233.54 1.10788 -1.12088 0
M  V30 2425 C 234.488 2.19111 -0.780587 0
M  V30 2426 C 235.482 1.67818 0.230961 0
M  V30 2427 O 236.688 1.79777 0.0895427 0
M  V30 2428 H 233.063 0.714477 -0.234578 0
M  V30 2429 H 235.034 2.45055 -1.70266 0
M  V30 2430 C 233.783 3.46818 -0.24747 0
M  V30 2431 H 233.106 3.86646 -1.01712 0
M  V30 2432 H 234.546 4.23973 -0.0476291 0
M  V30 2433 C 233.005 3.20968 1.02378 0
M  V30 2434 O 233.535 3.42298 2.10226 0
M  V30 2435 N 231.741 2.74658 0.949271 0
M  V30 2436 H 231.288 2.57501 0.0715173 0
M  V30 2437 H 231.246 2.57739 1.80049 0
M  V30 2438 N 235.018 0.912232 1.28515 0
M  V30 2439 C 235.928 0.404506 2.31086 0
M  V30 2440 C 236.944 -0.50707 1.66448 0
M  V30 2441 O 238.12 -0.393624 1.97516 0
M  V30 2442 C 235.185 -0.348572 3.44943 0
M  V30 2443 C 234.246 0.59604 4.25142 0
M  V30 2444 C 233.479 -0.121194 5.33562 0
M  V30 2445 O 233.702 -1.34317 5.5436 0
M  V30 2446 O 232.636 0.542716 5.99448 0
M  V30 2447 H 236.462 1.25579 2.76521 0
M  V30 2448 H 234.047 0.676998 1.33181 0
M  V30 2449 H 235.929 -0.77395 4.14232 0
M  V30 2450 H 234.604 -1.17571 3.01594 0
M  V30 2451 H 233.511 1.07079 3.58448 0
M  V30 2452 H 234.844 1.38995 4.72167 0
M  V30 2453 N 236.496 -1.42363 0.676048 0
M  V30 2454 C 237.742 -2.02336 0.207809 0
M  V30 2455 C 238.097 -1.52506 -1.17302 0
M  V30 2456 O 237.39 -0.718048 -1.77636 0
M  V30 2457 C 237.584 -3.56929 0.183431 0
M  V30 2458 C 237.413 -4.21762 1.56036 0
M  V30 2459 C 236.183 -4.56881 2.15842 0
M  V30 2460 C 238.381 -4.49267 2.50327 0
M  V30 2461 N 236.363 -5.069 3.46303 0
M  V30 2462 C 237.734 -5.00851 3.65443 0
M  V30 2463 C 239.789 -4.31257 2.48841 0
M  V30 2464 C 238.492 -5.36317 4.79329 0
M  V30 2465 C 240.518 -4.678 3.61824 0
M  V30 2466 C 239.88 -5.19537 4.75668 0
M  V30 2467 H 235.979 -0.772583 0.120993 0
M  V30 2468 H 238.563 -1.73203 0.889306 0
M  V30 2469 H 236.734 -3.85576 -0.467483 0
M  V30 2470 H 238.466 -4.03603 -0.297808 0
M  V30 2471 H 235.221 -4.4268 1.68319 0
M  V30 2472 H 235.645 -5.36338 4.13123 0
M  V30 2473 H 240.287 -3.90511 1.62051 0
M  V30 2474 H 238.005 -5.75995 5.66794 0
M  V30 2475 H 241.591 -4.55541 3.61903 0
M  V30 2476 H 240.471 -5.47287 5.61646 0
M  V30 2477 N 237.974 -0.419461 -1.51915 0
M  V30 2478 C 239.251 0.211999 -1.94448 0
M  V30 2479 C 239.631 1.61703 -1.35703 0
M  V30 2480 O 238.979 2.22102 -0.536931 0
M  V30 2481 C 239.189 0.207872 -3.4838 0
M  V30 2482 C 240.537 0.422192 -4.22496 0
M  V30 2483 O 241.561 0.286778 -3.55044 0
M  V30 2484 O 240.42 0.690009 -5.42126 0
M  V30 2485 H 237.514 0.139586 -0.815135 0
M  V30 2486 H 240.06 -0.476151 -1.62883 0
M  V30 2487 H 238.832 -0.775102 -3.83546 0
M  V30 2488 H 238.455 0.939688 -3.86336 0
M  V30 2489 N 239.452 1.56882 -0.150215 0
M  V30 2490 C 240.68 2.00593 0.506948 0
M  V30 2491 C 241.095 1.03033 1.58208 0
M  V30 2492 O 240.452 0.0278396 1.82479 0
M  V30 2493 C 240.503 3.44209 1.10465 0
M  V30 2494 O 240.224 4.3804 0.0724636 0
M  V30 2495 C 241.725 4.03214 1.84211 0
M  V30 2496 H 238.945 0.65795 0.13169 0
M  V30 2497 H 241.489 2.03018 -0.245743 0
M  V30 2498 H 239.644 3.42625 1.80795 0
M  V30 2499 H 240.058 5.22007 0.510793 0
M  V30 2500 H 241.532 5.0569 2.21318 0
M  V30 2501 H 242.009 3.44107 2.72923 0
M  V30 2502 H 242.615 4.08437 1.18572 0
M  V30 2503 N 240.93 -0.123565 1.57115 0
M  V30 2504 C 241.84 -1.17074 2.033 0
M  V30 2505 C 242.856 -1.4561 0.952559 0
M  V30 2506 O 244.032 -1.56817 1.26374 0
M  V30 2507 C 241.097 -2.47857 2.42421 0
M  V30 2508 C 240.158 -2.26758 3.64526 0
M  V30 2509 C 239.391 -3.51305 4.01771 0
M  V30 2510 O 239.614 -4.5843 3.39409 0
M  V30 2511 O 238.548 -3.42578 4.94898 0
M  V30 2512 H 242.374 -0.808555 2.92739 0
M  V30 2513 H 239.959 -0.334027 1.45618 0
M  V30 2514 H 241.841 -3.2492 2.68338 0
M  V30 2515 H 240.516 -2.83558 1.5613 0
M  V30 2516 H 239.423 -1.47569 3.43765 0
M  V30 2517 H 240.756 -1.95963 4.51508 0
M  V30 2518 N 242.408 -1.52605 -0.393616 0
M  V30 2519 C 243.819 -1.59417 -0.971761 0
M  V30 2520 C 244.17 -0.444173 -1.91106 0
M  V30 2521 O 243.295 0.433382 -2.12016 0
M  V30 2522 C 243.89 -2.88936 -1.76921 0
M  V30 2523 C 242.449 -2.98175 -2.29714 0
M  V30 2524 C 241.596 -2.54491 -1.10135 0
M  V30 2525 H 244.547 -1.57751 -0.173317 0
M  V30 2526 H 244.568 -2.75163 -2.62804 0
M  V30 2527 H 244.08 -3.72616 -1.08532 0
M  V30 2528 H 242.181 -2.19024 -3.01429 0
M  V30 2529 H 242.294 -4.02726 -2.59517 0
M  V30 2530 H 240.658 -2.08702 -1.45999 0
M  V30 2531 H 241.441 -3.4056 -0.432874 0
M  V30 2532 N 243.887 0.651787 -1.4349 0
M  V30 2533 C 244.817 1.77621 -1.51569 0
M  V30 2534 C 245.798 1.66022 -0.370253 0
M  V30 2535 O 246.983 1.85095 -0.587658 0
M  V30 2536 C 244.113 3.16056 -1.43966 0
M  V30 2537 C 243.067 3.4242 -2.56774 0
M  V30 2538 C 242.393 4.8067 -2.34223 0
M  V30 2539 C 243.693 3.37023 -3.99015 0
M  V30 2540 H 245.387 1.71117 -2.45681 0
M  V30 2541 H 242.933 0.821825 -1.18246 0
M  V30 2542 H 244.886 3.94472 -1.48221 0
M  V30 2543 H 243.61 3.23293 -0.463586 0
M  V30 2544 H 242.269 2.66375 -2.51873 0
M  V30 2545 H 241.917 4.84585 -1.34856 0
M  V30 2546 H 241.617 4.9927 -3.09844 0
M  V30 2547 H 243.141 5.61342 -2.40265 0
M  V30 2548 H 244.555 4.05374 -4.05395 0
M  V30 2549 H 242.952 3.67159 -4.74673 0
M  V30 2550 H 244.022 2.3518 -4.2405 0
M  V30 2551 N 245.365 1.30045 0.890287 0
M  V30 2552 C 246.297 1.11786 2.00091 0
M  V30 2553 C 247.31 0.0626307 1.62679 0
M  V30 2554 O 248.499 0.308112 1.75821 0
M  V30 2555 C 245.599 0.681527 3.31977 0
M  V30 2556 C 244.772 1.81735 3.97858 0
M  V30 2557 C 243.831 1.37045 5.08041 0
M  V30 2558 O 242.857 2.07677 5.29961 0
M  V30 2559 N 244.059 0.246525 5.79976 0
M  V30 2560 H 246.824 2.07441 2.16306 0
M  V30 2561 H 244.385 1.2211 1.06305 0
M  V30 2562 H 246.377 0.365675 4.03045 0
M  V30 2563 H 244.947 -0.182828 3.12065 0
M  V30 2564 H 244.167 2.30159 3.20032 0
M  V30 2565 H 245.455 2.57865 4.38615 0
M  V30 2566 H 244.853 -0.34215 5.64664 0
M  V30 2567 H 243.41 -0.00990438 6.51799 0
M  V30 2568 N 246.843 -1.10192 1.12674 0
M  V30 2569 C 248.089 -1.82475 0.884915 0
M  V30 2570 C 248.422 -1.85093 -0.58773 0
M  V30 2571 O 247.697 -1.3134 -1.43457 0
M  V30 2572 C 247.98 -3.29018 1.46353 0
M  V30 2573 C 247.833 -3.34718 3.00473 0
M  V30 2574 C 249.152 -4.25473 1.12519 0
M  V30 2575 H 246.271 -0.662492 0.322915 0
M  V30 2576 H 248.913 -1.2913 1.39375 0
M  V30 2577 H 247.063 -3.74576 1.03077 0
M  V30 2578 H 248.735 -2.97622 3.52447 0
M  V30 2579 H 246.978 -2.74541 3.35872 0
M  V30 2580 H 247.649 -4.37918 3.36053 0
M  V30 2581 H 250.125 -3.88161 1.499 0
M  V30 2582 H 249.001 -5.26365 1.55663 0
M  V30 2583 H 249.262 -4.42084 0.0377407 0
M  V30 2584 N 248.321 -0.919034 -1.28029 0
M  V30 2585 C 249.568 -0.554934 -1.94748 0
M  V30 2586 C 249.896 0.90231 -1.72304 0
M  V30 2587 O 249.151 1.65767 -1.04018 0
M  V30 2588 C 249.45 -0.816855 -3.4794 0
M  V30 2589 C 249.116 -2.25448 -3.90492 0
M  V30 2590 C 247.778 -2.64752 -4.01821 0
M  V30 2591 C 250.13 -3.18977 -4.12193 0
M  V30 2592 C 247.458 -3.96727 -4.32232 0
M  V30 2593 C 249.81 -4.50523 -4.44086 0
M  V30 2594 C 248.474 -4.89673 -4.53626 0
M  V30 2595 H 247.744 -0.203065 -0.712633 0
M  V30 2596 H 250.391 -1.16136 -1.52265 0
M  V30 2597 H 248.696 -0.127677 -3.91592 0
M  V30 2598 H 250.393 -0.514238 -3.97689 0
M  V30 2599 H 246.983 -1.93952 -3.82205 0
M  V30 2600 H 251.167 -2.89817 -4.02889 0
M  V30 2601 H 246.423 -4.26754 -4.37825 0
M  V30 2602 H 250.597 -5.23005 -4.59825 0
M  V30 2603 H 248.224 -5.91969 -4.76946 0
M  V30 2604 N 249.799 1.42003 -0.683588 0
M  V30 2605 C 251.045 2.01712 -0.209825 0
M  V30 2606 C 251.378 1.53968 1.18353 0
M  V30 2607 O 250.653 0.745661 1.79639 0
M  V30 2608 C 250.936 3.59202 -0.254197 0
M  V30 2609 C 250.789 4.17102 -1.68363 0
M  V30 2610 C 252.108 4.38344 0.392709 0
M  V30 2611 H 249.227 0.732891 -0.0777189 0
M  V30 2612 H 251.869 1.68909 -0.87004 0
M  V30 2613 H 250.019 3.87278 0.307954 0
M  V30 2614 H 251.691 3.99946 -2.29871 0
M  V30 2615 H 249.934 3.72597 -2.22157 0
M  V30 2616 H 250.605 5.26249 -1.6663 0
M  V30 2617 H 253.081 4.16011 -0.0859162 0
M  V30 2618 H 251.957 5.47901 0.331063 0
M  V30 2619 H 252.218 4.16887 1.47164 0
M  V30 2620 N 251.277 0.427512 1.51691 0
M  V30 2621 C 252.523 -0.142439 2.02299 0
M  V30 2622 C 252.856 -1.43214 1.31162 0
M  V30 2623 O 252.131 -1.89833 0.423511 0
M  V30 2624 C 252.414 -0.371301 3.58181 0
M  V30 2625 C 252.267 0.936358 4.39946 0
M  V30 2626 C 253.586 -1.14542 4.24933 0
M  V30 2627 H 250.705 -0.0502937 0.735282 0
M  V30 2628 H 253.347 0.564584 1.81418 0
M  V30 2629 H 251.497 -0.973559 3.76104 0
M  V30 2630 H 253.169 1.57184 4.33694 0
M  V30 2631 H 251.412 1.5432 4.05423 0
M  V30 2632 H 252.083 0.730388 5.47147 0
M  V30 2633 H 254.559 -0.635362 4.11221 0
M  V30 2634 H 253.435 -1.27431 5.33903 0
M  V30 2635 H 253.696 -2.17093 3.85127 0
M  V30 2636 N 252.755 -1.56801 0.158532 0
M  V30 2637 C 254.166 -1.83189 -0.360366 0
M  V30 2638 C 254.517 -1.07778 -1.63946 0
M  V30 2639 O 253.642 -0.326718 -2.13919 0
M  V30 2640 C 254.237 -3.32297 -0.660595 0
M  V30 2641 C 252.796 -3.59227 -1.12398 0
M  V30 2642 C 251.943 -2.76877 -0.153097 0
M  V30 2643 H 254.894 -1.54008 0.383031 0
M  V30 2644 H 254.915 -3.4908 -1.51405 0
M  V30 2645 H 254.427 -3.87156 0.270527 0
M  V30 2646 H 252.528 -3.09766 -2.07064 0
M  V30 2647 H 252.641 -4.67632 -1.04197 0
M  V30 2648 H 251.005 -2.46319 -0.647983 0
M  V30 2649 H 251.788 -3.34511 0.77182 0
M  V30 2650 N 254.233 0.115231 -1.57178 0
M  V30 2651 C 255.183 1.14707 -1.97044 0
M  V30 2652 C 256.167 1.36866 -0.845957 0
M  V30 2653 O 257.359 1.37895 -1.10968 0
M  V30 2654 C 254.488 2.47266 -2.38148 0
M  V30 2655 C 253.574 2.28566 -3.57237 0
M  V30 2656 N 253.965 1.79685 -4.72807 0
M  V30 2657 C 252.263 2.59208 -3.62943 0
M  V30 2658 C 252.964 1.74781 -5.54821 0
M  V30 2659 N 251.94 2.19264 -4.97417 0
M  V30 2660 H 255.742 0.761754 -2.83857 0
M  V30 2661 H 253.256 0.322928 -1.59157 0
M  V30 2662 H 255.253 3.219 -2.64927 0
M  V30 2663 H 253.913 2.86552 -1.52702 0
M  V30 2664 H 254.924 1.49177 -4.9595 0
M  V30 2665 H 251.601 3.02154 -2.88113 0
M  V30 2666 H 252.991 1.38212 -6.57531 0
M  V30 2667 N 255.711 1.52812 0.385517 0
M  V30 2668 C 256.936 1.72207 1.15583 0
M  V30 2669 C 257.361 0.441034 1.82857 0
M  V30 2670 O 256.719 -0.603465 1.70962 0
M  V30 2671 C 256.767 2.87476 2.17692 0
M  V30 2672 O 255.871 2.54693 3.24354 0
M  V30 2673 H 255.212 0.572526 0.336319 0
M  V30 2674 H 257.742 1.99618 0.448744 0
M  V30 2675 H 257.752 3.13072 2.6163 0
M  V30 2676 H 256.427 3.80408 1.68115 0
M  V30 2677 H 255.004 2.3985 2.85529 0
M  V30 2678 N 257.189 -0.644168 1.43834 0
M  V30 2679 C 258.139 -1.7501 1.46135 0
M  V30 2680 C 259.123 -1.57507 0.328685 0
M  V30 2681 O 260.315 -1.67465 0.5731 0
M  V30 2682 C 257.444 -3.13641 1.39585 0
M  V30 2683 C 256.53 -3.3666 2.57916 0
M  V30 2684 N 256.921 -3.30107 3.83227 0
M  V30 2685 C 255.219 -3.67411 2.52834 0
M  V30 2686 C 255.92 -3.53456 4.61999 0
M  V30 2687 N 254.896 -3.75705 3.9287 0
M  V30 2688 H 258.698 -1.68382 2.40883 0
M  V30 2689 H 256.212 -0.846169 1.38614 0
M  V30 2690 H 258.209 -3.92933 1.39317 0
M  V30 2691 H 256.869 -3.21444 0.45865 0
M  V30 2692 H 257.88 -3.09316 4.15384 0
M  V30 2693 H 254.557 -3.82275 1.67845 0
M  V30 2694 H 255.947 -3.54093 5.71024 0
M  V30 2695 N 258.668 -1.30515 -0.883378 0
M  V30 2696 C 259.616 -1.16941 -2.01066 0
M  V30 2697 C 260.61 -0.0809148 -1.69207 0
M  V30 2698 O 261.816 -0.241877 -1.78367 0
M  V30 2699 H 258.191 -0.361705 -0.659298 0
M  V30 2700 H 260.162 -2.12344 -2.09649 0
M  V30 2701 C 258.911 -0.879694 -3.36388 0
M  V30 2702 H 258.234 -1.70936 -3.61415 0
M  V30 2703 H 259.674 -0.82483 -4.159 0
M  V30 2704 C 258.133 0.417409 -3.34304 0
M  V30 2705 O 258.663 1.43843 -3.75063 0
M  V30 2706 N 256.869 0.429141 -2.87414 0
M  V30 2707 H 256.416 -0.402222 -2.5444 0
M  V30 2708 H 256.374 1.29696 -2.86403 0
M  V30 2709 N 260.146 1.09593 -1.13257 0
M  V30 2710 C 261.423 1.78293 -0.804432 0
M  V30 2711 C 261.803 1.99004 0.70431 0
M  V30 2712 O 261.151 1.59007 1.641 0
M  V30 2713 C 261.361 3.10707 -1.5894 0
M  V30 2714 C 262.709 3.85443 -1.78099 0
M  V30 2715 O 263.733 3.20454 -1.55525 0
M  V30 2716 O 262.592 5.02108 -2.15753 0
M  V30 2717 H 259.686 0.773156 -0.293528 0
M  V30 2718 H 262.232 1.16164 -1.23709 0
M  V30 2719 H 261.004 2.91106 -2.61482 0
M  V30 2720 H 260.627 3.80558 -1.15157 0
M  V30 2721 N 261.624 0.925811 1.2754 0
M  V30 2722 C 263.035 0.610102 1.7645 0
M  V30 2723 C 263.386 -0.874723 1.75622 0
M  V30 2724 O 262.511 -1.68444 1.35851 0
M  V30 2725 C 263.106 1.10073 3.20421 0
M  V30 2726 C 261.665 0.835723 3.67005 0
M  V30 2727 C 260.812 1.26054 2.46993 0
M  V30 2728 H 263.763 1.10579 1.13833 0
M  V30 2729 H 263.784 0.447557 3.77859 0
M  V30 2730 H 263.296 2.18143 3.20991 0
M  V30 2731 H 261.397 -0.231249 3.71882 0
M  V30 2732 H 261.51 1.45193 4.56569 0
M  V30 2733 H 259.874 0.679111 2.45479 0
M  V30 2734 H 260.657 2.34984 2.50275 0
M  V30 2735 N 263.102 -1.41638 0.69111 0
M  V30 2736 C 264.35 -2.00902 0.219758 0
M  V30 2737 C 264.671 -1.54994 -1.18329 0
M  V30 2738 O 263.941 -0.778628 -1.79762 0
M  V30 2739 H 262.521 -0.74289 0.0782558 0
M  V30 2740 H 265.183 -1.73327 0.891271 0
M  V30 2741 H 264.279 -3.11224 0.233708 0
M  V30 2742 N 264.58 -0.43555 -1.51462 0
M  V30 2743 C 265.826 0.123979 -2.03022 0
M  V30 2744 C 266.181 1.4054 -1.31401 0
M  V30 2745 O 265.474 1.86948 -0.419634 0
M  V30 2746 C 265.668 0.39942 -3.55161 0
M  V30 2747 C 265.497 -0.853754 -4.41521 0
M  V30 2748 C 264.267 -1.38675 -4.85898 0
M  V30 2749 C 266.465 -1.73939 -4.83994 0
M  V30 2750 N 264.447 -2.59265 -5.56466 0
M  V30 2751 C 265.818 -2.79135 -5.5361 0
M  V30 2752 C 267.873 -1.75402 -4.65981 0
M  V30 2753 C 266.576 -3.85737 -6.07124 0
M  V30 2754 C 268.602 -2.80938 -5.20411 0
M  V30 2755 C 267.964 -3.84854 -5.89972 0
M  V30 2756 H 264.063 0.00624887 -0.781975 0
M  V30 2757 H 266.647 -0.59582 -1.85359 0
M  V30 2758 H 264.818 1.08825 -3.72843 0
M  V30 2759 H 266.55 0.95015 -3.93388 0
M  V30 2760 H 263.305 -0.94094 -4.64159 0
M  V30 2761 H 263.729 -3.2041 -5.96378 0
M  V30 2762 H 268.371 -0.963926 -4.11665 0
M  V30 2763 H 266.089 -4.65586 -6.60496 0
M  V30 2764 H 269.675 -2.8301 -5.08327 0
M  V30 2765 H 268.555 -4.65176 -6.31333 0
M  V30 2766 N 266.058 1.56714 -0.166846 0
M  V30 2767 C 266.988 2.20754 0.760913 0
M  V30 2768 C 267.969 1.16178 1.24244 0
M  V30 2769 O 269.154 1.44592 1.29641 0
M  V30 2770 C 266.284 2.84478 1.99223 0
M  V30 2771 C 265.238 3.95053 1.64672 0
M  V30 2772 C 264.564 4.45805 2.95232 0
M  V30 2773 C 265.864 5.14865 0.878155 0
M  V30 2774 H 267.558 2.98537 0.22713 0
M  V30 2775 H 265.104 1.43596 0.107805 0
M  V30 2776 H 267.057 3.27951 2.64624 0
M  V30 2777 H 265.781 2.04056 2.55007 0
M  V30 2778 H 264.44 3.52228 1.01641 0
M  V30 2779 H 264.088 3.62181 3.49047 0
M  V30 2780 H 263.788 5.204 2.7287 0
M  V30 2781 H 265.312 4.91962 3.6167 0
M  V30 2782 H 266.726 5.55059 1.43466 0
M  V30 2783 H 265.123 5.95348 0.753738 0
M  V30 2784 H 266.193 4.84735 -0.126377 0
M  V30 2785 N 267.536 -0.106894 1.57237 0
M  V30 2786 C 268.483 -1.13049 2.01217 0
M  V30 2787 C 269.453 -1.40471 0.886403 0
M  V30 2788 O 270.638 -1.52133 1.15153 0
M  V30 2789 C 267.778 -2.4487 2.43172 0
M  V30 2790 C 266.891 -2.24281 3.69218 0
M  V30 2791 C 266.026 -3.49417 4.00101 0
M  V30 2792 C 265.065 -3.24038 5.19294 0
M  V30 2793 N 264.202 -4.41409 5.45988 0
M  V30 2794 H 269.042 -0.748456 2.88448 0
M  V30 2795 H 266.579 -0.358054 1.42676 0
M  V30 2796 H 268.537 -3.21786 2.65537 0
M  V30 2797 H 267.167 -2.80944 1.58967 0
M  V30 2798 H 266.219 -1.38224 3.54398 0
M  V30 2799 H 267.531 -2.01512 4.56283 0
M  V30 2800 H 266.685 -4.34746 4.2318 0
M  V30 2801 H 265.424 -3.75229 3.11535 0
M  V30 2802 H 264.429 -2.37102 4.96047 0
M  V30 2803 H 265.654 -2.99584 6.09447 0
M  V30 2804 H 263.6 -4.67319 4.60379 0
M  V30 2805 H 263.517 -4.21788 6.274 0
M  V30 2806 H 264.785 -5.27836 5.73593 0
M  V30 2807 N 269.014 -1.53014 -0.377408 0
M  V30 2808 C 270.242 -1.72515 -1.14219 0
M  V30 2809 C 270.657 -0.448735 -1.8339 0
M  V30 2810 O 270.014 0.577592 -1.73119 0
M  V30 2811 C 270.065 -2.8826 -2.18148 0
M  V30 2812 O 269.786 -4.10962 -1.51795 0
M  V30 2813 C 271.287 -3.19536 -3.07264 0
M  V30 2814 H 268.507 -0.577301 -0.342001 0
M  V30 2815 H 271.051 -1.99712 -0.439935 0
M  V30 2816 H 269.206 -2.63492 -2.83991 0
M  V30 2817 H 269.62 -4.75693 -2.20945 0
M  V30 2818 H 271.094 -4.03959 -3.76193 0
M  V30 2819 H 271.571 -2.34403 -3.71419 0
M  V30 2820 H 272.177 -3.46186 -2.47053 0
M  V30 2821 N 270.492 0.636531 -1.44174 0
M  V30 2822 C 271.739 1.39619 -1.46672 0
M  V30 2823 C 272.067 1.94257 -0.0972691 0
M  V30 2824 O 271.322 1.73768 0.900175 0
M  V30 2825 C 271.621 2.58309 -2.47005 0
M  V30 2826 C 271.287 2.21992 -3.92467 0
M  V30 2827 C 269.949 2.118 -4.32081 0
M  V30 2828 C 272.301 1.9321 -4.84065 0
M  V30 2829 C 269.629 1.71007 -5.61225 0
M  V30 2830 C 271.981 1.53911 -6.13591 0
M  V30 2831 C 270.645 1.42257 -6.52165 0
M  V30 2832 H 269.915 0.510902 -0.536712 0
M  V30 2833 H 272.562 0.722328 -1.77355 0
M  V30 2834 H 270.867 3.30903 -2.09786 0
M  V30 2835 H 272.564 3.16533 -2.46186 0
M  V30 2836 H 269.154 2.30841 -3.61124 0
M  V30 2837 H 273.338 1.99997 -4.54219 0
M  V30 2838 H 268.594 1.60583 -5.89935 0
M  V30 2839 H 272.768 1.30677 -6.8403 0
M  V30 2840 H 270.395 1.10419 -7.52138 0
M  V30 2841 N 271.97 1.30982 0.876444 0
M  V30 2842 C 272.918 1.18006 2.00443 0
M  V30 2843 C 273.912 0.0898871 1.69161 0
M  V30 2844 O 275.118 0.251333 1.78237 0
M  V30 2845 H 271.493 0.365196 0.65737 0
M  V30 2846 H 273.464 2.13453 2.0852 0
M  V30 2847 C 272.213 0.897521 3.35916 0
M  V30 2848 H 271.536 1.7285 3.60504 0
M  V30 2849 H 272.976 0.846874 4.15456 0
M  V30 2850 C 271.435 -0.399674 3.34521 0
M  V30 2851 O 271.965 -1.41852 3.7582 0
M  V30 2852 N 270.171 -0.413893 2.87637 0
M  V30 2853 H 269.718 0.41571 2.54224 0
M  V30 2854 H 269.676 -1.28175 2.87086 0
M  V30 2855 N 273.449 -1.08991 1.13837 0
M  V30 2856 C 274.726 -1.77863 0.813876 0
M  V30 2857 C 275.106 -1.99375 -0.693746 0
M  V30 2858 O 274.454 -1.59875 -1.63255 0
M  V30 2859 C 274.664 -3.0986 1.60586 0
M  V30 2860 C 276.012 -3.84493 1.8014 0
M  V30 2861 O 277.036 -3.19624 1.57222 0
M  V30 2862 O 275.895 -5.00957 2.18413 0
M  V30 2863 H 272.989 -0.771589 0.297624 0
M  V30 2864 H 275.535 -1.15507 1.24323 0
M  V30 2865 H 274.307 -2.89715 2.63022 0
M  V30 2866 H 273.93 -3.79942 1.17173 0
M  V30 2867 N 274.927 -0.932562 -1.27047 0
M  V30 2868 C 276.157 -0.591173 -1.97961 0
M  V30 2869 C 276.565 0.836219 -1.69717 0
M  V30 2870 O 275.908 1.56801 -0.957036 0
M  V30 2871 C 275.97 -0.743082 -3.51736 0
M  V30 2872 C 275.634 -2.1435 -4.03613 0
M  V30 2873 C 276.631 -3.11815 -4.16014 0
M  V30 2874 C 274.316 -2.46175 -4.37839 0
M  V30 2875 C 276.31 -4.39211 -4.61923 0
M  V30 2876 C 273.997 -3.73806 -4.83438 0
M  V30 2877 C 274.995 -4.70137 -4.95439 0
M  V30 2878 O 274.683 -5.95496 -5.40037 0
M  V30 2879 H 274.415 -0.222375 -0.638377 0
M  V30 2880 H 276.969 -1.25317 -1.62742 0
M  V30 2881 H 275.199 -0.0239739 -3.86693 0
M  V30 2882 H 276.888 -0.40603 -4.03864 0
M  V30 2883 H 277.654 -2.88549 -3.89826 0
M  V30 2884 H 273.533 -1.71936 -4.27737 0
M  V30 2885 H 277.077 -5.14404 -4.71205 0
M  V30 2886 H 272.974 -3.96888 -5.09068 0
M  V30 2887 H 273.742 -5.98554 -5.58279 0
M  V30 2888 N 276.405 1.4127 -0.698611 0
M  V30 2889 C 277.652 2.0118 -0.230865 0
M  V30 2890 C 277.98 1.55338 1.17049 0
M  V30 2891 O 277.235 0.756775 1.80475 0
M  V30 2892 C 277.534 3.56592 -0.240192 0
M  V30 2893 C 277.2 4.21955 -1.58948 0
M  V30 2894 C 275.862 4.39524 -1.95887 0
M  V30 2895 C 278.214 4.58576 -2.47704 0
M  V30 2896 C 275.542 4.90992 -3.2116 0
M  V30 2897 C 277.894 5.11435 -3.72313 0
M  V30 2898 C 276.558 5.27215 -4.0939 0
M  V30 2899 H 275.828 0.736169 -0.0844796 0
M  V30 2900 H 278.475 1.69124 -0.8983 0
M  V30 2901 H 276.78 3.88456 0.510797 0
M  V30 2902 H 278.477 4.00758 0.139296 0
M  V30 2903 H 275.067 4.08657 -1.29219 0
M  V30 2904 H 279.251 4.44654 -2.20445 0
M  V30 2905 H 274.507 5.01393 -3.49878 0
M  V30 2906 H 278.681 5.38752 -4.4127 0
M  V30 2907 H 276.308 5.66859 -5.06533 0
M  V30 2908 N 277.883 0.443576 1.51229 0
M  V30 2909 C 279.299 0.0962001 1.5931 0
M  V30 2910 C 279.499 -1.39501 1.45402 0
M  V30 2911 O 278.555 -2.16557 1.29843 0
M  V30 2912 C 279.868 0.621875 2.94199 0
M  V30 2913 C 281.416 0.582865 3.07525 0
M  V30 2914 C 281.891 1.08562 4.44948 0
M  V30 2915 N 283.382 1.04387 4.51284 0
M  V30 2916 C 284.117 1.40368 5.55954 0
M  V30 2917 N 283.613 1.83664 6.68011 0
M  V30 2918 N 285.406 1.32145 5.46346 0
M  V30 2919 H 277.557 1.41376 1.58514 0
M  V30 2920 H 279.82 0.582965 0.747567 0
M  V30 2921 H 279.526 1.66546 3.09767 0
M  V30 2922 H 279.4 0.0502125 3.77167 0
M  V30 2923 H 281.787 -0.451749 2.91622 0
M  V30 2924 H 281.868 1.191 2.26382 0
M  V30 2925 H 281.512 2.11873 4.61598 0
M  V30 2926 H 281.442 0.453956 5.2464 0
M  V30 2927 H 283.933 0.725986 3.70861 0
M  V30 2928 H 284.246 2.0934 7.43906 0
M  V30 2929 H 282.591 1.87596 6.69203 0
M  V30 2930 H 285.782 0.981808 4.57688 0
M  V30 2931 H 285.955 1.60514 6.27805 0
M  V30 2932 N 279.361 -1.56624 0.175154 0
M  V30 2933 C 280.638 -1.88688 -0.515373 0
M  V30 2934 C 281.018 -1.08564 -1.81044 0
M  V30 2935 O 280.366 -0.180703 -2.27784 0
M  V30 2936 C 280.576 -3.40768 -0.753552 0
M  V30 2937 C 281.924 -4.10587 -1.08184 0
M  V30 2938 O 282.948 -3.46106 -0.841961 0
M  V30 2939 O 281.807 -5.24512 -1.53459 0
M  V30 2940 H 278.901 -0.78301 -0.26613 0
M  V30 2941 H 281.447 -1.68347 0.213877 0
M  V30 2942 H 280.219 -3.90965 0.161829 0
M  V30 2943 H 279.842 -3.66733 -1.53598 0
M  V30 2944 N 280.839 0.0985539 -1.57292 0
M  V30 2945 C 281.786 1.11981 -2.01814 0
M  V30 2946 C 282.756 1.39999 -0.89384 0
M  V30 2947 O 283.941 1.5152 -1.15958 0
M  V30 2948 C 281.081 2.43577 -2.44467 0
M  V30 2949 C 280.194 2.2232 -3.70402 0
M  V30 2950 C 279.329 3.4729 -4.01949 0
M  V30 2951 C 278.368 3.2128 -5.21005 0
M  V30 2952 N 277.505 4.38507 -5.48321 0
M  V30 2953 H 282.345 0.733149 -2.88841 0
M  V30 2954 H 279.882 0.350482 -1.42864 0
M  V30 2955 H 281.84 3.20373 -2.6724 0
M  V30 2956 H 280.47 2.80097 -1.60455 0
M  V30 2957 H 279.522 1.36343 -3.55126 0
M  V30 2958 H 280.834 1.99089 -4.57345 0
M  V30 2959 H 279.988 4.32495 -4.25479 0
M  V30 2960 H 278.727 3.73572 -3.13521 0
M  V30 2961 H 277.732 2.34468 -4.97298 0
M  V30 2962 H 278.957 2.96348 -6.11028 0
M  V30 2963 H 276.903 4.64871 -4.62851 0
M  V30 2964 H 276.82 4.18455 -6.29628 0
M  V30 2965 H 278.088 5.24787 -5.76385 0
M  V30 2966 N 282.317 1.53212 0.369288 0
M  V30 2967 C 283.545 1.73119 1.13303 0
M  V30 2968 C 283.96 0.458455 1.83149 0
M  V30 2969 O 283.317 -0.568403 1.73423 0
M  V30 2970 C 283.368 2.89413 2.16616 0
M  V30 2971 O 283.089 4.11761 1.49614 0
M  V30 2972 C 284.59 3.21161 3.05566 0
M  V30 2973 H 281.81 0.579107 0.338934 0
M  V30 2974 H 284.354 1.99942 0.429338 0
M  V30 2975 H 282.509 2.64994 2.82589 0
M  V30 2976 H 282.923 4.76858 2.18419 0
M  V30 2977 H 284.397 4.05949 3.74045 0
M  V30 2978 H 284.874 2.36369 3.70171 0
M  V30 2979 H 285.48 3.47492 2.45213 0
M  V30 2980 N 283.795 -0.628877 1.44509 0
M  V30 2981 C 284.727 -1.754 1.47538 0
M  V30 2982 C 285.74 -1.58575 0.368506 0
M  V30 2983 O 286.929 -1.66847 0.634376 0
M  V30 2984 C 284.029 -3.1315 1.29577 0
M  V30 2985 C 283.202 -3.56413 2.53551 0
M  V30 2986 C 282.261 -4.7305 2.30457 0
M  V30 2987 O 281.287 -4.81247 3.03957 0
M  V30 2988 N 282.489 -5.64903 1.3366 0
M  V30 2989 H 285.254 -1.73272 2.44534 0
M  V30 2990 H 282.815 -0.813512 1.39977 0
M  V30 2991 H 284.807 -3.88902 1.11971 0
M  V30 2992 H 283.377 -3.09908 0.409371 0
M  V30 2993 H 282.597 -2.70847 2.86419 0
M  V30 2994 H 283.885 -3.82071 3.36005 0
M  V30 2995 H 283.283 -5.60975 0.729604 0
M  V30 2996 H 281.84 -6.40275 1.22032 0
M  V30 2997 N 285.273 -1.31445 -0.869486 0
M  V30 2998 C 286.503 -1.23942 -1.65294 0
M  V30 2999 C 286.911 0.197561 -1.88166 0
M  V30 3000 O 286.254 1.14019 -1.44033 0
M  V30 3001 C 286.316 -1.91385 -3.04322 0
M  V30 3002 C 285.98 -3.40726 -3.04557 0
M  V30 3003 C 286.977 -4.36464 -2.82481 0
M  V30 3004 C 284.662 -3.82425 -3.25663 0
M  V30 3005 C 286.656 -5.71876 -2.8149 0
M  V30 3006 C 284.343 -5.1795 -3.243 0
M  V30 3007 C 285.341 -6.12486 -3.02241 0
M  V30 3008 O 285.029 -7.45534 -3.00724 0
M  V30 3009 H 284.761 -0.429459 -0.522054 0
M  V30 3010 H 287.315 -1.73873 -1.0935 0
M  V30 3011 H 285.545 -1.36004 -3.61994 0
M  V30 3012 H 287.234 -1.77791 -3.64891 0
M  V30 3013 H 288 -4.05576 -2.65956 0
M  V30 3014 H 283.879 -3.09274 -3.41863 0
M  V30 3015 H 287.423 -6.45638 -2.64191 0
M  V30 3016 H 283.32 -5.48473 -3.40365 0
M  V30 3017 H 284.088 -7.54713 -3.16782 0
M  V30 3018 N 286.751 1.08385 -1.14413 0
M  V30 3019 C 288 1.80153 -0.907076 0
M  V30 3020 C 288.313 1.87176 0.567851 0
M  V30 3021 O 289.519 2.55359 0.922172 0
M  V30 3022 C 287.975 3.23687 -1.57336 0
M  V30 3023 C 287.583 3.24897 -3.08457 0
M  V30 3024 C 289.327 4.00136 -1.41744 0
M  V30 3025 C 287.234 4.6302 -3.67921 0
M  V30 3026 H 286.164 0.675139 -0.335714 0
M  V30 3027 H 288.815 1.21733 -1.37307 0
M  V30 3028 H 287.197 3.82234 -1.03505 0
M  V30 3029 H 288.371 2.76055 -3.68958 0
M  V30 3030 H 286.686 2.61943 -3.2369 0
M  V30 3031 H 289.283 5.02201 -1.83572 0
M  V30 3032 H 289.626 4.14709 -0.363576 0
M  V30 3033 H 290.159 3.48058 -1.92614 0
M  V30 3034 H 286.898 4.5365 -4.73161 0
M  V30 3035 H 286.418 5.12143 -3.12201 0
M  V30 3036 H 288.097 5.31994 -3.68227 0
M  V30 3037 N 288.23 0.939286 1.26551 0
M  V30 3038 C 289.477 0.585847 1.9384 0
M  V30 3039 C 289.805 -0.874784 1.73718 0
M  V30 3040 O 289.06 -1.64092 1.06642 0
M  V30 3041 C 289.359 0.872106 3.46596 0
M  V30 3042 C 289.025 2.31632 3.86856 0
M  V30 3043 C 287.687 2.71111 3.97558 0
M  V30 3044 C 290.039 3.25494 4.07066 0
M  V30 3045 C 287.367 4.03553 4.25866 0
M  V30 3046 C 289.719 4.57531 4.36862 0
M  V30 3047 C 288.383 4.96828 4.45778 0
M  V30 3048 H 287.653 0.214377 0.709312 0
M  V30 3049 H 290.3 1.18544 1.50398 0
M  V30 3050 H 288.605 0.18996 3.91339 0
M  V30 3051 H 290.302 0.577442 3.96821 0
M  V30 3052 H 286.892 2.00008 3.79071 0
M  V30 3053 H 291.076 2.9619 3.98227 0
M  V30 3054 H 286.332 4.33665 4.30981 0
M  V30 3055 H 290.506 5.30254 4.51446 0
M  V30 3056 H 288.133 5.99482 4.67468 0
M  V30 3057 N 289.708 -1.40897 0.706093 0
M  V30 3058 C 290.656 -2.32572 0.0361893 0
M  V30 3059 C 291.65 -1.51532 -0.757266 0
M  V30 3060 O 292.856 -1.67396 -0.661703 0
M  V30 3061 H 289.231 -0.751966 -0.00709935 0
M  V30 3062 H 291.202 -2.86733 0.826249 0
M  V30 3063 C 289.951 -3.36418 -0.87854 0
M  V30 3064 H 289.274 -3.98836 -0.277401 0
M  V30 3065 H 290.714 -4.0308 -1.3154 0
M  V30 3066 C 289.173 -2.71141 -1.99961 0
M  V30 3067 O 289.703 -2.56735 -3.0895 0
M  V30 3068 N 287.909 -2.29671 -1.78043 0
M  V30 3069 H 287.456 -2.41588 -0.894042 0
M  V30 3070 H 287.414 -1.86332 -2.53235 0
M  V30 3071 N 291.186 -0.45159 -1.50991 0
M  V30 3072 C 292.134 0.366864 -2.29689 0
M  V30 3073 C 293.128 1.00809 -1.36139 0
M  V30 3074 O 294.334 0.941427 -1.53418 0
M  V30 3075 H 290.709 0.137133 -0.739391 0
M  V30 3076 H 292.68 -0.317538 -2.96706 0
M  V30 3077 C 291.429 1.44751 -3.16137 0
M  V30 3078 H 290.752 0.963473 -3.88017 0
M  V30 3079 H 292.192 1.99315 -3.74232 0
M  V30 3080 C 290.651 2.43869 -2.32442 0
M  V30 3081 O 291.181 3.4872 -1.99392 0
M  V30 3082 N 289.387 2.15105 -1.95392 0
M  V30 3083 H 288.934 1.29866 -2.22469 0
M  V30 3084 H 288.892 2.81661 -1.39693 0
M  V30 3085 N 292.664 1.56529 -0.183458 0
M  V30 3086 C 293.597 2.14417 0.781052 0
M  V30 3087 C 294.575 1.07761 1.21763 0
M  V30 3088 O 295.759 1.35807 1.30724 0
M  V30 3089 C 292.886 2.69361 2.05335 0
M  V30 3090 C 291.932 3.885 1.75982 0
M  V30 3091 S 292.765 5.27568 0.918256 0
M  V30 3092 C 293.921 5.85926 2.20095 0
M  V30 3093 H 294.154 2.95893 0.2889 0
M  V30 3094 H 291.687 1.54368 0.0313844 0
M  V30 3095 H 293.645 3.01662 2.78406 0
M  V30 3096 H 292.306 1.87949 2.51663 0
M  V30 3097 H 291.499 4.25314 2.70415 0
M  V30 3098 H 291.101 3.57149 1.10999 0
M  V30 3099 H 293.393 5.99579 3.15453 0
M  V30 3100 H 294.336 6.82761 1.87731 0
M  V30 3101 H 294.744 5.14438 2.32409 0
M  V30 3102 N 294.142 -0.090211 1.57342 0
M  V30 3103 C 295.388 -0.793982 1.86611 0
M  V30 3104 C 295.721 -1.78142 0.773252 0
M  V30 3105 O 294.996 -1.93271 -0.218304 0
M  V30 3106 C 295.279 -1.51839 3.26523 0
M  V30 3107 C 295.132 -0.548609 4.46442 0
M  V30 3108 C 296.451 -2.46779 3.64401 0
M  V30 3109 H 293.57 -0.287186 0.678744 0
M  V30 3110 H 296.212 -0.0575076 1.89913 0
M  V30 3111 H 294.362 -2.14617 3.23839 0
M  V30 3112 H 296.034 0.0725513 4.61243 0
M  V30 3113 H 294.277 0.137614 4.33582 0
M  V30 3114 H 294.948 -1.09271 5.41076 0
M  V30 3115 H 297.424 -1.94089 3.68061 0
M  V30 3116 H 296.3 -2.94479 4.63221 0
M  V30 3117 H 296.561 -3.30758 2.93346 0
M  V30 3118 N 295.62 -1.53406 -0.361157 0
M  V30 3119 C 296.55 -1.83136 -1.44857 0
M  V30 3120 C 297.531 -0.685174 -1.5569 0
M  V30 3121 O 298.716 -0.93544 -1.70186 0
M  V30 3122 C 295.846 -2.02522 -2.82138 0
M  V30 3123 C 294.8 -3.18302 -2.86126 0
M  V30 3124 C 294.126 -3.22989 -4.26125 0
M  V30 3125 C 295.426 -4.56796 -2.53248 0
M  V30 3126 H 297.12 -2.74201 -1.20226 0
M  V30 3127 H 294.666 -1.31938 -0.576922 0
M  V30 3128 H 296.619 -2.21904 -3.58241 0
M  V30 3129 H 295.343 -1.08172 -3.08166 0
M  V30 3130 H 294.002 -2.98747 -2.12475 0
M  V30 3131 H 293.65 -2.26267 -4.49235 0
M  V30 3132 H 293.35 -4.00781 -4.29708 0
M  V30 3133 H 294.874 -3.44559 -5.04094 0
M  V30 3134 H 296.288 -4.7631 -3.19064 0
M  V30 3135 H 294.685 -5.36862 -2.68141 0
M  V30 3136 H 295.755 -4.61606 -1.48484 0
M  V30 3137 N 297.098 0.621204 -1.44841 0
M  V30 3138 C 298.045 1.73267 -1.5247 0
M  V30 3139 C 299.015 1.6189 -0.371611 0
M  V30 3140 O 300.2 1.81668 -0.58321 0
M  V30 3141 C 297.34 3.11545 -1.48438 0
M  V30 3142 C 296.453 3.33827 -2.74196 0
M  V30 3143 C 295.588 4.62133 -2.61929 0
M  V30 3144 C 294.627 4.77627 -3.82804 0
M  V30 3145 N 293.764 5.97219 -3.69153 0
M  V30 3146 H 298.604 1.66082 -2.47428 0
M  V30 3147 H 296.141 0.810026 -1.22788 0
M  V30 3148 H 298.099 3.91528 -1.4409 0
M  V30 3149 H 296.729 3.1772 -0.570402 0
M  V30 3150 H 295.781 2.47715 -2.88689 0
M  V30 3151 H 297.093 3.41153 -3.6389 0
M  V30 3152 H 296.247 5.50291 -2.5547 0
M  V30 3153 H 294.986 4.57182 -1.69811 0
M  V30 3154 H 293.991 3.87896 -3.89637 0
M  V30 3155 H 295.216 4.84385 -4.75971 0
M  V30 3156 H 293.162 5.93339 -2.79794 0
M  V30 3157 H 293.079 6.05644 -4.52472 0
M  V30 3158 H 294.347 6.87912 -3.66603 0
M  V30 3159 N 298.576 1.31904 0.862503 0
M  V30 3160 C 299.506 1.22782 1.98612 0
M  V30 3161 C 300.487 0.113362 1.69722 0
M  V30 3162 O 301.672 0.299218 1.91881 0
M  V30 3163 C 298.802 0.942058 3.34279 0
M  V30 3164 C 297.756 2.0169 3.77499 0
M  V30 3165 C 297.082 1.58369 5.10709 0
M  V30 3166 C 298.382 3.43096 3.93805 0
M  V30 3167 H 300.076 2.16788 2.06502 0
M  V30 3168 H 297.622 1.04366 0.992154 0
M  V30 3169 H 299.575 0.864818 4.1243 0
M  V30 3170 H 298.299 -0.0336603 3.26583 0
M  V30 3171 H 296.958 2.08416 3.01593 0
M  V30 3172 H 296.606 0.595628 4.99461 0
M  V30 3173 H 296.306 2.30279 5.40597 0
M  V30 3174 H 297.83 1.52067 5.91361 0
M  V30 3175 H 299.244 3.39003 4.62331 0
M  V30 3176 H 297.641 4.13288 4.35101 0
M  V30 3177 H 298.711 3.83334 2.96957 0
M  V30 3178 N 300.054 -1.07777 1.14986 0
M  V30 3179 C 301.001 -2.14867 0.842672 0
M  V30 3180 C 301.971 -1.6486 -0.202552 0
M  V30 3181 O 303.156 -1.90668 -0.0710568 0
M  V30 3182 C 300.296 -3.43486 0.333363 0
M  V30 3183 C 299.409 -4.07306 1.43965 0
M  V30 3184 C 298.544 -5.23744 0.886914 0
M  V30 3185 C 297.583 -5.79517 1.97043 0
M  V30 3186 N 296.72 -6.87291 1.4344 0
M  V30 3187 H 301.56 -2.40485 1.75986 0
M  V30 3188 H 299.097 -1.1801 0.878179 0
M  V30 3189 H 301.055 -4.17195 0.0198163 0
M  V30 3190 H 299.685 -3.18133 -0.546916 0
M  V30 3191 H 298.737 -3.31293 1.86946 0
M  V30 3192 H 300.049 -4.44771 2.25788 0
M  V30 3193 H 299.203 -6.04419 0.525651 0
M  V30 3194 H 297.942 -4.87685 0.0377957 0
M  V30 3195 H 296.947 -4.97491 2.34057 0
M  V30 3196 H 298.172 -6.17632 2.82325 0
M  V30 3197 H 296.118 -6.5318 0.607567 0
M  V30 3198 H 296.035 -7.23617 2.18895 0
M  V30 3199 H 297.303 -7.71682 1.10124 0
M  V30 3200 N 301.532 -0.945985 -1.26051 0
M  V30 3201 C 302.442 -0.465633 -2.29933 0
M  V30 3202 C 303.458 0.462761 -1.67733 0
M  V30 3203 O 304.634 0.341118 -1.9849 0
M  V30 3204 C 301.699 0.256994 -3.45746 0
M  V30 3205 C 300.76 -0.708549 -4.23412 0
M  V30 3206 C 299.993 -0.0203135 -5.33696 0
M  V30 3207 O 300.216 1.19571 -5.57726 0
M  V30 3208 O 299.15 -0.701459 -5.97799 0
M  V30 3209 H 302.976 -1.32866 -2.73094 0
M  V30 3210 H 300.561 -0.712071 -1.31339 0
M  V30 3211 H 302.443 0.663852 -4.16138 0
M  V30 3212 H 301.118 1.09533 -3.04605 0
M  V30 3213 H 300.025 -1.16545 -3.55483 0
M  V30 3214 H 301.358 -1.51465 -4.68315 0
M  V30 3215 N 303.011 1.40521 -0.713556 0
M  V30 3216 C 304.288 1.94775 -0.17943 0
M  V30 3217 C 304.668 1.65184 1.31444 0
M  V30 3218 O 304.016 0.968429 2.06963 0
M  V30 3219 C 304.226 3.45543 -0.489986 0
M  V30 3220 C 305.574 4.22442 -0.427536 0
M  V30 3221 O 306.598 3.53644 -0.425929 0
M  V30 3222 O 305.457 5.4501 -0.403292 0
M  V30 3223 H 302.551 0.826606 -0.0255192 0
M  V30 3224 H 305.097 1.5014 -0.790949 0
M  V30 3225 H 303.869 3.60432 -1.5233 0
M  V30 3226 H 303.492 3.97311 0.151598 0
M  V30 3227 N 304.489 0.459591 1.5075 0
M  V30 3228 C 305.714 -0.0996819 2.0716 0
M  V30 3229 C 306.139 -1.33761 1.32249 0
M  V30 3230 O 305.497 -1.77551 0.366786 0
M  V30 3231 C 305.545 -0.378226 3.58611 0
M  V30 3232 O 304.649 -1.46081 3.85661 0
M  V30 3233 H 303.99 0.00791392 0.663953 0
M  V30 3234 H 306.52 0.647329 1.9409 0
M  V30 3235 H 306.53 -0.622135 4.03229 0
M  V30 3236 H 305.205 0.526439 4.12555 0
M  V30 3237 H 303.782 -1.20511 3.5289 0
M  V30 3238 N 305.967 -1.56429 0.191757 0
M  V30 3239 C 307.383 -1.58754 -0.164137 0
M  V30 3240 C 307.583 -1.20782 -1.61288 0
M  V30 3241 O 306.639 -0.928999 -2.34789 0
M  V30 3242 C 307.952 -3.00396 0.135195 0
M  V30 3243 C 309.5 -3.1291 0.0750351 0
M  V30 3244 C 309.975 -4.56679 0.347632 0
M  V30 3245 N 311.466 -4.62252 0.296131 0
M  V30 3246 C 312.201 -5.71379 0.480948 0
M  V30 3247 N 311.697 -6.88986 0.725933 0
M  V30 3248 N 313.49 -5.60563 0.415435 0
M  V30 3249 H 305.641 -1.79393 1.13718 0
M  V30 3250 H 307.904 -0.832414 0.453643 0
M  V30 3251 H 307.61 -3.32726 1.13958 0
M  V30 3252 H 307.484 -3.72963 -0.563773 0
M  V30 3253 H 309.871 -2.80394 -0.919948 0
M  V30 3254 H 309.952 -2.42736 0.807029 0
M  V30 3255 H 309.596 -4.89907 1.33992 0
M  V30 3256 H 309.526 -5.25039 -0.405212 0
M  V30 3257 H 312.017 -3.7773 0.113259 0
M  V30 3258 H 312.33 -7.68046 0.855857 0
M  V30 3259 H 310.675 -6.90801 0.762788 0
M  V30 3260 H 313.866 -4.67561 0.224486 0
M  V30 3261 H 314.039 -6.45551 0.562889 0
M  V30 3262 N 307.445 0.0818655 -1.57387 0
M  V30 3263 C 308.861 0.436412 -1.53517 0
M  V30 3264 C 309.061 1.79758 -0.910459 0
M  V30 3265 O 308.117 2.47324 -0.508636 0
M  V30 3266 C 309.43 0.386734 -2.98203 0
M  V30 3267 C 310.978 0.467644 -3.09487 0
M  V30 3268 C 311.453 0.447978 -4.55804 0
M  V30 3269 N 312.944 0.508348 -4.60402 0
M  V30 3270 C 313.679 0.515184 -5.71081 0
M  V30 3271 N 313.175 0.477435 -6.91153 0
M  V30 3272 N 314.968 0.560988 -5.59294 0
M  V30 3273 H 307.119 -0.809546 -1.96367 0
M  V30 3274 H 309.382 -0.302733 -0.898363 0
M  V30 3275 H 309.088 -0.546539 -3.47427 0
M  V30 3276 H 308.962 1.20075 -3.57578 0
M  V30 3277 H 311.349 1.39134 -2.60242 0
M  V30 3278 H 311.43 -0.374753 -2.5304 0
M  V30 3279 H 311.074 -0.471826 -5.05704 0
M  V30 3280 H 311.004 1.30777 -5.10103 0
M  V30 3281 H 313.495 0.54218 -3.7399 0
M  V30 3282 H 313.808 0.486299 -7.71268 0
M  V30 3283 H 312.153 0.444278 -6.93579 0
M  V30 3284 H 315.344 0.5881 -4.64391 0
M  V30 3285 H 315.517 0.562846 -6.45551 0
M  V30 3286 N 308.923 1.53595 0.353017 0
M  V30 3287 C 309.87 1.80919 1.43308 0
M  V30 3288 C 310.84 0.654288 1.5267 0
M  V30 3289 O 312.025 0.897759 1.6836 0
M  V30 3290 C 309.165 2.01605 2.80089 0
M  V30 3291 C 308.278 3.29321 2.79593 0
M  V30 3292 C 307.413 3.40125 4.0803 0
M  V30 3293 C 306.452 4.61826 4.01725 0
M  V30 3294 N 305.589 4.69716 5.21834 0
M  V30 3295 H 310.429 2.73074 1.19308 0
M  V30 3296 H 307.966 1.35263 0.578131 0
M  V30 3297 H 309.924 2.11586 3.59565 0
M  V30 3298 H 308.554 1.12772 3.0246 0
M  V30 3299 H 307.606 3.28229 1.92276 0
M  V30 3300 H 308.918 4.18884 2.70809 0
M  V30 3301 H 308.072 3.49488 4.95927 0
M  V30 3302 H 306.811 2.48601 4.19582 0
M  V30 3303 H 305.816 4.52552 3.12213 0
M  V30 3304 H 307.041 5.54705 3.91764 0
M  V30 3305 H 304.987 3.81097 5.33948 0
M  V30 3306 H 304.904 5.53202 5.1527 0
M  V30 3307 H 306.172 4.83376 6.11529 0
M  V30 3308 N 310.401 -0.613514 1.45168 0
M  V30 3309 C 311.648 -1.37268 1.48875 0
M  V30 3310 C 311.976 -1.94077 0.128161 0
M  V30 3311 O 311.231 -1.75178 -0.872416 0
M  V30 3312 C 311.53 -2.54347 2.51083 0
M  V30 3313 C 311.196 -2.1572 3.95949 0
M  V30 3314 C 309.858 -2.04899 4.35396 0
M  V30 3315 C 312.21 -1.85485 4.87078 0
M  V30 3316 C 309.538 -1.62057 5.63875 0
M  V30 3317 C 311.89 -1.4413 6.15962 0
M  V30 3318 C 310.554 -1.31863 6.54346 0
M  V30 3319 H 309.824 -0.502299 0.544773 0
M  V30 3320 H 312.471 -0.694021 1.78481 0
M  V30 3321 H 310.776 -3.27524 2.15024 0
M  V30 3322 H 312.473 -3.12577 2.51191 0
M  V30 3323 H 309.063 -2.25066 3.64751 0
M  V30 3324 H 313.247 -1.92745 4.57343 0
M  V30 3325 H 308.503 -1.51177 5.92415 0
M  V30 3326 H 312.677 -1.19778 6.86022 0
M  V30 3327 H 310.304 -0.984392 7.538 0
M  V30 3328 N 311.879 -1.3236 -0.855495 0
M  V30 3329 C 313.128 -1.22226 -1.60448 0
M  V30 3330 C 313.441 0.214733 -1.94418 0
M  V30 3331 O 314.647 0.437917 -2.67945 0
M  V30 3332 C 313.103 -2.14063 -2.89318 0
M  V30 3333 C 312.711 -3.62839 -2.62777 0
M  V30 3334 C 314.455 -2.12764 -3.67331 0
M  V30 3335 C 312.362 -4.4664 -3.87643 0
M  V30 3336 H 311.292 -0.453904 -0.602069 0
M  V30 3337 H 313.943 -1.57314 -0.944698 0
M  V30 3338 H 312.325 -1.71889 -3.5675 0
M  V30 3339 H 313.499 -4.1335 -2.03662 0
M  V30 3340 H 311.814 -3.66261 -1.98096 0
M  V30 3341 H 314.411 -2.72611 -4.59987 0
M  V30 3342 H 314.754 -1.11841 -4.00995 0
M  V30 3343 H 315.287 -2.53214 -3.06802 0
M  V30 3344 H 312.026 -5.48373 -3.5912 0
M  V30 3345 H 311.546 -4.0088 -4.46156 0
M  V30 3346 H 313.225 -4.59597 -4.55389 0
M  V30 3347 N 313.357 1.07166 -1.15556 0
M  V30 3348 C 314.603 1.80222 -0.942961 0
M  V30 3349 C 314.958 1.85121 0.524209 0
M  V30 3350 O 314.251 1.32531 1.38369 0
M  V30 3351 C 314.445 3.24707 -1.49332 0
M  V30 3352 C 314.274 3.33887 -3.01247 0
M  V30 3353 C 313.044 3.44337 -3.69811 0
M  V30 3354 C 315.242 3.24484 -3.99017 0
M  V30 3355 N 313.224 3.42439 -5.09518 0
M  V30 3356 C 314.595 3.29726 -5.25053 0
M  V30 3357 C 316.65 3.08307 -3.90962 0
M  V30 3358 C 315.353 3.20455 -6.43973 0
M  V30 3359 C 317.379 3.00371 -5.09442 0
M  V30 3360 C 316.741 3.06227 -6.34354 0
M  V30 3361 H 312.84 0.672709 -0.398731 0
M  V30 3362 H 315.424 1.27905 -1.46794 0
M  V30 3363 H 313.595 3.7544 -0.994946 0
M  V30 3364 H 315.327 3.85894 -1.21935 0
M  V30 3365 H 312.082 3.48762 -3.20409 0
M  V30 3366 H 312.506 3.45013 -5.8249 0
M  V30 3367 H 317.148 3.02633 -2.95251 0
M  V30 3368 H 314.866 3.24888 -7.39914 0
M  V30 3369 H 318.452 2.88955 -5.04971 0
M  V30 3370 H 317.332 3.00132 -7.24493 0
M  V30 3371 N 314.835 0.952656 1.25548 0
M  V30 3372 C 316.06 0.623025 1.97821 0
M  V30 3373 C 316.485 -0.7976 1.70352 0
M  V30 3374 O 315.843 -1.53905 0.958283 0
M  V30 3375 C 315.891 0.885532 3.49558 0
M  V30 3376 O 314.995 -0.0366641 4.12384 0
M  V30 3377 H 314.336 0.237082 0.620232 0
M  V30 3378 H 316.866 1.27871 1.59719 0
M  V30 3379 H 316.876 0.811009 3.99858 0
M  V30 3380 H 315.551 1.92094 3.6888 0
M  V30 3381 H 314.128 0.0898954 3.72792 0
M  V30 3382 N 316.313 -1.40141 0.720998 0
M  V30 3383 C 317.223 -2.34486 0.0731031 0
M  V30 3384 C 318.239 -1.57587 -0.737723 0
M  V30 3385 O 319.415 -1.89949 -0.669429 0
M  V30 3386 C 316.48 -3.36528 -0.833656 0
M  V30 3387 C 315.541 -4.29298 -0.0121673 0
M  V30 3388 C 314.774 -5.26466 -0.875742 0
M  V30 3389 O 314.997 -5.29745 -2.11485 0
M  V30 3390 O 313.931 -6.01092 -0.31185 0
M  V30 3391 H 317.757 -2.9152 0.851444 0
M  V30 3392 H 315.342 -1.41427 0.481527 0
M  V30 3393 H 317.224 -3.99093 -1.35289 0
M  V30 3394 H 315.899 -2.81899 -1.59105 0
M  V30 3395 H 314.806 -3.70001 0.552262 0
M  V30 3396 H 316.139 -4.87094 0.707129 0
M  V30 3397 N 317.792 -0.46758 -1.50504 0
M  V30 3398 C 319.041 0.0902868 -2.01498 0
M  V30 3399 C 319.354 1.411 -1.35463 0
M  V30 3400 O 320.56 2.0536 -1.77594 0
M  V30 3401 C 319.016 0.21142 -3.59278 0
M  V30 3402 C 318.624 -1.10065 -4.34269 0
M  V30 3403 C 320.368 0.721433 -4.18325 0
M  V30 3404 C 318.275 -0.943505 -5.83825 0
M  V30 3405 H 317.205 0.037517 -0.753066 0
M  V30 3406 H 319.856 -0.601943 -1.73346 0
M  V30 3407 H 318.238 0.967352 -3.84003 0
M  V30 3408 H 319.412 -1.86726 -4.21272 0
M  V30 3409 H 317.727 -1.5415 -3.86816 0
M  V30 3410 H 320.324 0.85598 -5.27804 0
M  V30 3411 H 320.667 1.71186 -3.79475 0
M  V30 3412 H 321.2 0.0229843 -3.97793 0
M  V30 3413 H 317.939 -1.90719 -6.27141 0
M  V30 3414 H 317.459 -0.217213 -5.99407 0
M  V30 3415 H 319.138 -0.608715 -6.4413 0
M  V30 3416 N 319.27 1.56325 -0.20005 0
M  V30 3417 C 320.495 2.02548 0.44597 0
M  V30 3418 C 320.92 1.07922 1.5406 0
M  V30 3419 O 320.278 0.0635775 1.81188 0
M  V30 3420 C 320.326 3.47175 0.974761 0
M  V30 3421 O 319.43 3.55671 2.08739 0
M  V30 3422 H 318.771 0.655862 0.103638 0
M  V30 3423 H 321.301 2.02201 -0.312381 0
M  V30 3424 H 321.311 3.87067 1.2901 0
M  V30 3425 H 319.986 4.15538 0.17347 0
M  V30 3426 H 318.563 3.27657 1.78032 0
M  V30 3427 N 320.748 -0.0735177 1.57428 0
M  V30 3428 C 321.978 -0.78483 1.91112 0
M  V30 3429 C 322.386 -1.71729 0.7941 0
M  V30 3430 O 321.729 -1.82105 -0.241542 0
M  V30 3431 C 321.791 -1.63346 3.20247 0
M  V30 3432 C 321.455 -0.870557 4.48632 0
M  V30 3433 C 322.452 -0.19058 5.19551 0
M  V30 3434 C 320.137 -0.838242 4.95256 0
M  V30 3435 C 322.131 0.511503 6.35344 0
M  V30 3436 C 319.818 -0.132386 6.10957 0
M  V30 3437 C 320.816 0.541288 6.80852 0
M  V30 3438 O 320.504 1.23578 7.94345 0
M  V30 3439 H 320.236 -0.228408 0.636244 0
M  V30 3440 H 322.79 -0.0486039 2.05342 0
M  V30 3441 H 321.02 -2.41245 3.02222 0
M  V30 3442 H 322.709 -2.22329 3.39595 0
M  V30 3443 H 323.475 -0.206864 4.84559 0
M  V30 3444 H 319.354 -1.35206 4.40727 0
M  V30 3445 H 322.898 1.03789 6.89836 0
M  V30 3446 H 318.795 -0.114023 6.45399 0
M  V30 3447 H 319.563 1.14487 8.10454 0
M  V30 3448 N 322.226 -1.5378 -0.344866 0
M  V30 3449 C 323.156 -1.84662 -1.42906 0
M  V30 3450 C 324.137 -0.701648 -1.54955 0
M  V30 3451 O 325.322 -0.953438 -1.69184 0
M  V30 3452 C 322.452 -2.05503 -2.79974 0
M  V30 3453 C 321.406 -3.21318 -2.82734 0
M  V30 3454 C 320.732 -3.2749 -4.22675 0
M  V30 3455 C 322.032 -4.59456 -2.48389 0
M  V30 3456 H 323.726 -2.75461 -1.17311 0
M  V30 3457 H 321.272 -1.32542 -0.562896 0
M  V30 3458 H 323.225 -2.25691 -3.55867 0
M  V30 3459 H 321.949 -1.11434 -3.07002 0
M  V30 3460 H 320.608 -3.00984 -2.09294 0
M  V30 3461 H 320.256 -2.31019 -4.4681 0
M  V30 3462 H 319.956 -4.05316 -4.25433 0
M  V30 3463 H 321.48 -3.49887 -5.00412 0
M  V30 3464 H 322.894 -4.79667 -3.13995 0
M  V30 3465 H 321.291 -5.39675 -2.62432 0
M  V30 3466 H 322.361 -4.63155 -1.4358 0
M  V30 3467 N 323.704 0.605807 -1.45491 0
M  V30 3468 C 324.929 1.39625 -1.53361 0
M  V30 3469 C 325.354 1.87351 -0.167645 0
M  V30 3470 O 324.712 1.60243 0.848051 0
M  V30 3471 C 324.76 2.57559 -2.5238 0
M  V30 3472 O 323.864 3.58248 -2.04285 0
M  V30 3473 H 323.205 0.416771 -0.516912 0
M  V30 3474 H 325.735 0.737103 -1.90861 0
M  V30 3475 H 325.745 3.0478 -2.71244 0
M  V30 3476 H 324.42 2.22171 -3.51586 0
M  V30 3477 H 322.997 3.17664 -1.95305 0
M  V30 3478 N 325.182 1.32811 0.848464 0
M  V30 3479 C 326.129 1.22265 1.95755 0
M  V30 3480 C 327.099 0.103413 1.65778 0
M  V30 3481 O 328.284 0.280033 1.88734 0
M  V30 3482 C 325.424 0.958014 3.31536 0
M  V30 3483 C 324.537 2.16262 3.73971 0
M  V30 3484 C 323.672 1.83295 4.98575 0
M  V30 3485 C 322.711 3.00041 5.33518 0
M  V30 3486 N 321.848 2.67125 6.49299 0
M  V30 3487 H 326.688 2.17128 2.04107 0
M  V30 3488 H 324.225 1.07982 0.998913 0
M  V30 3489 H 326.183 0.785052 4.09747 0
M  V30 3490 H 324.813 0.046159 3.22767 0
M  V30 3491 H 323.865 2.44565 2.91362 0
M  V30 3492 H 325.177 3.03572 3.95785 0
M  V30 3493 H 324.331 1.62586 5.84509 0
M  V30 3494 H 323.07 0.932078 4.7871 0
M  V30 3495 H 322.075 3.21374 4.46093 0
M  V30 3496 H 323.3 3.90869 5.55336 0
M  V30 3497 H 321.246 1.79586 6.3094 0
M  V30 3498 H 321.163 3.47965 6.71161 0
M  V30 3499 H 322.431 2.49861 7.3837 0
M  V30 3500 N 326.66 -1.06551 1.16123 0
M  V30 3501 C 327.906 -1.79719 0.952505 0
M  V30 3502 C 328.261 -1.85396 -0.514385 0
M  V30 3503 O 327.554 -1.33263 -1.37665 0
M  V30 3504 C 327.748 -3.23911 1.51052 0
M  V30 3505 C 327.577 -3.32284 3.03013 0
M  V30 3506 C 326.347 -3.42371 3.71632 0
M  V30 3507 C 328.545 -3.22363 4.00732 0
M  V30 3508 N 326.527 -3.39732 5.11327 0
M  V30 3509 C 327.898 -3.26937 5.26794 0
M  V30 3510 C 329.953 -3.0623 3.92591 0
M  V30 3511 C 328.656 -3.17035 6.45663 0
M  V30 3512 C 330.682 -2.97665 5.11028 0
M  V30 3513 C 330.044 -3.02858 6.35969 0
M  V30 3514 H 326.143 -0.670585 0.402293 0
M  V30 3515 H 328.727 -1.27125 1.4747 0
M  V30 3516 H 326.898 -3.74907 1.01484 0
M  V30 3517 H 328.63 -3.85242 1.2398 0
M  V30 3518 H 325.385 -3.47058 3.22254 0
M  V30 3519 H 325.809 -3.41919 5.84312 0
M  V30 3520 H 330.451 -3.01063 2.96852 0
M  V30 3521 H 328.169 -3.2096 7.41627 0
M  V30 3522 H 331.755 -2.86273 5.06497 0
M  V30 3523 H 330.635 -2.96286 7.26075 0
M  V30 3524 N 328.138 -0.959301 -1.25041 0
M  V30 3525 C 329.384 -0.627096 -1.93492 0
M  V30 3526 C 329.739 0.827484 -1.73696 0
M  V30 3527 O 329.032 1.58651 -1.07427 0
M  V30 3528 C 329.226 -0.927136 -3.45165 0
M  V30 3529 C 329.055 -2.40933 -3.79712 0
M  V30 3530 C 327.825 -3.0677 -4.01522 0
M  V30 3531 C 330.023 -3.38894 -3.86853 0
M  V30 3532 N 328.005 -4.44815 -4.231 0
M  V30 3533 C 329.376 -4.62263 -4.13174 0
M  V30 3534 C 331.431 -3.33668 -3.69554 0
M  V30 3535 C 330.134 -5.81052 -4.23995 0
M  V30 3536 C 332.16 -4.518 -3.81616 0
M  V30 3537 C 331.522 -5.73957 -4.08354 0
M  V30 3538 H 327.621 -0.280166 -0.73009 0
M  V30 3539 H 330.205 -1.23244 -1.50729 0
M  V30 3540 H 328.376 -0.350685 -3.86814 0
M  V30 3541 H 330.108 -0.554361 -4.00885 0
M  V30 3542 H 326.863 -2.57327 -3.97593 0
M  V30 3543 H 327.287 -5.16319 -4.37885 0
M  V30 3544 H 331.929 -2.40268 -3.47895 0
M  V30 3545 H 329.647 -6.74888 -4.44468 0
M  V30 3546 H 333.233 -4.49309 -3.69612 0
M  V30 3547 H 332.113 -6.6384 -4.17475 0
M  V30 3548 N 329.616 1.39756 -0.72842 0
M  V30 3549 C 330.893 1.94574 -0.200079 0
M  V30 3550 C 331.273 1.66569 1.29684 0
M  V30 3551 O 330.621 0.990326 2.05924 0
M  V30 3552 C 330.831 3.45004 -0.526608 0
M  V30 3553 C 332.179 4.21965 -0.472318 0
M  V30 3554 O 333.203 3.53173 -0.463413 0
M  V30 3555 O 332.062 5.44552 -0.461075 0
M  V30 3556 H 329.156 0.826289 -0.0342851 0
M  V30 3557 H 331.702 1.49293 -0.806829 0
M  V30 3558 H 330.474 3.58796 -1.56144 0
M  V30 3559 H 330.097 3.97449 0.109449 0
M  V30 3560 N 331.094 0.475555 1.50254 0
M  V30 3561 C 332.343 -0.0795996 2.01543 0
M  V30 3562 C 332.656 -1.4038 1.36209 0
M  V30 3563 O 333.862 -2.04415 1.7868 0
M  V30 3564 C 332.318 -0.192363 3.59386 0
M  V30 3565 C 331.926 1.12367 4.33679 0
M  V30 3566 C 333.67 -0.699238 4.18701 0
M  V30 3567 C 331.577 0.974453 5.83317 0
M  V30 3568 H 330.507 -0.0335228 0.753254 0
M  V30 3569 H 333.158 0.611128 1.73025 0
M  V30 3570 H 331.54 -0.946974 3.84511 0
M  V30 3571 H 332.714 1.88958 4.20276 0
M  V30 3572 H 331.029 1.562 3.85993 0
M  V30 3573 H 333.626 -0.827978 5.28251 0
M  V30 3574 H 333.969 -1.69171 3.80377 0
M  V30 3575 H 334.502 -0.00188807 3.978 0
M  V30 3576 H 331.241 1.94042 6.26121 0
M  V30 3577 H 330.761 0.248998 5.99283 0
M  V30 3578 H 332.44 0.642867 6.43798 0
M  V30 3579 N 332.573 -1.56217 0.208337 0
M  V30 3580 C 333.822 -1.97124 -0.427204 0
M  V30 3581 C 334.135 -1.09859 -1.61835 0
M  V30 3582 O 335.341 -1.40606 -2.32255 0
M  V30 3583 C 333.797 -3.50633 -0.811442 0
M  V30 3584 C 333.405 -4.46582 0.35615 0
M  V30 3585 C 335.149 -4.00282 -1.41332 0
M  V30 3586 C 333.056 -5.91379 -0.0497852 0
M  V30 3587 H 331.986 -0.736086 -0.163381 0
M  V30 3588 H 334.637 -1.8099 0.302456 0
M  V30 3589 H 333.019 -3.62319 -1.59815 0
M  V30 3590 H 334.193 -4.46636 1.1337 0
M  V30 3591 H 332.508 -4.07202 0.870396 0
M  V30 3592 H 335.105 -5.0595 -1.72972 0
M  V30 3593 H 335.448 -3.45359 -2.32449 0
M  V30 3594 H 335.981 -3.91764 -0.690323 0
M  V30 3595 H 332.72 -6.50255 0.827529 0
M  V30 3596 H 332.24 -5.94549 -0.791926 0
M  V30 3597 H 333.919 -6.45209 -0.481042 0
M  V30 3598 N 334.051 0.0651679 -1.57465 0
M  V30 3599 C 335.328 0.79644 -1.78651 0
M  V30 3600 C 335.708 1.95454 -0.797566 0
M  V30 3601 O 335.056 2.27882 0.167946 0
M  V30 3602 C 335.266 1.26322 -3.25337 0
M  V30 3603 C 336.614 1.6939 -3.89348 0
M  V30 3604 O 337.638 1.35872 -3.29268 0
M  V30 3605 O 336.497 2.31471 -4.95059 0
M  V30 3606 H 333.591 0.382157 -0.733407 0
M  V30 3607 H 336.137 0.0447311 -1.69641 0
M  V30 3608 H 334.909 0.434859 -3.88876 0
M  V30 3609 H 334.532 2.07604 -3.39096 0
M  V30 3610 N 335.529 1.53961 0.336706 0
M  V30 3611 C 336.778 1.70751 1.07363 0
M  V30 3612 C 337.091 0.481061 1.89592 0
M  V30 3613 O 338.297 0.530046 2.66276 0
M  V30 3614 C 336.753 3.01965 1.95818 0
M  V30 3615 C 336.361 4.31971 1.18764 0
M  V30 3616 C 338.105 3.28121 2.69327 0
M  V30 3617 C 336.012 5.54255 2.06289 0
M  V30 3618 H 334.942 0.636292 0.404535 0
M  V30 3619 H 337.593 1.80459 0.332681 0
M  V30 3620 H 335.975 2.86132 2.7376 0
M  V30 3621 H 337.149 4.5853 0.456849 0
M  V30 3622 H 335.464 4.12481 0.569946 0
M  V30 3623 H 338.061 4.16673 3.35094 0
M  V30 3624 H 338.404 2.45426 3.36261 0
M  V30 3625 H 338.937 3.44762 1.98454 0
M  V30 3626 H 335.676 6.39513 1.43885 0
M  V30 3627 H 335.196 5.31935 2.77138 0
M  V30 3628 H 336.875 5.90159 2.65182 0
M  V30 3629 N 337.007 -0.598083 1.45811 0
M  V30 3630 C 337.939 -1.72231 1.51225 0
M  V30 3631 C 338.952 -1.57757 0.402059 0
M  V30 3632 O 340.141 -1.65464 0.669624 0
M  V30 3633 C 337.241 -3.10331 1.3619 0
M  V30 3634 C 336.414 -3.50955 2.61054 0
M  V30 3635 C 335.473 -4.68055 2.40439 0
M  V30 3636 O 334.499 -4.74691 3.14097 0
M  V30 3637 N 335.701 -5.61941 1.45612 0
M  V30 3638 H 338.466 -1.68046 2.48154 0
M  V30 3639 H 336.027 -0.783637 1.41671 0
M  V30 3640 H 338.019 -3.86439 1.20195 0
M  V30 3641 H 336.589 -3.0897 0.475015 0
M  V30 3642 H 335.809 -2.64711 2.92099 0
M  V30 3643 H 337.097 -3.74858 3.44034 0
M  V30 3644 H 336.495 -5.59301 0.848431 0
M  V30 3645 H 335.052 -6.37542 1.35585 0
M  V30 3646 N 338.485 -1.33259 -0.841409 0
M  V30 3647 C 339.432 -1.23302 -1.95103 0
M  V30 3648 C 340.402 -0.112204 -1.65721 0
M  V30 3649 O 341.587 -0.290038 -1.88583 0
M  V30 3650 C 338.727 -0.975583 -3.31023 0
M  V30 3651 C 337.84 -2.18243 -3.72819 0
M  V30 3652 C 336.975 -1.85936 -4.97595 0
M  V30 3653 C 336.014 -3.02866 -5.3192 0
M  V30 3654 N 335.151 -2.70565 -6.47873 0
M  V30 3655 H 339.991 -2.18207 -2.02952 0
M  V30 3656 H 337.528 -1.0851 -0.993173 0
M  V30 3657 H 339.486 -0.80677 -4.09325 0
M  V30 3658 H 338.116 -0.0632755 -3.22738 0
M  V30 3659 H 337.168 -2.46107 -2.90061 0
M  V30 3660 H 338.48 -3.05666 -3.94169 0
M  V30 3661 H 337.634 -1.65684 -5.83638 0
M  V30 3662 H 336.373 -0.957452 -4.78209 0
M  V30 3663 H 335.378 -3.23736 -4.44382 0
M  V30 3664 H 336.603 -3.93809 -5.53255 0
M  V30 3665 H 334.549 -1.8293 -6.29978 0
M  V30 3666 H 334.466 -3.51519 -6.69306 0
M  V30 3667 H 335.734 -2.53774 -7.37034 0
M  V30 3668 N 339.963 1.05934 -1.16686 0
M  V30 3669 C 340.91 2.13499 -0.876748 0
M  V30 3670 C 341.88 1.65162 0.176299 0
M  V30 3671 O 343.065 1.90757 0.0407143 0
M  V30 3672 C 340.205 3.42912 -0.387967 0
M  V30 3673 C 339.318 4.04964 -1.50426 0
M  V30 3674 C 338.453 5.22266 -0.970125 0
M  V30 3675 C 337.492 5.76309 -2.06238 0
M  V30 3676 N 336.629 6.84922 -1.54356 0
M  V30 3677 H 341.469 2.37654 -1.7979 0
M  V30 3678 H 339.006 1.16598 -0.896843 0
M  V30 3679 H 340.964 4.17111 -0.086186 0
M  V30 3680 H 339.594 3.18963 0.496235 0
M  V30 3681 H 338.646 3.28277 -1.92193 0
M  V30 3682 H 339.958 4.41122 -2.32836 0
M  V30 3683 H 339.112 6.03506 -0.621743 0
M  V30 3684 H 337.851 4.87564 -0.115377 0
M  V30 3685 H 336.856 4.93704 -2.41942 0
M  V30 3686 H 338.081 6.13062 -2.92115 0
M  V30 3687 H 336.027 6.52131 -0.711406 0
M  V30 3688 H 335.944 7.20043 -2.30379 0
M  V30 3689 H 337.212 7.69832 -1.22387 0
M  V30 3690 N 341.441 0.965919 1.2453 0
M  V30 3691 C 342.718 0.543777 1.87889 0
M  V30 3692 C 343.098 -0.97909 1.87021 0
M  V30 3693 O 342.446 -1.84969 1.3416 0
M  V30 3694 C 342.656 1.13327 3.30088 0
M  V30 3695 C 344.004 1.21707 4.06783 0
M  V30 3696 O 345.028 1.08566 3.39252 0
M  V30 3697 O 343.887 1.42456 5.27606 0
M  V30 3698 H 340.981 0.181054 0.806938 0
M  V30 3699 H 343.527 1.06007 1.32516 0
M  V30 3700 H 342.299 2.17612 3.25209 0
M  V30 3701 H 341.922 0.600911 3.93033 0
M  V30 3702 N 342.919 -1.39368 0.735821 0
M  V30 3703 C 343.882 -2.2896 0.104874 0
M  V30 3704 C 344.882 -1.46347 -0.666274 0
M  V30 3705 O 346.072 -1.67014 -0.49517 0
M  V30 3706 C 343.204 -3.29857 -0.860656 0
M  V30 3707 H 344.397 -2.86259 0.894205 0
M  V30 3708 H 341.95 -1.48029 0.501704 0
M  V30 3709 H 342.685 -2.77615 -1.67631 0
M  V30 3710 H 342.47 -3.9087 -0.310327 0
M  V30 3711 H 343.96 -3.96893 -1.29867 0
M  V30 3712 N 344.397 -0.483516 -1.5 0
M  V30 3713 C 345.643 0.0672592 -2.02688 0
M  V30 3714 C 345.976 1.38247 -1.36387 0
M  V30 3715 O 345.251 1.88131 -0.493675 0
M  V30 3716 C 345.534 0.238109 -3.59312 0
M  V30 3717 C 345.387 -1.099 -4.36168 0
M  V30 3718 C 346.706 0.986916 -4.28892 0
M  V30 3719 H 343.825 0.0229696 -0.736642 0
M  V30 3720 H 346.467 -0.631527 -1.79197 0
M  V30 3721 H 344.617 0.8333 -3.79458 0
M  V30 3722 H 346.289 -1.73172 -4.27562 0
M  V30 3723 H 344.532 -1.69261 -3.99416 0
M  V30 3724 H 345.203 -0.932954 -5.44059 0
M  V30 3725 H 347.679 0.482302 -4.13295 0
M  V30 3726 H 346.555 1.07527 -5.38265 0
M  V30 3727 H 346.816 2.0265 -3.92919 0
M  V30 3728 N 345.875 1.56104 -0.216619 0
M  V30 3729 C 346.822 2.2007 0.695531 0
M  V30 3730 C 347.792 1.15471 1.19397 0
M  V30 3731 O 348.977 1.43807 1.25396 0
M  V30 3732 C 346.117 2.88073 1.90021 0
M  V30 3733 C 345.23 4.07253 1.44113 0
M  V30 3734 C 344.365 4.63052 2.603 0
M  V30 3735 C 343.404 5.74545 2.11103 0
M  V30 3736 N 342.541 6.24656 3.20545 0
M  V30 3737 H 347.381 2.97655 0.143327 0
M  V30 3738 H 344.918 1.46982 0.0589934 0
M  V30 3739 H 346.876 3.25681 2.60745 0
M  V30 3740 H 345.506 2.13015 2.42538 0
M  V30 3741 H 344.558 3.75164 0.628999 0
M  V30 3742 H 345.87 4.8783 1.04036 0
M  V30 3743 H 345.024 5.03078 3.39113 0
M  V30 3744 H 343.763 3.81628 3.03663 0
M  V30 3745 H 342.768 5.34027 1.3075 0
M  V30 3746 H 343.993 6.57801 1.68746 0
M  V30 3747 H 341.939 5.46148 3.63399 0
M  V30 3748 H 341.856 7.00343 2.84704 0
M  V30 3749 H 343.124 6.69338 3.99508 0
M  V30 3750 N 347.353 -0.0568162 1.57498 0
M  V30 3751 C 348.578 -0.769402 1.92601 0
M  V30 3752 C 349.003 -1.69559 0.814336 0
M  V30 3753 O 348.361 -1.79811 -0.231903 0
M  V30 3754 C 348.409 -1.52634 3.26704 0
M  V30 3755 O 347.513 -2.63797 3.16994 0
M  V30 3756 H 346.854 -0.208909 0.63028 0
M  V30 3757 H 349.384 -0.0205798 2.0459 0
M  V30 3758 H 349.394 -1.90234 3.60936 0
M  V30 3759 H 348.069 -0.846875 4.07186 0
M  V30 3760 H 346.646 -2.28943 2.94346 0
M  V30 3761 N 348.832 -1.54138 -0.328536 0
M  V30 3762 C 349.762 -1.86167 -1.40939 0
M  V30 3763 C 350.743 -0.718044 -1.54202 0
M  V30 3764 O 351.928 -0.971328 -1.68163 0
M  V30 3765 C 349.058 -2.08461 -2.77779 0
M  V30 3766 C 348.012 -3.24299 -2.7931 0
M  V30 3767 C 347.338 -3.31955 -4.19178 0
M  V30 3768 C 348.638 -4.62065 -2.43502 0
M  V30 3769 H 350.332 -2.76689 -1.14383 0
M  V30 3770 H 347.878 -1.33132 -0.548806 0
M  V30 3771 H 349.831 -2.29453 -3.53454 0
M  V30 3772 H 348.555 -1.14684 -3.05802 0
M  V30 3773 H 347.214 -3.03187 -2.0609 0
M  V30 3774 H 346.862 -2.35745 -4.44335 0
M  V30 3775 H 346.562 -4.09805 -4.2111 0
M  V30 3776 H 348.086 -3.55175 -4.96672 0
M  V30 3777 H 349.5 -4.8297 -3.08889 0
M  V30 3778 H 347.897 -5.42429 -2.56693 0
M  V30 3779 H 348.967 -4.64652 -1.38659 0
M  V30 3780 N 350.31 0.590341 -1.46126 0
M  V30 3781 C 351.559 1.34499 -1.50309 0
M  V30 3782 C 351.872 1.94977 -0.156021 0
M  V30 3783 O 353.078 2.71395 -0.0756037 0
M  V30 3784 C 351.534 2.43723 -2.64815 0
M  V30 3785 C 351.142 1.89582 -4.0591 0
M  V30 3786 C 352.886 3.20579 -2.78262 0
M  V30 3787 C 350.793 2.9639 -5.11769 0
M  V30 3788 H 349.723 0.505593 -0.559368 0
M  V30 3789 H 352.374 0.630848 -1.72315 0
M  V30 3790 H 350.756 3.17902 -2.36124 0
M  V30 3791 H 351.93 1.21997 -4.44357 0
M  V30 3792 H 350.245 1.25418 -3.97063 0
M  V30 3793 H 352.842 4.00276 -3.54519 0
M  V30 3794 H 353.185 3.72684 -1.85505 0
M  V30 3795 H 353.718 2.53505 -3.06562 0
M  V30 3796 H 350.457 2.49181 -6.06291 0
M  V30 3797 H 349.977 3.62487 -4.77873 0
M  V30 3798 H 351.656 3.60474 -5.37278 0
M  V30 3799 N 351.788 1.33704 0.83433 0
M  V30 3800 C 352.698 1.26382 1.97648 0
M  V30 3801 C 353.714 0.173548 1.73132 0
M  V30 3802 O 354.89 0.397962 1.97429 0
M  V30 3803 C 351.955 1.00769 3.31733 0
M  V30 3804 C 351.016 2.1884 3.69334 0
M  V30 3805 C 350.249 1.9444 4.9702 0
M  V30 3806 O 350.472 0.896961 5.63303 0
M  V30 3807 O 349.406 2.81093 5.32231 0
M  V30 3808 H 353.232 2.22444 2.06767 0
M  V30 3809 H 350.817 1.13795 0.968037 0
M  V30 3810 H 352.699 0.882186 4.12062 0
M  V30 3811 H 351.374 0.0773783 3.23608 0
M  V30 3812 H 350.281 2.36946 2.89495 0
M  V30 3813 H 351.614 3.10221 3.82131 0
M  V30 3814 N 353.266 -1.05314 1.17247 0
M  V30 3815 C 354.214 -2.15137 0.884238 0
M  V30 3816 C 355.208 -1.68729 -0.15063 0
M  V30 3817 O 356.414 -1.8 -0.00366673 0
M  V30 3818 H 352.789 -0.702471 0.2684 0
M  V30 3819 H 354.76 -2.36652 1.81764 0
M  V30 3820 C 353.509 -3.45243 0.412659 0
M  V30 3821 H 352.832 -3.81352 1.20043 0
M  V30 3822 H 354.272 -4.23263 0.249858 0
M  V30 3823 C 352.731 -3.25487 -0.86948 0
M  V30 3824 O 353.261 -3.51938 -1.93655 0
M  V30 3825 N 351.467 -2.78875 -0.817147 0
M  V30 3826 H 351.014 -2.57549 0.0514211 0
M  V30 3827 H 350.972 -2.66036 -1.67547 0
M  V30 3828 N 354.744 -0.972509 -1.24016 0
M  V30 3829 C 355.992 -0.635776 -1.91839 0
M  V30 3830 C 356.313 0.832312 -1.76345 0
M  V30 3831 O 355.583 1.5946 -1.13795 0
M  V30 3832 H 354.163 -0.232157 -0.710009 0
M  V30 3833 H 356.825 -1.23462 -1.50809 0
M  V30 3834 H 355.921 -0.880545 -2.99421 0
M  V30 3835 N 356.222 1.38976 -0.743202 0
M  V30 3836 C 357.154 2.29096 -0.0689228 0
M  V30 3837 C 358.167 1.47229 0.694791 0
M  V30 3838 O 359.356 1.70212 0.537597 0
M  V30 3839 C 356.456 3.25988 0.926548 0
M  V30 3840 C 355.629 4.36833 0.222647 0
M  V30 3841 C 354.688 5.13981 1.12739 0
M  V30 3842 O 353.714 5.6601 0.601795 0
M  V30 3843 N 354.916 5.25966 2.45641 0
M  V30 3844 H 357.681 2.87604 -0.842846 0
M  V30 3845 H 355.242 1.50645 -0.593109 0
M  V30 3846 H 357.234 3.74476 1.5346 0
M  V30 3847 H 355.804 2.68453 1.60162 0
M  V30 3848 H 355.024 3.90116 -0.565983 0
M  V30 3849 H 356.312 5.0811 -0.264841 0
M  V30 3850 H 355.71 4.85228 2.9081 0
M  V30 3851 H 354.267 5.77865 3.01522 0
M  V30 3852 N 357.7 0.491464 1.49741 0
M  V30 3853 C 358.63 -0.28154 2.31796 0
M  V30 3854 C 359.611 -0.971473 1.3963 0
M  V30 3855 O 360.796 -0.964719 1.68543 0
M  V30 3856 C 357.926 -1.35203 3.19902 0
M  V30 3857 C 356.88 -0.782529 4.20786 0
M  V30 3858 C 356.206 -1.95283 4.97764 0
M  V30 3859 C 357.506 0.21999 5.21837 0
M  V30 3860 H 359.2 0.403355 2.96671 0
M  V30 3861 H 356.746 0.195425 1.42668 0
M  V30 3862 H 358.699 -1.90045 3.76113 0
M  V30 3863 H 357.423 -2.06598 2.52953 0
M  V30 3864 H 356.082 -0.255928 3.65706 0
M  V30 3865 H 355.73 -2.65423 4.2727 0
M  V30 3866 H 355.43 -1.57789 5.66018 0
M  V30 3867 H 356.954 -2.50577 5.56816 0
M  V30 3868 H 358.368 -0.23996 5.72798 0
M  V30 3869 H 356.765 0.51026 5.97927 0
M  V30 3870 H 357.835 1.13911 4.7133 0
M  V30 3871 N 359.178 -1.55987 0.224894 0
M  V30 3872 C 360.088 -2.24066 -0.69511 0
M  V30 3873 C 361.104 -1.24939 -1.21104 0
M  V30 3874 O 362.28 -1.5776 -1.25195 0
M  V30 3875 C 359.345 -2.90983 -1.88493 0
M  V30 3876 C 358.406 -4.05462 -1.41064 0
M  V30 3877 C 357.639 -4.69179 -2.54375 0
M  V30 3878 O 357.862 -4.31895 -3.72589 0
M  V30 3879 O 356.796 -5.58108 -2.25386 0
M  V30 3880 H 360.622 -3.03353 -0.145149 0
M  V30 3881 H 358.207 -1.49399 -0.00569476 0
M  V30 3882 H 360.089 -3.33209 -2.57972 0
M  V30 3883 H 358.764 -2.14653 -2.42293 0
M  V30 3884 H 357.671 -3.67798 -0.683774 0
M  V30 3885 H 359.004 -4.83545 -0.918985 0
M  V30 3886 N 360.656 0.0484629 -1.57525 0
M  V30 3887 C 361.905 0.742065 -1.87553 0
M  V30 3888 C 362.218 1.77545 -0.820802 0
M  V30 3889 O 363.424 2.52027 -1.00967 0
M  V30 3890 C 361.88 1.37081 -3.32771 0
M  V30 3891 C 361.488 0.374786 -4.4643 0
M  V30 3892 C 363.232 2.04542 -3.71972 0
M  V30 3893 C 361.139 1.01077 -5.82698 0
M  V30 3894 H 360.069 0.280903 -0.699721 0
M  V30 3895 H 362.72 -0.00411877 -1.835 0
M  V30 3896 H 361.102 2.16605 -3.31509 0
M  V30 3897 H 362.276 -0.392331 -4.59127 0
M  V30 3898 H 360.591 -0.196653 -4.15935 0
M  V30 3899 H 363.188 2.52943 -4.71088 0
M  V30 3900 H 363.531 2.85515 -3.02964 0
M  V30 3901 H 364.064 1.31819 -3.75325 0
M  V30 3902 H 360.803 0.240878 -6.55057 0
M  V30 3903 H 360.323 1.74819 -5.73758 0
M  V30 3904 H 362.002 1.52383 -6.28799 0
M  V30 3905 N 362.134 1.5431 0.320358 0
M  V30 3906 C 363.38 1.72924 1.05949 0
M  V30 3907 C 363.713 0.503185 1.87568 0
M  V30 3908 O 362.988 -0.499839 1.87968 0
M  V30 3909 C 363.271 3.00676 1.98156 0
M  V30 3910 C 363.124 4.3354 1.19845 0
M  V30 3911 C 364.443 3.24198 2.9763 0
M  V30 3912 H 361.562 0.629195 0.383774 0
M  V30 3913 H 364.204 1.87008 0.335854 0
M  V30 3914 H 362.354 2.888 2.59859 0
M  V30 3915 H 364.026 4.57305 0.605773 0
M  V30 3916 H 362.269 4.309 0.500784 0
M  V30 3917 H 362.94 5.19156 1.87567 0
M  V30 3918 H 365.416 3.35557 2.4605 0
M  V30 3919 H 364.292 4.14938 3.59329 0
M  V30 3920 H 364.553 2.41577 3.7026 0
M  V30 3921 N 363.613 -0.582584 1.46437 0
M  V30 3922 C 364.841 -1.36682 1.55324 0
M  V30 3923 C 365.256 -1.87796 0.194409 0
M  V30 3924 O 364.613 -1.63623 -0.808318 0
M  V30 3925 C 364.664 -2.55426 2.55812 0
M  V30 3926 O 364.385 -2.0643 3.86417 0
M  V30 3927 C 365.886 -3.47976 2.74641 0
M  V30 3928 H 363.106 -0.417545 0.525259 0
M  V30 3929 H 365.65 -0.708219 1.91845 0
M  V30 3930 H 363.805 -3.17275 2.22295 0
M  V30 3931 H 364.219 -2.83762 4.41111 0
M  V30 3932 H 365.693 -4.27775 3.48874 0
M  V30 3933 H 366.17 -3.99919 1.81553 0
M  V30 3934 H 366.776 -2.91962 3.09255 0
M  V30 3935 N 365.091 -1.34144 -0.827227 0
M  V30 3936 C 366.339 -1.26009 -1.58007 0
M  V30 3937 C 366.66 0.170971 -1.94249 0
M  V30 3938 O 365.93 1.10256 -1.61927 0
M  V30 3939 H 364.51 -0.463414 -0.585881 0
M  V30 3940 H 367.172 -1.68005 -0.987951 0
M  V30 3941 H 366.268 -1.86187 -2.50481 0
M  V30 3942 N 366.569 1.04691 -1.17803 0
M  V30 3943 C 367.817 1.7743 -0.967617 0
M  V30 3944 C 368.138 1.88359 0.504574 0
M  V30 3945 O 367.408 1.40402 1.36617 0
M  V30 3946 H 365.988 0.657242 -0.355024 0
M  V30 3947 H 368.65 1.2638 -1.48371 0
M  V30 3948 H 367.746 2.78924 -1.40027 0
M  V30 3949 N 368.047 0.979072 1.23499 0
M  V30 3950 C 369.293 0.6578 1.9247 0
M  V30 3951 C 369.648 -0.799746 1.74991 0
M  V30 3952 O 368.941 -1.56922 1.09937 0
M  V30 3953 C 369.135 0.981932 3.43646 0
M  V30 3954 C 368.964 2.46944 3.75831 0
M  V30 3955 C 367.734 3.13119 3.96591 0
M  V30 3956 C 369.932 3.45006 3.81412 0
M  V30 3957 N 367.914 4.51489 4.15969 0
M  V30 3958 C 369.285 4.68778 4.05768 0
M  V30 3959 C 371.34 3.39505 3.64198 0
M  V30 3960 C 370.043 5.87723 4.14697 0
M  V30 3961 C 372.069 4.57814 3.7438 0
M  V30 3962 C 371.431 5.80381 3.99171 0
M  V30 3963 H 367.53 0.291746 0.72554 0
M  V30 3964 H 370.114 1.25626 1.48749 0
M  V30 3965 H 368.285 0.412179 3.86207 0
M  V30 3966 H 370.017 0.618068 3.99953 0
M  V30 3967 H 366.772 2.63619 3.93449 0
M  V30 3968 H 367.196 5.23221 4.29615 0
M  V30 3969 H 371.838 2.45773 3.44029 0
M  V30 3970 H 369.556 6.81874 4.33675 0
M  V30 3971 H 373.142 4.55132 3.62417 0
M  V30 3972 H 372.022 6.70398 4.06861 0
M  V30 3973 N 369.525 -1.3858 0.750561 0
M  V30 3974 C 370.771 -2.00481 0.305825 0
M  V30 3975 C 371.104 -1.5944 -1.10872 0
M  V30 3976 O 370.379 -0.83052 -1.75877 0
M  V30 3977 C 370.662 -3.5758 0.425287 0
M  V30 3978 C 370.515 -4.08594 1.88072 0
M  V30 3979 C 371.834 -4.39719 -0.183122 0
M  V30 3980 H 368.953 -0.728348 0.112598 0
M  V30 3981 H 371.595 -1.64566 0.949638 0
M  V30 3982 H 369.745 -3.88306 -0.122828 0
M  V30 3983 H 371.417 -3.88523 2.48691 0
M  V30 3984 H 369.66 -3.61574 2.39681 0
M  V30 3985 H 370.331 -5.177 1.91548 0
M  V30 3986 H 372.807 -4.15128 0.284303 0
M  V30 3987 H 371.683 -5.48856 -0.0692757 0
M  V30 3988 H 371.944 -4.23434 -1.27106 0
M  V30 3989 N 371.003 -0.499398 -1.49478 0
M  V30 3990 C 371.936 0.326491 -2.25852 0
M  V30 3991 C 372.914 0.971776 -1.30366 0
M  V30 3992 O 374.098 1.00219 -1.59651 0
M  V30 3993 C 371.225 1.45969 -3.05632 0
M  V30 3994 C 370.271 0.928938 -4.16261 0
M  V30 3995 S 371.104 -0.179012 -5.35201 0
M  V30 3996 C 372.26 0.957389 -6.18534 0
M  V30 3997 H 372.493 -0.321746 -2.95554 0
M  V30 3998 H 370.026 -0.284674 -1.51753 0
M  V30 3999 H 371.984 2.109 -3.52181 0
M  V30 4000 H 370.645 2.07953 -2.35402 0
M  V30 4001 H 369.838 1.77813 -4.71592 0
M  V30 4002 H 369.44 0.356869 -3.72293 0
M  V30 4003 H 371.732 1.86296 -6.51383 0
M  V30 4004 H 372.675 0.442733 -7.06715 0
M  V30 4005 H 373.083 1.224 -5.5107 0
M  V30 4006 N 372.481 1.55866 -0.233164 0
M  V30 4007 C 373.892 1.847 0.272554 0
M  V30 4008 C 374.243 1.15477 1.58617 0
M  V30 4009 O 373.368 0.42841 2.12117 0
M  V30 4010 C 373.963 3.35071 0.501299 0
M  V30 4011 C 372.522 3.6418 0.951304 0
M  V30 4012 C 371.669 2.77292 0.0208209 0
M  V30 4013 H 374.62 1.52005 -0.456074 0
M  V30 4014 H 374.641 3.55906 1.34577 0
M  V30 4015 H 374.153 3.85424 -0.454936 0
M  V30 4016 H 372.254 3.19293 1.92049 0
M  V30 4017 H 372.367 4.72071 0.817675 0
M  V30 4018 H 370.731 2.49131 0.529723 0
M  V30 4019 H 371.514 3.30448 -0.93054 0
M  V30 4020 N 373.959 -0.0401083 1.57549 0
M  V30 4021 C 375.236 -0.767917 1.79896 0
M  V30 4022 C 375.616 -1.9416 0.82856 0
M  V30 4023 O 374.964 -2.2812 -0.131671 0
M  V30 4024 C 375.174 -1.2113 3.27305 0
M  V30 4025 C 376.522 -1.63175 3.91994 0
M  V30 4026 O 377.546 -1.30616 3.31388 0
M  V30 4027 O 376.405 -2.23565 4.98679 0
M  V30 4028 H 373.499 -0.370441 0.739393 0
M  V30 4029 H 376.045 -0.017737 1.69691 0
M  V30 4030 H 374.817 -0.372937 3.89519 0
M  V30 4031 H 374.44 -2.02183 3.42356 0
M  V30 4032 N 375.437 -1.54477 -0.31217 0
M  V30 4033 C 376.347 -1.87695 -1.4074 0
M  V30 4034 C 377.363 -0.769975 -1.56036 0
M  V30 4035 O 378.539 -1.06537 -1.70915 0
M  V30 4036 C 375.604 -2.10755 -2.75287 0
M  V30 4037 C 374.665 -3.34514 -2.69071 0
M  V30 4038 C 373.898 -3.56465 -3.97201 0
M  V30 4039 O 374.121 -2.81637 -4.96021 0
M  V30 4040 O 373.055 -4.49964 -3.9977 0
M  V30 4041 H 376.881 -2.80849 -1.15574 0
M  V30 4042 H 374.466 -1.40526 -0.507228 0
M  V30 4043 H 376.348 -2.27188 -3.54913 0
M  V30 4044 H 375.023 -1.20788 -3.0032 0
M  V30 4045 H 373.93 -3.23456 -1.87955 0
M  V30 4046 H 375.263 -4.24575 -2.48992 0
M  V30 4047 N 376.915 0.57481 -1.46744 0
M  V30 4048 C 377.878 1.66533 -1.57478 0
M  V30 4049 C 378.878 1.54338 -0.451263 0
M  V30 4050 O 380.068 1.58814 -0.715813 0
M  V30 4051 C 377.2 3.05999 -1.50259 0
M  V30 4052 H 378.393 1.58372 -2.54673 0
M  V30 4053 H 375.946 0.793301 -1.34672 0
M  V30 4054 H 376.681 3.19709 -0.543725 0
M  V30 4055 H 376.466 3.16259 -2.31781 0
M  V30 4056 H 377.956 3.8537 -1.60872 0
M  V30 4057 N 378.394 1.34581 0.820102 0
M  V30 4058 C 379.622 1.3018 1.60813 0
M  V30 4059 C 380.037 -0.123551 1.88395 0
M  V30 4060 O 379.394 -1.07148 1.47735 0
M  V30 4061 C 379.445 2.09312 2.94739 0
M  V30 4062 O 379.166 3.46288 2.68358 0
M  V30 4063 C 380.667 2.1234 3.89136 0
M  V30 4064 H 377.887 0.447726 0.499782 0
M  V30 4065 H 380.431 1.77237 1.02017 0
M  V30 4066 H 378.586 1.65889 3.50085 0
M  V30 4067 H 379 3.87227 3.53774 0
M  V30 4068 H 380.474 2.72126 4.80262 0
M  V30 4069 H 380.951 1.11854 4.24718 0
M  V30 4070 H 381.557 2.55864 3.39726 0
M  V30 4071 N 379.872 -1.04064 1.18357 0
M  V30 4072 C 381.283 -1.58719 0.98312 0
M  V30 4073 C 381.634 -1.90556 -0.467193 0
M  V30 4074 O 380.759 -1.69561 -1.34454 0
M  V30 4075 C 381.354 -2.88379 1.77828 0
M  V30 4076 C 379.913 -3.3965 1.62218 0
M  V30 4077 C 379.06 -2.13235 1.77274 0
M  V30 4078 H 382.011 -0.867359 1.32901 0
M  V30 4079 H 382.032 -3.58773 1.26737 0
M  V30 4080 H 381.544 -2.65176 2.83379 0
M  V30 4081 H 379.645 -3.67866 0.592036 0
M  V30 4082 H 379.758 -4.13475 2.42023 0
M  V30 4083 H 378.122 -2.24542 1.20221 0
M  V30 4084 H 378.905 -1.92487 2.8426 0
M  V30 4085 N 381.35 -0.985608 -1.22978 0
M  V30 4086 C 382.3 -0.50118 -2.22423 0
M  V30 4087 C 383.284 0.426649 -1.5514 0
M  V30 4088 O 384.476 0.254656 -1.75159 0
M  V30 4089 C 381.605 0.190003 -3.42774 0
M  V30 4090 C 380.691 -0.757703 -4.17276 0
M  V30 4091 N 381.082 -1.90251 -4.68656 0
M  V30 4092 C 379.38 -0.57209 -4.42316 0
M  V30 4093 C 380.081 -2.49676 -5.25392 0
M  V30 4094 N 379.057 -1.78013 -5.13627 0
M  V30 4095 H 382.859 -1.37441 -2.59783 0
M  V30 4096 H 380.373 -0.846941 -1.38567 0
M  V30 4097 H 382.37 0.55439 -4.13197 0
M  V30 4098 H 381.03 1.05946 -3.06929 0
M  V30 4099 H 382.041 -2.28354 -4.64839 0
M  V30 4100 H 378.718 0.251909 -4.16739 0
M  V30 4101 H 380.108 -3.46384 -5.75732 0
M  V30 4102 N 382.828 1.3818 -0.7579 0
M  V30 4103 C 384.058 2.04004 -0.326463 0
M  V30 4104 C 384.466 1.57286 1.05156 0
M  V30 4105 O 383.809 0.743144 1.67997 0
M  V30 4106 C 383.871 3.58444 -0.275402 0
M  V30 4107 C 383.535 4.28237 -1.59569 0
M  V30 4108 C 384.532 4.53312 -2.54566 0
M  V30 4109 C 382.217 4.66341 -1.86631 0
M  V30 4110 C 384.211 5.15531 -3.74842 0
M  V30 4111 C 381.898 5.28283 -3.0718 0
M  V30 4112 C 382.896 5.52814 -4.01106 0
M  V30 4113 O 382.584 6.13465 -5.19534 0
M  V30 4114 H 382.316 0.662026 -0.136739 0
M  V30 4115 H 384.87 1.7777 -1.02893 0
M  V30 4116 H 383.1 3.83667 0.483337 0
M  V30 4117 H 384.789 4.05701 0.127099 0
M  V30 4118 H 385.555 4.24299 -2.34936 0
M  V30 4119 H 381.434 4.46591 -1.14358 0
M  V30 4120 H 384.978 5.34594 -4.48168 0
M  V30 4121 H 380.875 5.56719 -3.26702 0
M  V30 4122 H 381.643 6.31951 -5.20173 0
M  V30 4123 N 384.306 0.507319 1.49211 0
M  V30 4124 C 385.553 -0.0349529 2.0247 0
M  V30 4125 C 385.881 -1.36409 1.38647 0
M  V30 4126 O 385.136 -1.88841 0.513566 0
M  V30 4127 C 385.435 -0.229513 3.56662 0
M  V30 4128 C 385.101 1.02241 4.39156 0
M  V30 4129 C 383.763 1.36557 4.61417 0
M  V30 4130 C 386.115 1.85428 4.871 0
M  V30 4131 C 383.443 2.53999 5.28868 0
M  V30 4132 C 385.795 3.02028 5.55843 0
M  V30 4133 C 384.459 3.36717 5.76349 0
M  V30 4134 H 383.729 -0.0127902 0.74089 0
M  V30 4135 H 386.376 0.668756 1.79443 0
M  V30 4136 H 384.681 -1.0158 3.78403 0
M  V30 4137 H 386.378 -0.663641 3.9547 0
M  V30 4138 H 382.968 0.745124 4.22073 0
M  V30 4139 H 387.152 1.6023 4.69723 0
M  V30 4140 H 382.408 2.81105 5.42946 0
M  V30 4141 H 386.582 3.66808 5.91967 0
M  V30 4142 H 384.209 4.27821 6.28389 0
M  V30 4143 N 385.784 -1.5574 0.241426 0
M  V30 4144 C 386.747 -2.19877 -0.647063 0
M  V30 4145 C 387.747 -1.16642 -1.10686 0
M  V30 4146 O 388.937 -1.41757 -1.01245 0
M  V30 4147 C 386.069 -2.83797 -1.88871 0
M  V30 4148 H 387.262 -2.99772 -0.087574 0
M  V30 4149 H 384.815 -1.56298 -0.00813574 0
M  V30 4150 H 385.55 -2.07824 -2.48957 0
M  V30 4151 H 385.335 -3.59414 -1.56728 0
M  V30 4152 H 386.825 -3.32898 -2.52129 0
M  V30 4153 N 387.262 0.0317525 -1.57568 0
M  V30 4154 C 388.192 1.03274 -2.0942 0
M  V30 4155 C 389.173 1.3788 -0.996143 0
M  V30 4156 O 390.358 1.46811 -1.27122 0
M  V30 4157 C 387.488 2.33448 -2.57137 0
M  V30 4158 C 386.442 2.13091 -3.71182 0
M  V30 4159 C 385.768 3.49001 -4.05095 0
M  V30 4160 C 387.068 1.51928 -4.99715 0
M  V30 4161 H 388.762 0.60112 -2.93303 0
M  V30 4162 H 386.308 0.287705 -1.41097 0
M  V30 4163 H 388.261 3.03802 -2.92032 0
M  V30 4164 H 386.985 2.78665 -1.70333 0
M  V30 4165 H 385.644 1.45171 -3.36632 0
M  V30 4166 H 385.292 3.91862 -3.15362 0
M  V30 4167 H 384.992 3.36207 -4.81911 0
M  V30 4168 H 386.516 4.20721 -4.42522 0
M  V30 4169 H 387.93 2.12196 -5.32584 0
M  V30 4170 H 386.327 1.49716 -5.81124 0
M  V30 4171 H 387.397 0.484811 -4.8247 0
M  V30 4172 N 388.74 1.54641 0.303973 0
M  V30 4173 C 389.989 1.7299 1.03717 0
M  V30 4174 C 390.302 0.521168 1.88529 0
M  V30 4175 O 391.508 0.586408 2.65092 0
M  V30 4176 C 389.964 3.06051 1.89369 0
M  V30 4177 C 389.572 4.34393 1.09574 0
M  V30 4178 C 391.316 3.3376 2.62306 0
M  V30 4179 C 389.223 5.58506 1.94486 0
M  V30 4180 H 388.153 0.64473 0.390947 0
M  V30 4181 H 390.804 1.81124 0.294328 0
M  V30 4182 H 389.186 2.91874 2.67629 0
M  V30 4183 H 390.36 4.59396 0.359485 0
M  V30 4184 H 388.675 4.13597 0.482324 0
M  V30 4185 H 391.272 4.23687 3.26181 0
M  V30 4186 H 391.615 2.52503 3.3098 0
M  V30 4187 H 392.148 3.48894 1.91097 0
M  V30 4188 H 388.887 6.42422 1.30287 0
M  V30 4189 H 388.407 5.37694 2.65792 0
M  V30 4190 H 390.086 5.95651 2.52605 0
M  V30 4191 N 390.218 -0.567019 1.47046 0
M  V30 4192 C 391.495 -1.3276 1.43646 0
M  V30 4193 C 391.875 -2.1071 0.128186 0
M  V30 4194 O 391.223 -2.10441 -0.890326 0
M  V30 4195 C 391.433 -2.2404 2.67595 0
M  V30 4196 C 392.781 -2.85372 3.14401 0
M  V30 4197 O 393.805 -2.34346 2.68254 0
M  V30 4198 O 392.664 -3.78091 3.946 0
M  V30 4199 H 389.758 -0.597293 0.571988 0
M  V30 4200 H 392.304 -0.586735 1.59234 0
M  V30 4201 H 391.076 -1.65975 3.54356 0
M  V30 4202 H 390.699 -3.05439 2.54544 0
M  V30 4203 N 391.696 -1.35014 -0.812953 0
M  V30 4204 C 392.628 -1.23262 -1.93233 0
M  V30 4205 C 393.641 -0.157371 -1.62038 0
M  V30 4206 O 394.83 -0.410096 -1.73725 0
M  V30 4207 C 391.93 -0.87392 -3.27438 0
M  V30 4208 C 391.103 -2.04622 -3.86586 0
M  V30 4209 C 390.162 -1.66432 -4.99186 0
M  V30 4210 O 389.188 -2.38222 -5.16951 0
M  V30 4211 N 390.39 -0.584248 -5.77552 0
M  V30 4212 H 393.155 -2.19699 -2.03844 0
M  V30 4213 H 390.716 -1.281 -0.99005 0
M  V30 4214 H 392.708 -0.600039 -4.00227 0
M  V30 4215 H 391.278 0.00057392 -3.126 0
M  V30 4216 H 390.498 -2.48427 -3.06068 0
M  V30 4217 H 391.786 -2.82999 -4.22835 0
M  V30 4218 H 391.184 0.0123526 -5.65699 0
M  V30 4219 H 389.741 -0.37013 -6.50748 0
M  V30 4220 N 393.175 1.03435 -1.18907 0
M  V30 4221 C 394.105 2.13503 -0.945448 0
M  V30 4222 C 395.086 1.69682 0.119189 0
M  V30 4223 O 396.271 1.94169 -0.034707 0
M  V30 4224 C 393.401 3.44004 -0.477316 0
M  V30 4225 C 392.355 4.0148 -1.48316 0
M  V30 4226 C 391.681 5.27537 -0.872311 0
M  V30 4227 C 392.981 4.36921 -2.86177 0
M  V30 4228 H 394.675 2.34141 -1.86597 0
M  V30 4229 H 392.221 1.12523 -0.898584 0
M  V30 4230 H 394.174 4.20372 -0.294204 0
M  V30 4231 H 392.898 3.23072 0.478786 0
M  V30 4232 H 391.557 3.27201 -1.65332 0
M  V30 4233 H 391.205 5.02917 0.0911752 0
M  V30 4234 H 390.905 5.66954 -1.54393 0
M  V30 4235 H 392.429 6.06576 -0.699871 0
M  V30 4236 H 393.843 5.04248 -2.72776 0
M  V30 4237 H 392.24 4.87405 -3.50081 0
M  V30 4238 H 393.31 3.46466 -3.39248 0
M  V30 4239 N 394.653 0.992116 1.22453 0
M  V30 4240 C 395.902 0.662992 1.90492 0
M  V30 4241 C 396.215 -0.808407 1.78113 0
M  V30 4242 O 397.421 -1.24908 2.41061 0
M  V30 4243 C 395.877 1.1353 3.41524 0
M  V30 4244 C 395.485 2.63187 3.62542 0
M  V30 4245 C 397.229 0.880465 4.15269 0
M  V30 4246 C 395.136 3.04024 5.0727 0
M  V30 4247 H 394.066 0.244278 0.713333 0
M  V30 4248 H 396.717 1.20157 1.38688 0
M  V30 4249 H 395.099 0.52485 3.92506 0
M  V30 4250 H 396.273 3.2957 3.22056 0
M  V30 4251 H 394.588 2.86543 3.02129 0
M  V30 4252 H 397.185 1.16128 5.21937 0
M  V30 4253 H 397.528 -0.183408 4.15896 0
M  V30 4254 H 398.061 1.45307 3.70312 0
M  V30 4255 H 394.8 4.09584 5.11782 0
M  V30 4256 H 394.32 2.42343 5.48662 0
M  V30 4257 H 395.999 2.95282 5.75689 0
M  V30 4258 N 396.131 -1.37776 0.765217 0
M  V30 4259 C 397.041 -2.34135 0.147666 0
M  V30 4260 C 398.057 -1.59854 -0.687215 0
M  V30 4261 O 399.233 -1.91983 -0.608659 0
M  V30 4262 C 396.298 -3.3901 -0.72617 0
M  V30 4263 C 395.359 -4.2912 0.124417 0
M  V30 4264 C 394.592 -5.28986 -0.707807 0
M  V30 4265 O 394.815 -5.36205 -1.94525 0
M  V30 4266 O 393.749 -6.01779 -0.12046 0
M  V30 4267 H 397.575 -2.88664 0.943758 0
M  V30 4268 H 395.16 -1.39824 0.526277 0
M  V30 4269 H 397.042 -4.03195 -1.22524 0
M  V30 4270 H 395.717 -2.86819 -1.50056 0
M  V30 4271 H 394.624 -3.68057 0.669696 0
M  V30 4272 H 395.957 -4.84598 0.861736 0
M  V30 4273 N 397.609 -0.515225 -1.4894 0
M  V30 4274 C 398.857 0.0241671 -2.02086 0
M  V30 4275 C 399.178 1.3616 -1.3959 0
M  V30 4276 O 398.448 1.87841 -0.556121 0
M  V30 4277 H 397.028 0.0119203 -0.746905 0
M  V30 4278 H 399.69 -0.675702 -1.82812 0
M  V30 4279 H 398.786 0.143385 -3.1177 0
M  V30 4280 N 399.087 1.5561 -0.249682 0
M  V30 4281 C 400.037 2.18157 0.662673 0
M  V30 4282 C 401.021 1.1383 1.13717 0
M  V30 4283 O 402.213 1.39731 1.08648 0
M  V30 4284 C 399.342 2.88672 1.85805 0
M  V30 4285 C 398.428 4.00258 1.40193 0
M  V30 4286 N 398.819 5.01473 0.660213 0
M  V30 4287 C 397.117 4.12864 1.68698 0
M  V30 4288 C 397.818 5.80155 0.423695 0
M  V30 4289 N 396.794 5.34533 0.988721 0
M  V30 4290 H 400.596 2.93769 0.0878688 0
M  V30 4291 H 398.11 1.62316 -0.0521183 0
M  V30 4292 H 400.107 3.31912 2.5227 0
M  V30 4293 H 398.767 2.14564 2.43705 0
M  V30 4294 H 399.778 5.16971 0.310047 0
M  V30 4295 H 396.455 3.4993 2.27717 0
M  V30 4296 H 397.845 6.71688 -0.168616 0
M  V30 4297 N 400.565 -0.0233959 1.57583 0
M  V30 4298 C 401.497 -1.04994 2.03737 0
M  V30 4299 C 402.51 -1.32125 0.951152 0
M  V30 4300 O 403.699 -1.29512 1.22837 0
M  V30 4301 C 400.799 -2.39026 2.40249 0
M  V30 4302 C 399.972 -2.31171 3.7132 0
M  V30 4303 C 399.031 -3.47698 3.94959 0
M  V30 4304 O 398.057 -3.26937 4.65941 0
M  V30 4305 N 399.259 -4.6976 3.41037 0
M  V30 4306 H 402.024 -0.656507 2.92421 0
M  V30 4307 H 399.585 -0.211235 1.60516 0
M  V30 4308 H 401.577 -3.15712 2.53196 0
M  V30 4309 H 400.147 -2.70194 1.57207 0
M  V30 4310 H 399.367 -1.39547 3.68674 0
M  V30 4311 H 400.655 -2.23071 4.57293 0
M  V30 4312 H 400.053 -4.89528 2.83512 0
M  V30 4313 H 398.61 -5.43791 3.59353 0
M  V30 4314 N 402.043 -1.548 -0.295768 0
M  V30 4315 C 403.289 -1.75517 -1.02789 0
M  V30 4316 C 403.644 -0.537266 -1.84746 0
M  V30 4317 O 402.937 0.470299 -1.85738 0
M  V30 4318 C 403.131 -2.98797 -1.961 0
M  V30 4319 C 402.96 -4.3246 -1.23321 0
M  V30 4320 C 401.73 -4.96131 -0.95822 0
M  V30 4321 C 403.928 -5.10365 -0.635024 0
M  V30 4322 N 401.91 -6.1357 -0.201257 0
M  V30 4323 C 403.281 -6.19999 -0.0110937 0
M  V30 4324 C 405.336 -4.94957 -0.540594 0
M  V30 4325 C 404.039 -7.15904 0.698136 0
M  V30 4326 C 406.065 -5.91197 0.154992 0
M  V30 4327 C 405.427 -7.00203 0.767752 0
M  V30 4328 H 401.526 -0.694786 -0.358882 0
M  V30 4329 H 404.11 -1.92281 -0.305943 0
M  V30 4330 H 402.281 -2.83448 -2.6554 0
M  V30 4331 H 404.013 -3.08017 -2.62502 0
M  V30 4332 H 400.768 -4.56595 -1.25771 0
M  V30 4333 H 401.192 -6.76802 0.16389 0
M  V30 4334 H 405.834 -4.10803 -1.00003 0
M  V30 4335 H 403.552 -7.99595 1.16933 0
M  V30 4336 H 407.138 -5.81353 0.228069 0
M  V30 4337 H 406.018 -7.73393 1.29743 0
M  V30 4338 N 403.521 0.559213 -1.47345 0
M  V30 4339 C 404.451 1.67622 -1.62558 0
M  V30 4340 C 405.432 1.63331 -0.475087 0
M  V30 4341 O 406.617 1.80983 -0.704182 0
M  V30 4342 C 403.747 3.0626 -1.63774 0
M  V30 4343 C 402.701 3.25397 -2.7803 0
M  V30 4344 C 402.027 4.64801 -2.64318 0
M  V30 4345 C 403.327 3.10965 -4.19641 0
M  V30 4346 H 405.021 1.55146 -2.56067 0
M  V30 4347 H 402.567 0.744961 -1.23233 0
M  V30 4348 H 404.52 3.84247 -1.73008 0
M  V30 4349 H 403.244 3.1969 -0.66825 0
M  V30 4350 H 401.903 2.49817 -2.68304 0
M  V30 4351 H 401.551 4.75028 -1.65401 0
M  V30 4352 H 401.251 4.78555 -3.40968 0
M  V30 4353 H 402.775 5.44926 -2.75478 0
M  V30 4354 H 404.189 3.78772 -4.30354 0
M  V30 4355 H 402.586 3.36229 -4.97062 0
M  V30 4356 H 403.656 2.07736 -4.38148 0
M  V30 4357 N 404.999 1.35443 0.805782 0
M  V30 4358 C 405.909 1.30546 1.94923 0
M  V30 4359 C 406.925 0.210233 1.72725 0
M  V30 4360 O 408.101 0.43975 1.9654 0
M  V30 4361 C 405.166 1.07782 3.29521 0
M  V30 4362 C 404.227 2.26625 3.64609 0
M  V30 4363 C 403.46 2.04938 4.92784 0
M  V30 4364 O 403.683 1.01624 5.61274 0
M  V30 4365 O 402.617 2.9232 5.26149 0
M  V30 4366 H 406.443 2.26779 2.02002 0
M  V30 4367 H 404.028 1.15823 0.943682 0
M  V30 4368 H 405.91 0.969392 4.10098 0
M  V30 4369 H 404.585 0.146003 3.23371 0
M  V30 4370 H 403.492 2.43033 2.84404 0
M  V30 4371 H 404.825 3.18257 3.75464 0
M  V30 4372 N 406.477 -1.02803 1.19454 0
M  V30 4373 C 407.425 -2.13213 0.929673 0
M  V30 4374 C 408.419 -1.69011 -0.114806 0
M  V30 4375 O 409.625 -1.79967 0.0345147 0
M  V30 4376 H 406 -0.69662 0.28324 0
M  V30 4377 H 407.971 -2.32744 1.86743 0
M  V30 4378 C 406.72 -3.4429 0.485797 0
M  V30 4379 H 406.043 -3.7872 1.28105 0
M  V30 4380 H 407.483 -4.22638 0.339582 0
M  V30 4381 C 405.942 -3.27258 -0.800244 0
M  V30 4382 O 406.472 -3.55967 -1.86146 0
M  V30 4383 N 404.678 -2.80545 -0.75781 0
M  V30 4384 H 404.225 -2.57382 0.106039 0
M  V30 4385 H 404.183 -2.6953 -1.61867 0
M  V30 4386 N 407.956 -0.998596 -1.21925 0
M  V30 4387 C 408.904 -0.546641 -2.26085 0
M  V30 4388 C 409.898 0.405576 -1.64473 0
M  V30 4389 O 411.104 0.277471 -1.77849 0
M  V30 4390 H 407.479 -0.158403 -0.735127 0
M  V30 4391 H 409.45 -1.43645 -2.61551 0
M  V30 4392 C 408.199 0.117388 -3.47502 0
M  V30 4393 H 407.522 -0.606277 -3.95176 0
M  V30 4394 H 408.962 0.396993 -4.22137 0
M  V30 4395 C 407.421 1.35455 -3.0847 0
M  V30 4396 O 407.951 2.44944 -3.18379 0
M  V30 4397 N 406.157 1.23191 -2.63196 0
M  V30 4398 H 405.704 0.341006 -2.55333 0
M  V30 4399 H 405.662 2.06071 -2.37449 0
M  V30 4400 N 409.434 1.37368 -0.772513 0
M  V30 4401 C 410.683 1.98918 -0.333861 0
M  V30 4402 C 410.996 1.62017 1.09589 0
M  V30 4403 O 412.202 2.16676 1.63596 0
M  V30 4404 C 410.658 3.55735 -0.545971 0
M  V30 4405 C 410.266 4.01573 -1.98603 0
M  V30 4406 C 412.01 4.24156 -0.170979 0
M  V30 4407 C 409.917 5.51102 -2.1457 0
M  V30 4408 H 408.847 0.744214 -0.121085 0
M  V30 4409 H 411.498 1.56888 -0.95175 0
M  V30 4410 H 409.88 3.95748 0.141387 0
M  V30 4411 H 411.054 3.72803 -2.7084 0
M  V30 4412 H 409.369 3.45937 -2.31769 0
M  V30 4413 H 411.966 5.34024 -0.26878 0
M  V30 4414 H 412.309 4.06917 0.878855 0
M  V30 4415 H 412.842 3.89447 -0.810914 0
M  V30 4416 H 409.581 5.73268 -3.17875 0
M  V30 4417 H 409.101 5.81554 -1.46817 0
M  V30 4418 H 410.78 6.17083 -1.94468 0
M  V30 4419 N 410.912 0.523116 1.48665 0
M  V30 4420 C 412.16 -0.0134497 2.02096 0
M  V30 4421 C 412.481 -1.35418 1.40311 0
M  V30 4422 O 411.751 -1.87543 0.566074 0
M  V30 4423 H 410.331 -0.00795915 0.746958 0
M  V30 4424 H 412.993 0.685388 1.82451 0
M  V30 4425 H 412.089 -0.126849 3.11842 0
M  V30 4426 N 412.39 -1.55475 0.257931 0
M  V30 4427 C 413.636 -1.99502 -0.364266 0
M  V30 4428 C 413.969 -1.146 -1.56782 0
M  V30 4429 O 413.244 -0.211968 -1.93342 0
M  V30 4430 C 413.527 -3.51917 -0.763333 0
M  V30 4431 C 413.38 -4.4758 0.446371 0
M  V30 4432 C 414.699 -4.09742 -1.60623 0
M  V30 4433 H 411.818 -0.725277 -0.130929 0
M  V30 4434 H 414.46 -1.8653 0.361446 0
M  V30 4435 H 412.61 -3.63101 -1.38166 0
M  V30 4436 H 414.282 -4.48362 1.08487 0
M  V30 4437 H 412.525 -4.19947 1.08753 0
M  V30 4438 H 413.196 -5.51862 0.123645 0
M  V30 4439 H 415.672 -4.01727 -1.08418 0
M  V30 4440 H 414.548 -5.16631 -1.85429 0
M  V30 4441 H 414.809 -3.58889 -2.58169 0
M  V30 4442 N 413.868 0.0150385 -1.57593 0
M  V30 4443 C 414.815 1.01126 -2.07466 0
M  V30 4444 C 415.785 1.35064 -0.966794 0
M  V30 4445 O 416.97 1.4516 -1.23827 0
M  V30 4446 C 414.11 2.30276 -2.57035 0
M  V30 4447 C 413.223 2.02373 -3.81666 0
M  V30 4448 C 412.358 3.25496 -4.19793 0
M  V30 4449 C 411.397 2.93211 -5.37303 0
M  V30 4450 N 410.534 4.08826 -5.70794 0
M  V30 4451 H 415.374 0.57901 -2.92321 0
M  V30 4452 H 412.911 0.27426 -1.44521 0
M  V30 4453 H 414.869 3.05757 -2.83846 0
M  V30 4454 H 413.499 2.71197 -1.75077 0
M  V30 4455 H 412.551 1.17327 -3.61854 0
M  V30 4456 H 413.863 1.74567 -4.67256 0
M  V30 4457 H 413.017 4.09333 -4.47807 0
M  V30 4458 H 411.756 3.56428 -3.32882 0
M  V30 4459 H 410.761 2.07777 -5.09027 0
M  V30 4460 H 411.986 2.63542 -6.25877 0
M  V30 4461 H 409.932 4.39682 -4.86842 0
M  V30 4462 H 409.849 3.84491 -6.50924 0
M  V30 4463 H 411.117 4.93496 -6.03392 0
M  V30 4464 N 415.346 1.54954 0.287554 0
M  V30 4465 C 416.757 1.65732 0.859634 0
M  V30 4466 C 417.108 0.574767 1.87592 0
M  V30 4467 O 416.233 -0.286299 2.14498 0
M  V30 4468 C 416.828 3.00438 1.56597 0
M  V30 4469 C 415.387 3.13292 2.08627 0
M  V30 4470 C 414.534 2.61473 0.923416 0
M  V30 4471 H 417.485 1.5857 0.0642338 0
M  V30 4472 H 417.506 2.92613 2.43224 0
M  V30 4473 H 417.018 3.79207 0.826053 0
M  V30 4474 H 415.119 2.39268 2.85625 0
M  V30 4475 H 415.232 4.19647 2.31157 0
M  V30 4476 H 413.596 2.18264 1.31275 0
M  V30 4477 H 414.379 3.42733 0.197241 0
M  V30 4478 N 416.824 -0.551391 1.4764 0
M  V30 4479 C 418.24 -0.877887 1.33287 0
M  V30 4480 C 418.44 -1.98817 0.327721 0
M  V30 4481 O 417.496 -2.51171 -0.258695 0
M  V30 4482 C 418.809 -1.26563 2.72768 0
M  V30 4483 C 420.357 -1.37673 2.81097 0
M  V30 4484 C 420.832 -1.79799 4.21232 0
M  V30 4485 N 422.323 -1.8694 4.23802 0
M  V30 4486 C 423.058 -2.20876 5.29151 0
M  V30 4487 N 422.554 -2.53386 6.448 0
M  V30 4488 N 424.347 -2.217 5.16532 0
M  V30 4489 H 416.498 0.18153 2.11623 0
M  V30 4490 H 418.761 0.0185514 0.947818 0
M  V30 4491 H 418.467 -0.523591 3.47781 0
M  V30 4492 H 418.341 -2.22052 3.04915 0
M  V30 4493 H 420.728 -2.10956 2.06353 0
M  V30 4494 H 420.809 -0.40357 2.52596 0
M  V30 4495 H 420.453 -1.07083 4.96483 0
M  V30 4496 H 420.383 -2.78128 4.4716 0
M  V30 4497 H 422.874 -1.64179 3.40373 0
M  V30 4498 H 423.187 -2.78325 7.20941 0
M  V30 4499 H 421.532 -2.50953 6.48111 0
M  V30 4500 H 424.723 -1.95745 4.25207 0
M  V30 4501 H 424.896 -2.47818 5.98741 0
M  V30 4502 N 418.302 -1.35869 -0.798587 0
M  V30 4503 C 419.527 -1.32883 -1.59238 0
M  V30 4504 C 419.952 0.0894587 -1.87887 0
M  V30 4505 O 419.31 1.05869 -1.47178 0
M  V30 4506 C 419.358 -2.14892 -2.89575 0
M  V30 4507 O 418.462 -1.53512 -3.82763 0
M  V30 4508 H 417.803 -0.455236 -0.48338 0
M  V30 4509 H 420.333 -1.79024 -0.990539 0
M  V30 4510 H 420.343 -2.27139 -3.38928 0
M  V30 4511 H 419.018 -3.17998 -2.68049 0
M  V30 4512 H 417.595 -1.50153 -3.41334 0
M  V30 4513 N 419.78 1.02168 -1.19998 0
M  V30 4514 C 421.028 1.75338 -1.00504 0
M  V30 4515 C 421.349 1.89387 0.464506 0
M  V30 4516 O 420.619 1.43268 1.33608 0
M  V30 4517 H 419.199 0.649564 -0.368885 0
M  V30 4518 H 421.861 1.23205 -1.51018 0
M  V30 4519 H 420.957 2.75892 -1.45912 0
M  V30 4520 N 421.258 1.00505 1.21394 0
M  V30 4521 C 422.504 0.698477 1.91031 0
M  V30 4522 C 422.859 -0.762448 1.76648 0
M  V30 4523 O 422.152 -1.54554 1.13241 0
M  V30 4524 C 422.346 1.0546 3.41486 0
M  V30 4525 C 422.175 2.5486 3.70508 0
M  V30 4526 C 420.945 3.21461 3.8986 0
M  V30 4527 C 423.143 3.53019 3.74008 0
M  V30 4528 N 421.125 4.60211 4.06299 0
M  V30 4529 C 422.496 4.77279 3.95733 0
M  V30 4530 C 424.551 3.47154 3.56915 0
M  V30 4531 C 423.254 5.96388 4.02137 0
M  V30 4532 C 425.28 4.65652 3.64585 0
M  V30 4533 C 424.642 5.88717 3.86771 0
M  V30 4534 H 420.741 0.30707 0.719189 0
M  V30 4535 H 423.325 1.28753 1.46051 0
M  V30 4536 H 421.496 0.494007 3.85246 0
M  V30 4537 H 423.228 0.702765 3.98552 0
M  V30 4538 H 419.983 2.71906 3.87768 0
M  V30 4539 H 420.407 5.32216 4.1842 0
M  V30 4540 H 425.049 2.53015 3.38738 0
M  V30 4541 H 422.767 6.90919 4.19114 0
M  V30 4542 H 426.353 4.62717 3.52681 0
M  V30 4543 H 425.233 6.78877 3.92549 0
M  V30 4544 N 422.737 -1.36956 0.779787 0
M  V30 4545 C 423.7 -2.2851 0.177662 0
M  V30 4546 C 424.7 -1.48393 -0.619377 0
M  V30 4547 O 425.89 -1.68505 -0.441785 0
M  V30 4548 C 423.022 -3.32428 -0.755279 0
M  V30 4549 H 424.215 -2.83269 0.984823 0
M  V30 4550 H 421.768 -1.46358 0.548544 0
M  V30 4551 H 422.503 -2.82808 -1.58714 0
M  V30 4552 H 422.288 -3.91659 -0.185817 0
M  V30 4553 H 423.778 -4.00824 -1.17174 0
M  V30 4554 N 424.215 -0.530993 -1.48385 0
M  V30 4555 C 425.464 0.00474348 -2.01699 0
M  V30 4556 C 425.777 1.35227 -1.41325 0
M  V30 4557 O 426.983 1.97643 -1.86144 0
M  V30 4558 C 425.439 0.0588473 -3.59852 0
M  V30 4559 C 425.047 -1.28385 -4.2921 0
M  V30 4560 C 426.791 0.543358 -4.21008 0
M  V30 4561 C 424.698 -1.19028 -5.79298 0
M  V30 4562 H 423.628 0.00554317 -0.75398 0
M  V30 4563 H 426.279 -0.674924 -1.70637 0
M  V30 4564 H 424.661 0.803612 -3.8776 0
M  V30 4565 H 425.835 -2.04426 -4.12973 0
M  V30 4566 H 424.15 -1.70418 -3.7993 0
M  V30 4567 H 426.747 0.631351 -5.3096 0
M  V30 4568 H 427.09 1.54937 -3.86394 0
M  V30 4569 H 427.623 -0.145754 -3.97533 0
M  V30 4570 H 424.362 -2.17147 -6.18488 0
M  V30 4571 H 423.882 -0.471246 -5.97946 0
M  V30 4572 H 425.561 -0.881365 -6.40969 0
M  V30 4573 N 425.693 1.55336 -0.266172 0
M  V30 4574 C 426.97 1.91372 0.404486 0
M  V30 4575 C 427.35 1.18935 1.74407 0
M  V30 4576 O 426.698 0.3132 2.26343 0
M  V30 4577 C 426.908 3.44581 0.553593 0
M  V30 4578 C 428.256 4.16196 0.840618 0
M  V30 4579 O 429.28 3.50426 0.638739 0
M  V30 4580 O 428.139 5.32567 1.22618 0
M  V30 4581 H 425.233 0.797194 0.220025 0
M  V30 4582 H 427.779 1.66813 -0.311664 0
M  V30 4583 H 426.551 3.89357 -0.389498 0
M  V30 4584 H 426.174 3.75065 1.31955 0
M  V30 4585 N 427.171 -0.0066808 1.57599 0
M  V30 4586 C 428.582 -0.550379 1.78403 0
M  V30 4587 C 428.933 -1.74339 0.900014 0
M  V30 4588 O 428.058 -2.16166 0.100713 0
M  V30 4589 C 428.653 -1.00523 3.23544 0
M  V30 4590 C 427.212 -1.49428 3.45468 0
M  V30 4591 C 426.359 -0.442444 2.73748 0
M  V30 4592 H 429.31 0.219508 1.57175 0
M  V30 4593 H 429.331 -1.87157 3.31289 0
M  V30 4594 H 428.843 -0.136735 3.87859 0
M  V30 4595 H 426.944 -2.3839 2.86358 0
M  V30 4596 H 427.057 -1.52635 4.54136 0
M  V30 4597 H 425.421 -0.902578 2.38171 0
M  V30 4598 H 426.204 0.416973 3.40758 0
M  V30 4599 N 428.649 -1.55105 -0.279332 0
M  V30 4600 C 429.896 -1.75412 -1.01177 0
M  V30 4601 C 430.224 -0.551728 -1.86511 0
M  V30 4602 O 429.479 0.465919 -1.90073 0
M  V30 4603 C 429.778 -3.0086 -1.92919 0
M  V30 4604 C 429.444 -4.33689 -1.23387 0
M  V30 4605 C 428.106 -4.69792 -1.04159 0
M  V30 4606 C 430.458 -5.15941 -0.738562 0
M  V30 4607 C 427.786 -5.85707 -0.341166 0
M  V30 4608 C 430.138 -6.32579 -0.0517636 0
M  V30 4609 C 428.802 -6.67326 0.152292 0
M  V30 4610 H 428.072 -0.641879 -0.370233 0
M  V30 4611 H 430.719 -1.89373 -0.284627 0
M  V30 4612 H 429.024 -2.81773 -2.72234 0
M  V30 4613 H 430.721 -3.13768 -2.49701 0
M  V30 4614 H 427.311 -4.05309 -1.39364 0
M  V30 4615 H 431.495 -4.8853 -0.874764 0
M  V30 4616 H 426.751 -6.11157 -0.172287 0
M  V30 4617 H 430.925 -6.9557 0.339828 0
M  V30 4618 H 428.552 -7.56998 0.697014 0
M  V30 4619 N 430.127 0.543554 -1.4793 0
M  V30 4620 C 431.375 1.29752 -1.54948 0
M  V30 4621 C 431.696 1.93764 -0.219242 0
M  V30 4622 O 430.966 1.80639 0.75805 0
M  V30 4623 H 429.546 0.481874 -0.570795 0
M  V30 4624 H 432.208 0.633636 -1.84312 0
M  V30 4625 H 431.304 2.08392 -2.32334 0
M  V30 4626 N 431.605 1.3629 0.791371 0
M  V30 4627 C 432.555 1.26988 1.89362 0
M  V30 4628 C 433.539 0.161795 1.60084 0
M  V30 4629 O 434.731 0.394426 1.72549 0
M  V30 4630 C 431.86 1.05944 3.26544 0
M  V30 4631 C 430.946 2.21211 3.61838 0
M  V30 4632 N 431.337 3.46518 3.68455 0
M  V30 4633 C 429.635 2.12933 3.91887 0
M  V30 4634 C 430.336 4.2241 3.99931 0
M  V30 4635 N 429.312 3.51329 4.14812 0
M  V30 4636 H 433.114 2.21908 1.92702 0
M  V30 4637 H 430.628 1.28982 0.986787 0
M  V30 4638 H 432.625 0.973666 4.05371 0
M  V30 4639 H 431.285 0.119223 3.24481 0
M  V30 4640 H 432.296 3.80677 3.51148 0
M  V30 4641 H 428.973 1.26855 3.97761 0
M  V30 4642 H 430.363 5.30767 4.1199 0
M  V30 4643 N 433.083 -1.0153 1.20538 0
M  V30 4644 C 434.308 -1.79283 1.04271 0
M  V30 4645 C 434.733 -1.8372 -0.403544 0
M  V30 4646 O 434.091 -1.27321 -1.2907 0
M  V30 4647 C 434.139 -3.21535 1.63241 0
M  V30 4648 O 433.243 -4.03099 0.870908 0
M  V30 4649 H 432.584 -0.55293 0.367647 0
M  V30 4650 H 435.114 -1.27696 1.59859 0
M  V30 4651 H 435.124 -3.72243 1.6703 0
M  V30 4652 H 433.799 -3.1762 2.68497 0
M  V30 4653 H 432.376 -3.61693 0.907323 0
M  V30 4654 N 434.561 -1.01147 -1.20859 0
M  V30 4655 C 435.972 -0.730205 -1.71828 0
M  V30 4656 C 436.323 0.751662 -1.8123 0
M  V30 4657 O 435.448 1.58686 -1.47132 0
M  V30 4658 C 436.043 -1.31885 -3.12077 0
M  V30 4659 C 434.602 -1.08656 -3.60376 0
M  V30 4660 C 433.749 -1.42769 -2.37723 0
M  V30 4661 H 436.7 -1.18158 -1.05945 0
M  V30 4662 H 436.721 -0.706793 -3.73878 0
M  V30 4663 H 436.233 -2.39737 -3.05201 0
M  V30 4664 H 434.334 -0.0254814 -3.72591 0
M  V30 4665 H 434.447 -1.76301 -4.45483 0
M  V30 4666 H 432.811 -0.846603 -2.40218 0
M  V30 4667 H 433.594 -2.51666 -2.33493 0
M  V30 4668 N 436.039 1.36541 -0.78704 0
M  V30 4669 C 437.267 2.03561 -0.370199 0
M  V30 4670 C 437.682 1.59347 1.01263 0
M  V30 4671 O 437.039 0.781781 1.64907 0
M  V30 4672 C 437.09 3.59033 -0.421614 0
M  V30 4673 O 436.811 4.01634 -1.7499 0
M  V30 4674 C 438.312 4.433 0.00489763 0
M  V30 4675 H 435.532 0.653346 -0.152904 0
M  V30 4676 H 438.076 1.74566 -1.06522 0
M  V30 4677 H 436.231 3.86746 0.224971 0
M  V30 4678 H 436.645 4.96217 -1.69909 0
M  V30 4679 H 438.119 5.51939 -0.0822184 0
M  V30 4680 H 438.596 4.26285 1.05723 0
M  V30 4681 H 439.202 4.20843 -0.614085 0
M  V30 4682 N 437.518 0.538854 1.48102 0
M  V30 4683 C 438.451 -0.266495 2.26639 0
M  V30 4684 C 439.429 -0.93687 1.32897 0
M  V30 4685 O 440.613 -0.959507 1.62252 0
M  V30 4686 C 437.74 -1.37814 3.09394 0
M  V30 4687 C 436.786 -0.818247 4.18577 0
M  V30 4688 S 437.619 0.320848 5.34538 0
M  V30 4689 C 438.775 -0.793059 6.20855 0
M  V30 4690 H 439.008 0.399994 2.94597 0
M  V30 4691 H 436.541 0.324808 1.50945 0
M  V30 4692 H 438.499 -2.01488 3.57649 0
M  V30 4693 H 437.16 -2.01639 2.40833 0
M  V30 4694 H 436.353 -1.65247 4.7614 0
M  V30 4695 H 435.955 -0.258036 3.73109 0
M  V30 4696 H 438.247 -1.68961 6.56093 0
M  V30 4697 H 439.19 -0.255204 7.0764 0
M  V30 4698 H 439.598 -1.07746 5.54122 0
M  V30 4699 N 438.996 -1.55193 0.274407 0
M  V30 4700 C 439.959 -2.212 -0.600279 0
M  V30 4701 C 440.959 -1.18963 -1.08187 0
M  V30 4702 O 442.149 -1.43873 -0.982158 0
M  V30 4703 C 439.281 -2.87739 -1.82809 0
M  V30 4704 H 440.474 -2.9989 -0.0239682 0
M  V30 4705 H 438.027 -1.5628 0.0250192 0
M  V30 4706 H 438.762 -2.13058 -2.44493 0
M  V30 4707 H 438.547 -3.62658 -1.49069 0
M  V30 4708 H 440.037 -3.38171 -2.45011 0
M  V30 4709 N 440.474 -0.00167713 -1.576 0
M  V30 4710 C 441.704 0.692754 -1.94639 0
M  V30 4711 C 442.112 1.67744 -0.87513 0
M  V30 4712 O 441.455 1.8305 0.154382 0
M  V30 4713 C 441.517 1.47881 -3.27676 0
M  V30 4714 C 441.181 0.655518 -4.52274 0
M  V30 4715 C 442.178 -0.0575214 -5.19868 0
M  V30 4716 C 439.863 0.600994 -4.98692 0
M  V30 4717 C 441.857 -0.814052 -6.3218 0
M  V30 4718 C 439.544 -0.15926 -6.10892 0
M  V30 4719 C 440.542 -0.865515 -6.77494 0
M  V30 4720 O 440.23 -1.61336 -7.87544 0
M  V30 4721 H 439.962 0.197792 -0.646417 0
M  V30 4722 H 442.516 -0.049423 -2.05341 0
M  V30 4723 H 440.746 2.2655 -3.13388 0
M  V30 4724 H 442.435 2.05874 -3.49816 0
M  V30 4725 H 443.201 -0.0245611 -4.84994 0
M  V30 4726 H 439.08 1.14025 -4.46676 0
M  V30 4727 H 442.624 -1.36584 -6.84098 0
M  V30 4728 H 438.521 -0.194035 -6.45208 0
M  V30 4729 H 439.289 -1.53025 -8.04068 0
M  V30 4730 N 441.952 1.55251 0.271103 0
M  V30 4731 C 442.882 1.9127 1.33933 0
M  V30 4732 C 443.863 0.77478 1.5143 0
M  V30 4733 O 445.048 1.03307 1.64442 0
M  V30 4734 C 442.178 2.18627 2.69851 0
M  V30 4735 C 441.132 3.34442 2.67081 0
M  V30 4736 C 440.458 3.47284 4.06569 0
M  V30 4737 C 441.758 4.70784 2.26185 0
M  V30 4738 H 443.452 2.80744 1.04035 0
M  V30 4739 H 440.998 1.35077 0.499017 0
M  V30 4740 H 442.951 2.42413 3.44694 0
M  V30 4741 H 441.675 1.25955 3.01335 0
M  V30 4742 H 440.334 3.10627 1.94695 0
M  V30 4743 H 439.982 2.52074 4.35279 0
M  V30 4744 H 439.682 4.25152 4.0561 0
M  V30 4745 H 441.206 3.73363 4.83148 0
M  V30 4746 H 442.62 4.94102 2.90751 0
M  V30 4747 H 441.017 5.51582 2.36384 0
M  V30 4748 H 442.087 4.69478 1.21319 0
M  V30 4749 N 443.43 -0.535701 1.48216 0
M  V30 4750 C 444.36 -1.65014 1.65204 0
M  V30 4751 C 445.341 -1.62554 0.501011 0
M  V30 4752 O 446.526 -1.7984 0.732886 0
M  V30 4753 C 443.656 -3.03616 1.68626 0
M  V30 4754 C 442.61 -3.20932 2.83172 0
M  V30 4755 C 441.936 -4.60537 2.71679 0
M  V30 4756 C 443.236 -3.04249 4.24535 0
M  V30 4757 H 444.93 -1.51053 2.58502 0
M  V30 4758 H 442.476 -0.725262 1.24402 0
M  V30 4759 H 444.429 -3.81446 1.79099 0
M  V30 4760 H 443.153 -3.18587 0.719026 0
M  V30 4761 H 441.812 -2.45517 2.72244 0
M  V30 4762 H 441.46 -4.72336 1.72937 0
M  V30 4763 H 441.16 -4.73069 3.48538 0
M  V30 4764 H 442.684 -5.40475 2.84112 0
M  V30 4765 H 444.098 -3.71877 4.36326 0
M  V30 4766 H 442.495 -3.28278 5.02348 0
M  V30 4767 H 443.565 -2.00739 4.41397 0
M  V30 4768 N 444.908 -1.36708 -0.784132 0
M  V30 4769 C 445.856 -1.31533 -1.91838 0
M  V30 4770 C 446.85 -0.206205 -1.6814 0
M  V30 4771 O 448.056 -0.373519 -1.76082 0
M  V30 4772 H 444.431 -0.409613 -0.630651 0
M  V30 4773 H 446.402 -2.2731 -1.9332 0
M  V30 4774 C 445.151 -1.12679 -3.28936 0
M  V30 4775 H 444.474 -1.97274 -3.4774 0
M  V30 4776 H 445.914 -1.13106 -4.08636 0
M  V30 4777 C 444.373 0.168281 -3.36479 0
M  V30 4778 O 444.903 1.15625 -3.84699 0
M  V30 4779 N 443.109 0.214762 -2.89805 0
M  V30 4780 H 442.656 -0.589852 -2.50756 0
M  V30 4781 H 442.614 1.08094 -2.95234 0
M  V30 4782 N 446.386 1.0089 -1.21074 0
M  V30 4783 C 447.802 1.2695 -0.967257 0
M  V30 4784 C 448.002 1.9846 0.348673 0
M  V30 4785 O 447.058 2.28459 1.0753 0
M  V30 4786 C 448.371 2.09697 -2.15517 0
M  V30 4787 C 449.919 2.22937 -2.197 0
M  V30 4788 C 450.394 3.09064 -3.37999 0
M  V30 4789 N 451.885 3.16653 -3.38061 0
M  V30 4790 C 452.62 3.8354 -4.26245 0
M  V30 4791 N 452.116 4.52488 -5.2462 0
M  V30 4792 N 453.909 3.80141 -4.14064 0
M  V30 4793 H 446.06 0.529005 -2.05707 0
M  V30 4794 H 448.323 0.296148 -0.900556 0
M  V30 4795 H 448.029 1.64497 -3.10859 0
M  V30 4796 H 447.903 3.10444 -2.14253 0
M  V30 4797 H 450.29 2.67357 -1.24916 0
M  V30 4798 H 450.371 1.21673 -2.2501 0
M  V30 4799 H 450.015 2.65347 -4.33074 0
M  V30 4800 H 449.945 4.10433 -3.29928 0
M  V30 4801 H 452.436 2.67566 -2.66865 0
M  V30 4802 H 452.749 5.01219 -5.88217 0
M  V30 4803 H 451.094 4.51288 -5.28549 0
M  V30 4804 H 454.285 3.25427 -3.36474 0
M  V30 4805 H 454.458 4.31992 -4.82998 0
M  V30 4806 N 447.864 1.01787 1.20321 0
M  V30 4807 C 448.827 0.593972 2.2137 0
M  V30 4808 C 449.827 -0.336553 1.57239 0
M  V30 4809 O 451.017 -0.125069 1.7375 0
M  V30 4810 C 448.149 -0.132433 3.40643 0
M  V30 4811 H 449.342 1.48791 2.60387 0
M  V30 4812 H 446.895 0.807803 1.33807 0
M  V30 4813 H 447.63 -1.04123 3.0713 0
M  V30 4814 H 447.415 0.53605 3.88418 0
M  V30 4815 H 448.905 -0.416314 4.1552 0
M  V30 4816 N 449.342 -1.36122 0.79427 0
M  V30 4817 C 450.59 -1.98718 0.368177 0
M  V30 4818 C 450.911 -1.63345 -1.06506 0
M  V30 4819 O 450.181 -0.909825 -1.73491 0
M  V30 4820 H 448.761 -0.735038 0.133146 0
M  V30 4821 H 451.423 -1.66239 1.01739 0
M  V30 4822 H 450.519 -3.08633 0.463923 0
M  V30 4823 N 450.82 -0.546701 -1.47814 0
M  V30 4824 C 451.75 0.195317 -2.32682 0
M  V30 4825 C 452.731 0.918981 -1.43139 0
M  V30 4826 O 453.916 0.901501 -1.72008 0
M  V30 4827 C 451.046 1.23237 -3.247 0
M  V30 4828 C 450 0.625818 -4.234 0
M  V30 4829 C 449.326 1.76674 -5.04669 0
M  V30 4830 C 450.626 -0.413515 -5.2066 0
M  V30 4831 H 452.32 -0.513184 -2.94969 0
M  V30 4832 H 449.866 -0.248241 -1.41844 0
M  V30 4833 H 451.819 1.75955 -3.82907 0
M  V30 4834 H 450.543 1.97067 -2.60446 0
M  V30 4835 H 449.202 0.120023 -3.66403 0
M  V30 4836 H 448.85 2.49383 -4.36826 0
M  V30 4837 H 448.55 1.36673 -5.71484 0
M  V30 4838 H 450.074 2.29738 -5.65732 0
M  V30 4839 H 451.488 0.0272042 -5.73294 0
M  V30 4840 H 449.885 -0.731825 -5.95621 0
M  V30 4841 H 450.955 -1.31325 -4.66778 0
M  V30 4842 N 452.299 1.55045 -0.282633 0
M  V30 4843 C 453.524 2.04628 0.337977 0
M  V30 4844 C 453.949 1.15937 1.48123 0
M  V30 4845 O 453.307 0.159532 1.80597 0
M  V30 4846 C 453.355 3.51854 0.78936 0
M  V30 4847 O 452.459 3.66236 1.89592 0
M  V30 4848 H 451.8 0.660434 0.0687261 0
M  V30 4849 H 454.33 2.00261 -0.419124 0
M  V30 4850 H 454.34 3.93361 1.08311 0
M  V30 4851 H 453.015 4.15873 -0.0470419 0
M  V30 4852 H 451.592 3.36633 1.60413 0
M  V30 4853 N 453.777 0.010035 1.57597 0
M  V30 4854 C 454.727 -0.986858 2.05536 0
M  V30 4855 C 455.711 -1.29711 0.952042 0
M  V30 4856 O 456.903 -1.28641 1.21575 0
M  V30 4857 C 454.032 -2.2756 2.57043 0
M  V30 4858 C 453.118 -1.99455 3.74271 0
M  V30 4859 N 453.509 -1.41546 4.85591 0
M  V30 4860 C 451.807 -2.29547 3.82393 0
M  V30 4861 C 452.508 -1.3014 5.66956 0
M  V30 4862 N 451.484 -1.79044 5.13268 0
M  V30 4863 H 455.286 -0.533778 2.89012 0
M  V30 4864 H 452.8 -0.195432 1.6122 0
M  V30 4865 H 454.797 -2.99829 2.89669 0
M  V30 4866 H 453.457 -2.73512 1.7499 0
M  V30 4867 H 454.468 -1.09294 5.06236 0
M  V30 4868 H 451.145 -2.78304 3.11213 0
M  V30 4869 H 452.535 -0.855237 6.66435 0
M  V30 4870 N 455.255 -1.55392 -0.262866 0
M  V30 4871 C 456.188 -1.8391 -1.35101 0
M  V30 4872 C 457.166 -0.692901 -1.47097 0
M  V30 4873 O 458.35 -0.936979 -1.63563 0
M  V30 4874 C 455.477 -2.00969 -2.72634 0
M  V30 4875 C 454.523 -3.23559 -2.7787 0
M  V30 4876 S 455.356 -4.80647 -2.3609 0
M  V30 4877 C 456.512 -5.00692 -3.75578 0
M  V30 4878 H 456.745 -2.75918 -1.1071 0
M  V30 4879 H 454.278 -1.47294 -0.463029 0
M  V30 4880 H 456.236 -2.11482 -3.51832 0
M  V30 4881 H 454.897 -1.09832 -2.94272 0
M  V30 4882 H 454.09 -3.32413 -3.78837 0
M  V30 4883 H 453.692 -3.11689 -2.06702 0
M  V30 4884 H 455.984 -4.87055 -4.70939 0
M  V30 4885 H 456.927 -6.02717 -3.71669 0
M  V30 4886 H 457.335 -4.28619 -3.6735 0
M  V30 4887 N 456.733 0.527833 -1.48498 0
M  V30 4888 C 457.663 1.64136 -1.66077 0
M  V30 4889 C 458.644 1.62286 -0.509625 0
M  V30 4890 O 459.829 1.79449 -0.742413 0
M  V30 4891 C 456.959 3.02717 -1.70234 0
M  V30 4892 C 455.913 3.19426 -2.8487 0
M  V30 4893 C 455.239 4.5909 -2.74118 0
M  V30 4894 C 456.539 3.01993 -4.26142 0
M  V30 4895 H 458.233 1.4968 -2.593 0
M  V30 4896 H 455.779 0.718654 -1.24785 0
M  V30 4897 H 457.732 3.80491 -1.8112 0
M  V30 4898 H 456.456 3.18201 -0.735911 0
M  V30 4899 H 455.115 2.4407 -2.73542 0
M  V30 4900 H 454.763 4.71413 -1.7544 0
M  V30 4901 H 454.463 4.71214 -3.51042 0
M  V30 4902 H 455.987 5.3896 -2.86974 0
M  V30 4903 H 457.401 3.69558 -4.38292 0
M  V30 4904 H 455.798 3.2561 -5.04082 0
M  V30 4905 H 456.868 1.98396 -4.42456 0
M  V30 4906 N 458.211 1.37122 0.776871 0
M  V30 4907 C 459.46 1.31373 1.53049 0
M  V30 4908 C 459.773 -0.101016 1.95339 0
M  V30 4909 O 460.979 -0.280953 2.70042 0
M  V30 4910 C 459.435 2.30567 2.76346 0
M  V30 4911 C 459.043 3.77543 2.41175 0
M  V30 4912 C 460.787 2.33818 3.54301 0
M  V30 4913 C 458.694 4.68481 3.60943 0
M  V30 4914 H 457.624 0.488234 0.574581 0
M  V30 4915 H 460.275 1.62554 0.851372 0
M  V30 4916 H 458.657 1.92396 3.46121 0
M  V30 4917 H 459.831 4.24521 1.79216 0
M  V30 4918 H 458.146 3.77187 1.76405 0
M  V30 4919 H 460.743 2.98965 4.4331 0
M  V30 4920 H 461.086 1.3503 3.93793 0
M  V30 4921 H 461.619 2.7067 2.91518 0
M  V30 4922 H 458.358 5.68378 3.26537 0
M  V30 4923 H 457.878 4.2621 4.22025 0
M  V30 4924 H 459.557 4.85366 4.27819 0
M  V30 4925 N 459.689 -1.00246 1.21608 0
M  V30 4926 C 460.621 -2.09244 0.935401 0
M  V30 4927 C 461.634 -1.62592 -0.0823594 0
M  V30 4928 O 462.823 -1.77865 0.150456 0
M  V30 4929 C 459.923 -3.36724 0.383453 0
M  V30 4930 C 459.096 -4.1245 1.45615 0
M  V30 4931 C 458.155 -5.18219 0.912991 0
M  V30 4932 O 457.181 -5.46337 1.59701 0
M  V30 4933 N 458.383 -5.7987 -0.270478 0
M  V30 4934 H 461.148 -2.33905 1.87373 0
M  V30 4935 H 458.709 -1.16748 1.12167 0
M  V30 4936 H 460.701 -4.047 0.00562157 0
M  V30 4937 H 459.271 -3.09201 -0.459758 0
M  V30 4938 H 458.491 -3.39241 2.00772 0
M  V30 4939 H 459.779 -4.59819 2.17817 0
M  V30 4940 H 459.177 -5.59381 -0.843195 0
M  V30 4941 H 457.734 -6.49126 -0.589794 0
M  V30 4942 N 461.167 -1.02423 -1.1978 0
M  V30 4943 C 462.583 -0.740459 -1.41384 0
M  V30 4944 C 462.783 0.676827 -1.89793 0
M  V30 4945 O 461.839 1.4435 -2.0717 0
M  V30 4946 C 463.152 -1.77264 -2.42895 0
M  V30 4947 C 464.7 -1.79165 -2.56649 0
M  V30 4948 C 465.175 -2.8133 -3.6141 0
M  V30 4949 N 466.666 -2.80118 -3.68901 0
M  V30 4950 C 467.401 -3.55824 -4.49641 0
M  V30 4951 N 466.897 -4.41231 -5.34123 0
M  V30 4952 N 468.69 -3.44387 -4.44246 0
M  V30 4953 H 460.841 -1.9391 -0.866764 0
M  V30 4954 H 463.104 -0.838074 -0.443098 0
M  V30 4955 H 462.81 -2.7884 -2.14339 0
M  V30 4956 H 462.684 -1.59108 -3.42001 0
M  V30 4957 H 465.071 -0.782702 -2.84531 0
M  V30 4958 H 465.152 -2.01396 -1.57713 0
M  V30 4959 H 464.796 -3.82394 -3.34271 0
M  V30 4960 H 464.726 -2.56359 -4.59986 0
M  V30 4961 H 467.217 -2.1817 -3.08562 0
M  V30 4962 H 467.53 -4.95747 -5.92836 0
M  V30 4963 H 465.875 -4.45306 -5.33599 0
M  V30 4964 H 469.066 -2.7708 -3.77285 0
M  V30 4965 H 469.239 -4.0364 -5.06931 0
M  V30 4966 N 462.645 1.35699 -0.801477 0
M  V30 4967 C 463.891 1.99208 -0.380022 0
M  V30 4968 C 464.224 1.63445 1.04878 0
M  V30 4969 O 463.499 0.895223 1.72673 0
M  V30 4970 C 463.782 3.55755 -0.557708 0
M  V30 4971 C 463.635 4.01332 -2.03107 0
M  V30 4972 C 464.954 4.40096 0.0197968 0
M  V30 4973 H 462.073 0.723667 -0.139552 0
M  V30 4974 H 464.715 1.60928 -1.01006 0
M  V30 4975 H 462.865 3.88494 -0.0213741 0
M  V30 4976 H 464.537 3.79026 -2.62939 0
M  V30 4977 H 462.78 3.52429 -2.52936 0
M  V30 4978 H 463.451 5.10234 -2.1063 0
M  V30 4979 H 465.927 4.13786 -0.438179 0
M  V30 4980 H 464.803 5.48735 -0.134477 0
M  V30 4981 H 465.064 4.2786 1.11303 0
M  V30 4982 N 464.123 0.554532 1.47522 0
M  V30 4983 C 465.073 -0.215008 2.26984 0
M  V30 4984 C 466.057 -0.88774 1.34194 0
M  V30 4985 O 467.249 -0.786489 1.58567 0
M  V30 4986 C 464.378 -1.24604 3.19889 0
M  V30 4987 C 463.464 -0.576857 4.20159 0
M  V30 4988 N 463.855 0.351541 5.04577 0
M  V30 4989 C 462.153 -0.831104 4.38188 0
M  V30 4990 C 462.854 0.739995 5.76974 0
M  V30 4991 N 461.83 0.0954407 5.43516 0
M  V30 4992 H 465.632 0.498843 2.89636 0
M  V30 4993 H 463.146 0.374279 1.58028 0
M  V30 4994 H 465.143 -1.81128 3.75498 0
M  V30 4995 H 463.803 -1.96101 2.58794 0
M  V30 4996 H 464.814 0.725556 5.12792 0
M  V30 4997 H 461.491 -1.53479 3.88266 0
M  V30 4998 H 462.881 1.50271 6.5488 0
M  V30 4999 N 465.601 -1.54893 0.290851 0
M  V30 5000 C 466.831 -2.04047 -0.323818 0
M  V30 5001 C 467.239 -1.16809 -1.48837 0
M  V30 5002 O 466.582 -0.184145 -1.82775 0
M  V30 5003 C 466.644 -3.49248 -0.852395 0
M  V30 5004 C 466.308 -4.56623 0.185557 0
M  V30 5005 C 467.305 -5.09985 1.01053 0
M  V30 5006 C 464.99 -5.01252 0.324332 0
M  V30 5007 C 466.984 -6.06507 1.96031 0
M  V30 5008 C 464.671 -5.97596 1.27757 0
M  V30 5009 C 465.669 -6.50107 2.09405 0
M  V30 5010 O 465.357 -7.44565 3.03114 0
M  V30 5011 H 465.089 -0.671735 -0.0758129 0
M  V30 5012 H 467.643 -2.00947 0.425393 0
M  V30 5013 H 465.873 -3.49639 -1.65195 0
M  V30 5014 H 467.562 -3.81654 -1.38185 0
M  V30 5015 H 468.328 -4.76307 0.914129 0
M  V30 5016 H 464.207 -4.60015 -0.301213 0
M  V30 5017 H 467.751 -6.47418 2.598 0
M  V30 5018 H 463.648 -6.30691 1.37473 0
M  V30 5019 H 464.416 -7.62334 2.97976 0
M  V30 5020 N 467.08 -0.0183926 -1.57589 0
M  V30 5021 C 468.043 0.951986 -2.08494 0
M  V30 5022 C 469.043 1.26092 -0.997874 0
M  V30 5023 O 470.233 1.20304 -1.25987 0
M  V30 5024 C 467.365 2.27165 -2.54182 0
M  V30 5025 H 468.558 0.511307 -2.95509 0
M  V30 5026 H 466.111 0.229444 -1.54607 0
M  V30 5027 H 466.846 2.75884 -1.70465 0
M  V30 5028 H 466.631 2.06057 -3.33591 0
M  V30 5029 H 468.121 2.9674 -2.93828 0
M  V30 5030 N 468.558 1.5553 0.254621 0
M  V30 5031 C 469.804 1.77262 0.985193 0
M  V30 5032 C 470.137 0.582286 1.85265 0
M  V30 5033 O 469.412 -0.419666 1.89919 0
M  V30 5034 C 469.695 3.0881 1.85225 0
M  V30 5035 C 469.548 4.38233 1.0135 0
M  V30 5036 C 470.867 3.3653 2.83612 0
M  V30 5037 H 467.986 0.644906 0.356742 0
M  V30 5038 H 470.628 1.88264 0.256236 0
M  V30 5039 H 468.778 2.99562 2.47376 0
M  V30 5040 H 470.45 4.59463 0.411269 0
M  V30 5041 H 468.693 4.32636 0.317574 0
M  V30 5042 H 469.364 5.26644 1.65379 0
M  V30 5043 H 471.84 3.45691 2.31596 0
M  V30 5044 H 470.716 4.29805 3.41407 0
M  V30 5045 H 470.977 2.57064 3.59681 0
M  V30 5046 N 470.036 -0.519951 1.48776 0
M  V30 5047 C 470.983 -1.62352 1.64044 0
M  V30 5048 C 471.953 -1.58945 0.482251 0
M  V30 5049 O 473.138 -1.77219 0.706971 0
M  V30 5050 C 470.278 -3.00579 1.69547 0
M  V30 5051 C 469.391 -3.14145 2.96541 0
M  V30 5052 C 468.526 -4.42991 2.93142 0
M  V30 5053 C 467.565 -4.50122 4.14797 0
M  V30 5054 N 466.702 -5.7037 4.09418 0
M  V30 5055 H 471.542 -1.48643 2.58281 0
M  V30 5056 H 469.079 -0.723516 1.28077 0
M  V30 5057 H 471.037 -3.80671 1.70719 0
M  V30 5058 H 469.667 -3.13036 0.787918 0
M  V30 5059 H 468.719 -2.27239 3.05068 0
M  V30 5060 H 470.031 -3.15275 3.86527 0
M  V30 5061 H 469.185 -5.31385 2.92772 0
M  V30 5062 H 467.924 -4.44398 2.00902 0
M  V30 5063 H 466.929 -3.60133 4.15433 0
M  V30 5064 H 468.154 -4.50445 5.08208 0
M  V30 5065 H 466.1 -5.72655 3.20004 0
M  V30 5066 H 466.017 -5.73036 4.93119 0
M  V30 5067 H 467.285 -6.61023 4.13121 0
M  V30 5068 N 471.514 -1.37532 -0.769588 0
M  V30 5069 C 472.461 -1.3347 -1.88293 0
M  V30 5070 C 473.431 -0.199891 -1.64893 0
M  V30 5071 O 474.616 -0.389594 -1.8678 0
M  V30 5072 C 471.756 -1.14968 -3.25387 0
M  V30 5073 C 470.869 -2.37698 -3.60727 0
M  V30 5074 C 470.004 -2.12051 -4.8704 0
M  V30 5075 C 469.043 -3.30636 -5.15117 0
M  V30 5076 N 468.18 -3.04527 -6.3262 0
M  V30 5077 H 473.02 -2.28658 -1.911 0
M  V30 5078 H 470.557 -1.13622 -0.934257 0
M  V30 5079 H 472.515 -1.02261 -4.04473 0
M  V30 5080 H 471.145 -0.234263 -3.21949 0
M  V30 5081 H 470.197 -2.61137 -2.76608 0
M  V30 5082 H 471.509 -3.26131 -3.77413 0
M  V30 5083 H 470.663 -1.96388 -5.74035 0
M  V30 5084 H 469.402 -1.20959 -4.72462 0
M  V30 5085 H 468.407 -3.46836 -4.26597 0
M  V30 5086 H 469.632 -4.22582 -5.31603 0
M  V30 5087 H 467.578 -2.16067 -6.19396 0
M  V30 5088 H 467.495 -3.86503 -6.49732 0
M  V30 5089 H 468.763 -2.92485 -7.22546 0
M  V30 5090 N 472.992 0.995999 -1.22138 0
M  V30 5091 C 473.942 2.06988 -0.956042 0
M  V30 5092 C 474.926 1.60636 0.0921576 0
M  V30 5093 O 476.118 1.76607 -0.117958 0
M  V30 5094 C 473.247 3.39148 -0.532335 0
M  V30 5095 C 472.333 3.92142 -1.61509 0
M  V30 5096 N 472.724 4.18397 -2.84214 0
M  V30 5097 C 471.022 4.20514 -1.48606 0
M  V30 5098 C 471.723 4.61425 -3.54206 0
M  V30 5099 N 470.699 4.64934 -2.81669 0
M  V30 5100 H 474.501 2.25223 -1.88816 0
M  V30 5101 H 472.015 1.17748 -1.11845 0
M  V30 5102 H 474.012 4.15642 -0.323574 0
M  V30 5103 H 472.672 3.22314 0.392921 0
M  V30 5104 H 473.683 4.06682 -3.20671 0
M  V30 5105 H 470.36 4.12769 -0.626762 0
M  V30 5106 H 471.75 4.90387 -4.59315 0
M  V30 5107 N 474.47 1.03057 1.19235 0
M  V30 5108 C 475.717 0.728019 1.88961 0
M  V30 5109 C 476.045 -0.743515 1.79728 0
M  V30 5110 O 475.3 -1.55729 1.1852 0
M  V30 5111 C 475.599 1.1268 3.39172 0
M  V30 5112 C 475.265 2.5969 3.68608 0
M  V30 5113 C 473.927 2.99854 3.76352 0
M  V30 5114 C 476.279 3.54793 3.81801 0
M  V30 5115 C 473.607 4.34031 3.94758 0
M  V30 5116 C 475.959 4.88675 4.0172 0
M  V30 5117 C 474.623 5.28526 4.07697 0
M  V30 5118 H 473.893 0.266401 0.691456 0
M  V30 5119 H 476.54 1.29373 1.41191 0
M  V30 5120 H 474.845 0.479722 3.88852 0
M  V30 5121 H 476.542 0.870203 3.91444 0
M  V30 5122 H 473.132 2.27575 3.63191 0
M  V30 5123 H 477.316 3.24914 3.7516 0
M  V30 5124 H 472.572 4.6444 3.97625 0
M  V30 5125 H 476.746 5.6228 4.1087 0
M  V30 5126 H 474.373 6.32506 4.21712 0
M  V30 5127 N 475.948 -1.35272 0.808662 0
M  V30 5128 C 476.911 -2.28082 0.226093 0
M  V30 5129 C 477.911 -1.49673 -0.587762 0
M  V30 5130 O 479.101 -1.69404 -0.405943 0
M  V30 5131 C 476.233 -3.33955 -0.684596 0
M  V30 5132 H 477.426 -2.81116 1.04469 0
M  V30 5133 H 474.979 -1.45162 0.579466 0
M  V30 5134 H 475.714 -2.86111 -1.5268 0
M  V30 5135 H 475.499 -3.91965 -0.102699 0
M  V30 5136 H 476.989 -4.03219 -1.08646 0
M  V30 5137 N 477.426 -0.562348 -1.47226 0
M  V30 5138 C 478.356 0.170627 -2.32876 0
M  V30 5139 C 479.337 0.903748 -1.44106 0
M  V30 5140 O 480.522 0.883206 -1.72954 0
M  V30 5141 C 477.652 1.19786 -3.25989 0
M  V30 5142 C 476.606 0.580875 -4.2404 0
M  V30 5143 C 475.932 1.71311 -5.06514 0
M  V30 5144 C 477.232 -0.468714 -5.20193 0
M  V30 5145 H 478.926 -0.544441 -2.94408 0
M  V30 5146 H 476.472 -0.263271 -1.41573 0
M  V30 5147 H 478.425 1.71884 -3.84752 0
M  V30 5148 H 477.149 1.94294 -2.62521 0
M  V30 5149 H 475.808 0.0811538 -3.6651 0
M  V30 5150 H 475.456 2.44736 -4.39447 0
M  V30 5151 H 475.156 1.30604 -5.72902 0
M  V30 5152 H 476.68 2.23725 -5.68137 0
M  V30 5153 H 478.094 -0.0336028 -5.7329 0
M  V30 5154 H 476.491 -0.794957 -5.94811 0
M  V30 5155 H 477.561 -1.36269 -4.65359 0
M  V30 5156 N 478.904 1.54736 -0.299062 0
M  V30 5157 C 479.854 2.20155 0.592932 0
M  V30 5158 C 480.838 1.1739 1.10038 0
M  V30 5159 O 482.03 1.43116 1.04147 0
M  V30 5160 C 479.159 2.94437 1.76527 0
M  V30 5161 C 478.245 4.04516 1.27388 0
M  V30 5162 N 478.636 5.03319 0.500339 0
M  V30 5163 C 476.934 4.18022 1.55478 0
M  V30 5164 C 477.635 5.81209 0.238909 0
M  V30 5165 N 476.611 5.37408 0.818163 0
M  V30 5166 H 480.413 2.93899 -0.00563596 0
M  V30 5167 H 477.927 1.62068 -0.103732 0
M  V30 5168 H 479.924 3.3977 2.41582 0
M  V30 5169 H 478.584 2.22209 2.36756 0
M  V30 5170 H 479.595 5.17696 0.145419 0
M  V30 5171 H 476.272 3.56998 2.16469 0
M  V30 5172 H 477.662 6.70812 -0.382223 0
M  V30 5173 N 480.382 0.0267497 1.57577 0
M  V30 5174 C 481.329 -0.955894 2.10075 0
M  V30 5175 C 482.299 -1.32453 1.00226 0
M  V30 5176 O 483.484 -1.41826 1.27632 0
M  V30 5177 C 480.624 -2.2338 2.6305 0
M  V30 5178 C 479.737 -1.92183 3.86898 0
M  V30 5179 C 478.872 -3.14251 4.28275 0
M  V30 5180 C 477.911 -2.78862 5.44888 0
M  V30 5181 N 477.048 -3.93548 5.81433 0
M  V30 5182 H 481.888 -0.501303 2.93753 0
M  V30 5183 H 479.425 -0.235847 1.45197 0
M  V30 5184 H 481.383 -2.98124 2.91853 0
M  V30 5185 H 480.013 -2.6646 1.82205 0
M  V30 5186 H 479.065 -1.07692 3.64838 0
M  V30 5187 H 480.377 -1.62117 4.7172 0
M  V30 5188 H 479.531 -3.97317 4.58502 0
M  V30 5189 H 478.27 -3.47476 3.42215 0
M  V30 5190 H 477.275 -1.94208 5.14357 0
M  V30 5191 H 478.5 -2.46855 6.32645 0
M  V30 5192 H 476.446 -4.2662 4.98328 0
M  V30 5193 H 476.363 -3.67098 6.6089 0
M  V30 5194 H 477.631 -4.77325 6.16264 0
M  V30 5195 N 481.861 -1.55662 -0.24637 0
M  V30 5196 C 483.089 -1.81575 -0.991876 0
M  V30 5197 C 483.504 -0.602545 -1.78927 0
M  V30 5198 O 482.861 0.428795 -1.77391 0
M  V30 5199 C 482.912 -3.05711 -1.92933 0
M  V30 5200 O 482.633 -4.22348 -1.1642 0
M  V30 5201 C 484.134 -3.44428 -2.79078 0
M  V30 5202 H 481.354 -0.604209 -0.291844 0
M  V30 5203 H 483.898 -2.02722 -0.269095 0
M  V30 5204 H 482.053 -2.86612 -2.60638 0
M  V30 5205 H 482.467 -4.92706 -1.79835 0
M  V30 5206 H 483.941 -4.34388 -3.40603 0
M  V30 5207 H 484.418 -2.65037 -3.50217 0
M  V30 5208 H 485.024 -3.65879 -2.16824 0
M  V30 5209 N 483.339 0.512053 -1.4905 0
M  V30 5210 C 484.269 1.62365 -1.67809 0
M  V30 5211 C 485.25 1.61737 -0.526809 0
M  V30 5212 O 486.435 1.78651 -0.761404 0
M  V30 5213 C 483.565 3.00895 -1.73435 0
M  V30 5214 C 482.519 3.16387 -2.88242 0
M  V30 5215 C 481.845 4.56157 -2.78971 0
M  V30 5216 C 483.145 2.97457 -4.29321 0
M  V30 5217 H 484.839 1.46921 -2.60873 0
M  V30 5218 H 482.385 0.705379 -1.2554 0
M  V30 5219 H 484.338 3.78549 -1.85145 0
M  V30 5220 H 483.062 3.17403 -0.769619 0
M  V30 5221 H 481.721 2.41155 -2.76116 0
M  V30 5222 H 481.369 4.69525 -1.8043 0
M  V30 5223 H 481.069 4.67465 -3.5602 0
M  V30 5224 H 482.593 5.35886 -2.92675 0
M  V30 5225 H 484.007 3.64888 -4.42187 0
M  V30 5226 H 482.404 3.20245 -5.07507 0
M  V30 5227 H 483.474 1.93692 -4.44535 0
M  V30 5228 N 484.817 1.37938 0.762283 0
M  V30 5229 C 485.727 1.36681 1.90671 0
M  V30 5230 C 486.743 0.265078 1.71969 0
M  V30 5231 O 487.919 0.502055 1.95042 0
M  V30 5232 C 484.984 1.18211 3.25925 0
M  V30 5233 C 484.045 2.3811 3.57214 0
M  V30 5234 C 483.278 2.20512 4.86014 0
M  V30 5235 O 483.501 1.19429 5.57757 0
M  V30 5236 O 482.435 3.08911 5.16583 0
M  V30 5237 H 486.261 2.33091 1.94685 0
M  V30 5238 H 483.846 1.18767 0.906356 0
M  V30 5239 H 485.728 1.09937 4.06807 0
M  V30 5240 H 484.403 0.248807 3.22742 0
M  V30 5241 H 483.31 2.51958 2.76529 0
M  V30 5242 H 484.643 3.30041 3.65149 0
M  V30 5243 N 486.295 -0.989507 1.22664 0
M  V30 5244 C 487.542 -1.72953 1.05325 0
M  V30 5245 C 487.87 -1.90104 -0.411168 0
M  V30 5246 O 487.125 -1.44386 -1.32103 0
M  V30 5247 C 487.424 -3.13649 1.71345 0
M  V30 5248 C 487.09 -3.16403 3.21248 0
M  V30 5249 C 485.752 -3.16862 3.62149 0
M  V30 5250 C 488.104 -3.12428 4.17179 0
M  V30 5251 C 485.432 -3.11051 4.97458 0
M  V30 5252 C 487.784 -3.08159 5.52468 0
M  V30 5253 C 486.448 -3.06935 5.92746 0
M  V30 5254 H 485.718 -0.632881 0.385412 0
M  V30 5255 H 488.365 -1.15863 1.52473 0
M  V30 5256 H 486.67 -3.74069 1.16532 0
M  V30 5257 H 488.367 -3.69658 1.55416 0
M  V30 5258 H 484.957 -3.16798 2.88682 0
M  V30 5259 H 489.141 -3.11221 3.86595 0
M  V30 5260 H 484.397 -3.0845 5.27891 0
M  V30 5261 H 488.571 -3.04039 6.26525 0
M  V30 5262 H 486.198 -3.02186 6.97558 0
M  V30 5263 N 487.773 -1.03688 -1.18687 0
M  V30 5264 C 489.02 -0.73803 -1.88572 0
M  V30 5265 C 489.348 0.733973 -1.8012 0
M  V30 5266 O 488.603 1.55098 -1.19344 0
M  V30 5267 C 488.902 -1.14477 -3.3857 0
M  V30 5268 C 488.568 -2.61641 -3.67226 0
M  V30 5269 C 487.23 -3.01846 -3.74757 0
M  V30 5270 C 489.582 -3.56812 -3.79914 0
M  V30 5271 C 486.91 -4.36118 -3.92451 0
M  V30 5272 C 489.262 -4.90799 -3.99123 0
M  V30 5273 C 487.926 -5.3068 -4.04888 0
M  V30 5274 H 487.196 -0.270064 -0.690034 0
M  V30 5275 H 489.843 -1.3012 -1.40503 0
M  V30 5276 H 488.148 -0.500337 -3.88592 0
M  V30 5277 H 489.845 -0.89095 -3.90977 0
M  V30 5278 H 486.435 -2.29498 -3.61979 0
M  V30 5279 H 490.619 -3.26899 -3.73431 0
M  V30 5280 H 485.875 -4.66542 -3.95157 0
M  V30 5281 H 490.049 -5.64451 -4.07882 0
M  V30 5282 H 487.676 -6.34733 -4.18351 0
M  V30 5283 N 489.251 1.34841 -0.815825 0
M  V30 5284 C 490.497 1.99219 -0.410288 0
M  V30 5285 C 490.852 1.63532 1.01366 0
M  V30 5286 O 490.145 0.893093 1.69512 0
M  V30 5287 C 490.339 3.53273 -0.541541 0
M  V30 5288 C 490.168 4.03927 -1.9767 0
M  V30 5289 C 488.938 4.32852 -2.60706 0
M  V30 5290 C 491.136 4.21808 -2.9425 0
M  V30 5291 N 489.118 4.69494 -3.95536 0
M  V30 5292 C 490.489 4.6155 -4.13971 0
M  V30 5293 C 492.544 4.04038 -2.9096 0
M  V30 5294 C 491.247 4.85381 -5.30847 0
M  V30 5295 C 493.273 4.29031 -4.07046 0
M  V30 5296 C 492.635 4.69054 -5.25517 0
M  V30 5297 H 488.734 0.756494 -0.198094 0
M  V30 5298 H 491.318 1.63379 -1.05902 0
M  V30 5299 H 489.489 3.88323 0.0772544 0
M  V30 5300 H 491.221 4.04551 -0.109694 0
M  V30 5301 H 487.976 4.23503 -2.11995 0
M  V30 5302 H 488.4 4.92061 -4.64979 0
M  V30 5303 H 493.042 3.7223 -2.00512 0
M  V30 5304 H 490.76 5.16059 -6.21859 0
M  V30 5305 H 494.346 4.16826 -4.05891 0
M  V30 5306 H 493.226 4.88014 -6.1385 0
M  V30 5307 N 490.729 0.570148 1.46925 0
M  V30 5308 C 492.145 0.23087 1.57921 0
M  V30 5309 C 492.345 -1.26676 1.56702 0
M  V30 5310 O 491.401 -2.04774 1.47729 0
M  V30 5311 C 492.714 0.868973 2.8787 0
M  V30 5312 C 494.262 0.841397 3.01479 0
M  V30 5313 C 494.737 1.45881 4.34146 0
M  V30 5314 N 496.228 1.42258 4.40814 0
M  V30 5315 C 496.963 1.8698 5.42057 0
M  V30 5316 N 496.459 2.39618 6.50042 0
M  V30 5317 N 498.252 1.77972 5.33181 0
M  V30 5318 H 490.403 1.54301 1.45962 0
M  V30 5319 H 492.666 0.644224 0.69547 0
M  V30 5320 H 492.372 1.922 2.94537 0
M  V30 5321 H 492.246 0.369682 3.75384 0
M  V30 5322 H 494.633 -0.202973 2.94401 0
M  V30 5323 H 494.714 1.37858 2.15474 0
M  V30 5324 H 494.358 2.50231 4.4198 0
M  V30 5325 H 494.288 0.896958 5.18905 0
M  V30 5326 H 496.779 1.03768 3.63374 0
M  V30 5327 H 497.092 2.71633 7.23488 0
M  V30 5328 H 495.437 2.43636 6.50897 0
M  V30 5329 H 498.628 1.36617 4.4772 0
M  V30 5330 H 498.801 2.13143 6.11943 0
M  V30 5331 N 492.207 -1.54576 0.307264 0
M  V30 5332 C 493.139 -2.21212 -0.599807 0
M  V30 5333 C 494.152 -1.20685 -1.09266 0
M  V30 5334 O 495.341 -1.47244 -1.00903 0
M  V30 5335 C 492.441 -2.84994 -1.83389 0
M  V30 5336 C 491.614 -4.11511 -1.48248 0
M  V30 5337 C 490.673 -4.59038 -2.57237 0
M  V30 5338 O 489.699 -5.24095 -2.22065 0
M  V30 5339 N 490.901 -4.31884 -3.87887 0
M  V30 5340 H 493.666 -2.99686 -0.0293075 0
M  V30 5341 H 491.227 -1.61379 0.129738 0
M  V30 5342 H 493.219 -3.1372 -2.5566 0
M  V30 5343 H 491.789 -2.10324 -2.31263 0
M  V30 5344 H 491.009 -3.89728 -0.592122 0
M  V30 5345 H 492.297 -4.93879 -1.22316 0
M  V30 5346 H 491.695 -3.79778 -4.19268 0
M  V30 5347 H 490.252 -4.65304 -4.56438 0
M  V30 5348 N 493.685 -0.035106 -1.57561 0
M  V30 5349 C 494.633 0.962707 -2.11742 0
M  V30 5350 C 495.627 1.33296 -1.0454 0
M  V30 5351 O 496.833 1.31449 -1.22968 0
M  V30 5352 H 493.208 0.32826 -0.676572 0
M  V30 5353 H 495.179 0.48048 -2.94506 0
M  V30 5354 C 493.928 2.23388 -2.66445 0
M  V30 5355 H 493.251 1.95774 -3.48587 0
M  V30 5356 H 494.691 2.91402 -3.07995 0
M  V30 5357 C 493.15 2.96769 -1.59467 0
M  V30 5358 O 493.68 3.89105 -0.998 0
M  V30 5359 N 491.886 2.59212 -1.31369 0
M  V30 5360 H 491.433 1.84202 -1.80076 0
M  V30 5361 H 491.391 3.08618 -0.600173 0
M  V30 5362 N 495.163 1.55791 0.238111 0
M  V30 5363 C 496.409 1.79211 0.962035 0
M  V30 5364 C 496.764 0.605463 1.82625 0
M  V30 5365 O 496.057 -0.40104 1.87356 0
M  V30 5366 C 496.251 3.05869 1.84875 0
M  V30 5367 C 496.08 4.36739 1.07186 0
M  V30 5368 C 494.85 4.99346 0.773424 0
M  V30 5369 C 497.048 5.1237 0.445168 0
M  V30 5370 N 495.03 6.13894 -0.0266037 0
M  V30 5371 C 496.401 6.19613 -0.219023 0
M  V30 5372 C 498.456 4.96622 0.356522 0
M  V30 5373 C 497.159 7.1282 -0.963358 0
M  V30 5374 C 499.185 5.90214 -0.374304 0
M  V30 5375 C 498.547 6.96872 -1.0271 0
M  V30 5376 H 494.646 0.707627 0.332849 0
M  V30 5377 H 497.23 1.93284 0.234368 0
M  V30 5378 H 495.401 2.93108 2.54837 0
M  V30 5379 H 497.133 3.17547 2.5089 0
M  V30 5380 H 493.888 4.60948 1.08738 0
M  V30 5381 H 494.312 6.75727 -0.414968 0
M  V30 5382 H 498.954 4.14232 0.846878 0
M  V30 5383 H 496.672 7.94704 -1.46529 0
M  V30 5384 H 500.258 5.80106 -0.443678 0
M  V30 5385 H 499.138 7.68045 -1.58358 0
M  V30 5386 N 496.642 -0.504142 1.49319 0
M  V30 5387 C 497.919 -1.26548 1.49147 0
M  V30 5388 C 498.299 -2.09977 0.21744 0
M  V30 5389 O 497.647 -2.14028 -0.800269 0
M  V30 5390 C 497.857 -2.12489 2.76857 0
M  V30 5391 C 499.205 -2.7178 3.26222 0
M  V30 5392 O 500.229 -2.22758 2.77952 0
M  V30 5393 O 499.088 -3.61015 4.10281 0
M  V30 5394 H 496.182 -0.572495 0.596806 0
M  V30 5395 H 498.728 -0.51867 1.61579 0
M  V30 5396 H 497.5 -1.50796 3.61077 0
M  V30 5397 H 497.123 -2.94368 2.6727 0
M  V30 5398 N 498.12 -1.38341 -0.754957 0
M  V30 5399 C 499.05 -1.38176 -1.88227 0
M  V30 5400 C 500.031 -0.247873 -1.68284 0
M  V30 5401 O 501.216 -0.45075 -1.88896 0
M  V30 5402 C 498.346 -1.20471 -3.25736 0
M  V30 5403 C 497.3 -2.3105 -3.60278 0
M  V30 5404 C 496.626 -1.98452 -4.96509 0
M  V30 5405 C 497.926 -3.73305 -3.65295 0
M  V30 5406 H 499.62 -2.32512 -1.88622 0
M  V30 5407 H 497.166 -1.1192 -0.906082 0
M  V30 5408 H 499.119 -1.18982 -4.04254 0
M  V30 5409 H 497.843 -0.225965 -3.25817 0
M  V30 5410 H 496.502 -2.31723 -2.84078 0
M  V30 5411 H 496.15 -0.990641 -4.93148 0
M  V30 5412 H 495.85 -2.7251 -5.20588 0
M  V30 5413 H 497.374 -1.98578 -5.77407 0
M  V30 5414 H 498.788 -3.7467 -4.3393 0
M  V30 5415 H 497.185 -4.46557 -4.00883 0
M  V30 5416 H 498.255 -4.05719 -2.65556 0
M  V30 5417 N 499.598 0.982988 -1.23187 0
M  V30 5418 C 500.846 1.72052 -1.06031 0
M  V30 5419 C 501.167 1.90769 0.404019 0
M  V30 5420 O 500.437 1.47446 1.28982 0
M  V30 5421 H 499.017 0.637499 -0.389363 0
M  V30 5422 H 501.679 1.18338 -1.54862 0
M  V30 5423 H 500.775 2.7111 -1.54615 0
M  V30 5424 N 501.076 1.04316 1.18135 0
M  V30 5425 C 502.301 0.768047 1.92655 0
M  V30 5426 C 502.726 -0.66904 1.758 0
M  V30 5427 O 502.084 -1.46372 1.06981 0
M  V30 5428 C 502.132 1.14239 3.42026 0
M  V30 5429 O 501.236 0.269333 4.1152 0
M  V30 5430 H 500.577 0.282436 0.600937 0
M  V30 5431 H 503.107 1.39367 1.49793 0
M  V30 5432 H 503.117 1.10538 3.92741 0
M  V30 5433 H 501.792 2.18928 3.53615 0
M  V30 5434 H 500.369 0.366175 3.71098 0
M  V30 5435 N 502.554 -1.34406 0.822964 0
M  V30 5436 C 503.8 -1.98578 0.411666 0
M  V30 5437 C 504.133 -1.65093 -1.02264 0
M  V30 5438 O 503.408 -0.92258 -1.71227 0
M  V30 5439 C 503.691 -3.54823 0.614235 0
M  V30 5440 C 503.544 -3.9805 2.09466 0
M  V30 5441 C 504.863 -4.40071 0.050221 0
M  V30 5442 H 501.982 -0.721355 0.151047 0
M  V30 5443 H 504.624 -1.59301 1.03554 0
M  V30 5444 H 502.774 -3.88411 0.0831774 0
M  V30 5445 H 504.446 -3.74795 2.68936 0
M  V30 5446 H 502.689 -3.4836 2.5851 0
M  V30 5447 H 503.36 -5.06819 2.18721 0
M  V30 5448 H 505.836 -4.13037 0.503953 0
M  V30 5449 H 504.712 -5.48452 0.221759 0
M  V30 5450 H 504.973 -4.29576 -1.04482 0
M  V30 5451 N 504.032 -0.577932 -1.46621 0
M  V30 5452 C 505.26 -0.0671642 -2.06791 0
M  V30 5453 C 505.675 1.23571 -1.42743 0
M  V30 5454 O 505.032 1.74602 -0.531062 0
M  V30 5455 C 505.083 0.110357 -3.61332 0
M  V30 5456 O 504.804 -1.14095 -4.22982 0
M  V30 5457 C 506.305 0.656025 -4.38419 0
M  V30 5458 H 503.525 -0.0552732 -0.66872 0
M  V30 5459 H 506.069 -0.797242 -1.8832 0
M  V30 5460 H 504.224 0.790637 -3.79246 0
M  V30 5461 H 504.638 -0.951742 -5.15793 0
M  V30 5462 H 506.112 0.729438 -5.47159 0
M  V30 5463 H 506.589 1.67195 -4.06131 0
M  V30 5464 H 507.195 0.0107692 -4.25299 0
M  V30 5465 N 505.51 1.54411 -0.315457 0
M  V30 5466 C 506.787 1.92562 0.343398 0
M  V30 5467 C 507.167 1.24423 1.70535 0
M  V30 5468 O 506.515 0.385051 2.25232 0
M  V30 5469 C 506.725 3.46168 0.443687 0
M  V30 5470 C 508.073 4.18659 0.707783 0
M  V30 5471 O 509.097 3.52281 0.52693 0
M  V30 5472 O 507.956 5.36198 1.05612 0
M  V30 5473 H 505.05 0.80379 0.194552 0
M  V30 5474 H 507.596 1.65738 -0.364577 0
M  V30 5475 H 506.368 3.8792 -0.513172 0
M  V30 5476 H 505.991 3.79073 1.19956 0
M  V30 5477 N 506.988 0.0434614 1.5754 0
M  V30 5478 C 508.237 -0.631454 1.91561 0
M  V30 5479 C 508.55 -1.72457 0.92292 0
M  V30 5480 O 509.756 -2.45712 1.15489 0
M  V30 5481 C 508.212 -1.17447 3.40197 0
M  V30 5482 C 507.82 -0.113867 4.47855 0
M  V30 5483 C 509.564 -1.82507 3.83264 0
M  V30 5484 C 507.471 -0.669326 5.876 0
M  V30 5485 H 506.401 -0.239629 0.714908 0
M  V30 5486 H 509.052 0.111097 1.83163 0
M  V30 5487 H 507.434 -1.96909 3.43574 0
M  V30 5488 H 508.608 0.659348 4.56058 0
M  V30 5489 H 506.923 0.438821 4.14081 0
M  V30 5490 H 509.52 -2.25047 4.85034 0
M  V30 5491 H 509.863 -2.67365 3.19095 0
M  V30 5492 H 510.396 -1.09712 3.82372 0
M  V30 5493 H 507.135 0.141449 6.55347 0
M  V30 5494 H 506.655 -1.4107 5.82974 0
M  V30 5495 H 508.334 -1.15463 6.36614 0
M  V30 5496 N 508.466 -1.55915 -0.229846 0
M  V30 5497 C 509.396 -1.94754 -1.28815 0
M  V30 5498 C 510.377 -0.814657 -1.49323 0
M  V30 5499 O 511.562 -1.07631 -1.61645 0
M  V30 5500 C 508.692 -2.25705 -2.63959 0
M  V30 5501 C 507.646 -3.41406 -2.5812 0
M  V30 5502 C 506.972 -3.57941 -3.97218 0
M  V30 5503 C 508.272 -4.76616 -2.13623 0
M  V30 5504 H 509.966 -2.83404 -0.965547 0
M  V30 5505 H 507.512 -1.36353 -0.463028 0
M  V30 5506 H 509.465 -2.51467 -3.38146 0
M  V30 5507 H 508.189 -1.339 -2.9789 0
M  V30 5508 H 506.848 -3.1568 -1.86391 0
M  V30 5509 H 506.496 -2.63526 -4.28443 0
M  V30 5510 H 506.196 -4.35757 -3.94195 0
M  V30 5511 H 507.72 -3.86042 -4.73079 0
M  V30 5512 H 509.134 -5.01637 -2.77549 0
M  V30 5513 H 507.531 -5.57655 -2.21677 0
M  V30 5514 H 508.601 -4.7253 -1.08829 0
M  V30 5515 N 509.944 0.496216 -1.49584 0
M  V30 5516 C 511.184 1.26015 -1.60933 0
M  V30 5517 C 511.548 1.89772 -0.291646 0
M  V30 5518 O 512.749 2.67334 -0.280357 0
M  V30 5519 C 511.02 2.29506 -2.73974 0
M  V30 5520 S 512.579 3.15175 -3.05303 0
M  V30 5521 H 509.397 0.428194 -0.567601 0
M  V30 5522 H 511.999 0.561484 -1.87263 0
M  V30 5523 H 510.703 1.81205 -3.68229 0
M  V30 5524 H 510.234 3.04036 -2.49651 0
M  V30 5525 H 512.249 4.30244 -2.47193 0
M  V30 5526 N 511.423 1.38739 0.74761 0
M  V30 5527 C 512.373 1.32948 1.85226 0
M  V30 5528 C 513.357 0.212642 1.59489 0
M  V30 5529 O 514.549 0.449121 1.71207 0
M  V30 5530 C 511.678 1.16279 3.23008 0
M  V30 5531 C 510.764 2.32611 3.54617 0
M  V30 5532 N 511.155 3.58065 3.57244 0
M  V30 5533 C 509.453 2.25293 3.84914 0
M  V30 5534 C 510.154 4.34919 3.8629 0
M  V30 5535 N 509.13 3.64348 4.03425 0
M  V30 5536 H 512.932 2.27927 1.85544 0
M  V30 5537 H 510.446 1.32056 0.945253 0
M  V30 5538 H 512.443 1.10214 4.02068 0
M  V30 5539 H 511.103 0.222394 3.23937 0
M  V30 5540 H 512.114 3.91656 3.3886 0
M  V30 5541 H 508.791 1.39446 3.93524 0
M  V30 5542 H 510.181 5.43605 3.94896 0
M  V30 5543 N 512.901 -0.976442 1.23707 0
M  V30 5544 C 513.834 -2.06793 0.964973 0
M  V30 5545 C 514.812 -1.62304 -0.0981472 0
M  V30 5546 O 515.996 -1.88464 0.0369477 0
M  V30 5547 C 513.123 -3.35636 0.454522 0
M  V30 5548 C 512.169 -3.99069 1.50485 0
M  V30 5549 S 513.002 -4.37814 3.0835 0
M  V30 5550 C 514.158 -5.69805 2.58985 0
M  V30 5551 H 514.391 -2.29556 1.88922 0
M  V30 5552 H 511.924 -1.11317 1.06995 0
M  V30 5553 H 513.882 -4.10162 0.166626 0
M  V30 5554 H 512.543 -3.10876 -0.448871 0
M  V30 5555 H 511.736 -4.91896 1.09792 0
M  V30 5556 H 511.338 -3.30938 1.7423 0
M  V30 5557 H 513.63 -6.46919 2.01252 0
M  V30 5558 H 514.573 -6.15345 3.50366 0
M  V30 5559 H 514.981 -5.27994 1.99705 0
M  V30 5560 N 514.379 -1.04941 -1.1758 0
M  V30 5561 C 515.312 -0.592518 -2.20373 0
M  V30 5562 C 516.29 0.377561 -1.58156 0
M  V30 5563 O 517.474 0.28978 -1.86259 0
M  V30 5564 C 514.601 0.133215 -3.38438 0
M  V30 5565 C 513.647 -0.791484 -4.19092 0
M  V30 5566 S 514.48 -2.27925 -4.84572 0
M  V30 5567 C 515.636 -1.56462 -6.06028 0
M  V30 5568 H 515.869 -1.46342 -2.58788 0
M  V30 5569 H 513.402 -0.861148 -1.28155 0
M  V30 5570 H 515.36 0.545746 -4.06856 0
M  V30 5571 H 514.021 0.980124 -2.98416 0
M  V30 5572 H 513.214 -0.230039 -5.03475 0
M  V30 5573 H 512.816 -1.14326 -3.56098 0
M  V30 5574 H 515.108 -0.862539 -6.71987 0
M  V30 5575 H 516.051 -2.38583 -6.66696 0
M  V30 5576 H 516.459 -1.05313 -5.5459 0
M  V30 5577 N 515.857 1.33968 -0.830081 0
M  V30 5578 C 517.268 1.80439 -0.479455 0
M  V30 5579 C 517.619 1.68756 1.00079 0
M  V30 5580 O 516.744 1.23171 1.77927 0
M  V30 5581 C 517.339 3.27611 -0.863505 0
M  V30 5582 C 515.898 3.72133 -0.565145 0
M  V30 5583 C 515.045 2.55549 -1.07657 0
M  V30 5584 H 517.996 1.21614 -1.0196 0
M  V30 5585 H 518.017 3.8012 -0.170083 0
M  V30 5586 H 517.529 3.36082 -1.94089 0
M  V30 5587 H 515.63 3.69196 0.502536 0
M  V30 5588 H 515.743 4.65963 -1.11422 0
M  V30 5589 H 514.107 2.49788 -0.497807 0
M  V30 5590 H 514.89 2.66786 -2.16055 0
M  V30 5591 N 517.335 0.585699 1.46312 0
M  V30 5592 C 518.582 0.0724211 2.0237 0
M  V30 5593 C 518.91 -1.28868 1.45683 0
M  V30 5594 O 518.165 -1.85853 0.612945 0
M  V30 5595 C 518.464 -0.0401312 3.57377 0
M  V30 5596 C 518.13 1.25376 4.33119 0
M  V30 5597 C 516.792 1.60824 4.5353 0
M  V30 5598 C 519.144 2.10987 4.76586 0
M  V30 5599 C 516.472 2.81676 5.14661 0
M  V30 5600 C 518.824 3.31068 5.39052 0
M  V30 5601 C 517.488 3.66794 5.5769 0
M  V30 5602 H 516.758 0.0265007 0.740526 0
M  V30 5603 H 519.405 0.762935 1.75646 0
M  V30 5604 H 517.71 -0.813791 3.83255 0
M  V30 5605 H 519.407 -0.453078 3.98432 0
M  V30 5606 H 515.997 0.967808 4.1753 0
M  V30 5607 H 520.181 1.84904 4.60569 0
M  V30 5608 H 515.437 3.0949 5.27282 0
M  V30 5609 H 519.611 3.97672 5.71691 0
M  V30 5610 H 517.238 4.60529 6.04828 0
M  V30 5611 N 518.813 -1.54241 0.323641 0
M  V30 5612 C 520.043 -2.04687 -0.280464 0
M  V30 5613 C 520.451 -1.19939 -1.46326 0
M  V30 5614 O 519.794 -0.222872 -1.82343 0
M  V30 5615 C 519.856 -3.50978 -0.778123 0
M  V30 5616 C 519.52 -4.56127 0.282371 0
M  V30 5617 C 520.517 -5.07726 1.11847 0
M  V30 5618 C 518.202 -5.00451 0.430582 0
M  V30 5619 C 520.196 -6.02212 2.08851 0
M  V30 5620 C 517.883 -5.94752 1.40404 0
M  V30 5621 C 518.881 -6.45519 2.23147 0
M  V30 5622 O 518.569 -7.37968 3.1884 0
M  V30 5623 H 518.301 -0.673192 -0.0615473 0
M  V30 5624 H 520.855 -1.99999 0.467921 0
M  V30 5625 H 519.085 -3.53064 -1.57742 0
M  V30 5626 H 520.774 -3.84499 -1.30058 0
M  V30 5627 H 521.54 -4.74261 1.01496 0
M  V30 5628 H 517.419 -4.6055 -0.203569 0
M  V30 5629 H 520.963 -6.41761 2.73474 0
M  V30 5630 H 516.86 -6.27633 1.5082 0
M  V30 5631 H 517.628 -7.55841 3.14079 0
M  V30 5632 N 520.291 -0.0518155 -1.57515 0
M  V30 5633 C 521.516 0.634896 -1.97443 0
M  V30 5634 C 521.941 1.63546 -0.929207 0
M  V30 5635 O 521.299 1.80981 0.107484 0
M  V30 5636 C 521.347 1.29765 -3.36442 0
M  V30 5637 O 520.451 2.41333 -3.34413 0
M  V30 5638 H 519.792 0.164994 -0.643174 0
M  V30 5639 H 522.322 -0.120407 -2.04245 0
M  V30 5640 H 522.332 1.64918 -3.73184 0
M  V30 5641 H 521.007 0.564361 -4.12053 0
M  V30 5642 H 519.584 2.08122 -3.09418 0
M  V30 5643 N 521.769 1.56035 0.221574 0
M  V30 5644 C 522.999 1.82864 0.961468 0
M  V30 5645 C 523.407 0.628703 1.78449 0
M  V30 5646 O 522.75 -0.412109 1.79018 0
M  V30 5647 C 522.812 3.03425 1.92804 0
M  V30 5648 C 522.476 4.38429 1.28954 0
M  V30 5649 C 523.473 5.15441 0.679431 0
M  V30 5650 C 521.158 4.85151 1.30131 0
M  V30 5651 C 523.152 6.37337 0.0896148 0
M  V30 5652 C 520.839 6.06989 0.707651 0
M  V30 5653 C 521.837 6.82923 0.102855 0
M  V30 5654 O 521.525 8.02456 -0.48157 0
M  V30 5655 H 521.257 0.611883 0.28736 0
M  V30 5656 H 523.811 2.0397 0.241932 0
M  V30 5657 H 522.041 2.78138 2.68656 0
M  V30 5658 H 523.73 3.17127 2.53348 0
M  V30 5659 H 524.496 4.80452 0.662661 0
M  V30 5660 H 520.375 4.26021 1.76145 0
M  V30 5661 H 523.919 6.96547 -0.383069 0
M  V30 5662 H 519.816 6.41451 0.721834 0
M  V30 5663 H 520.584 8.17636 -0.375887 0
M  V30 5664 N 523.247 -0.488276 1.49845 0
M  V30 5665 C 524.524 -1.24959 1.50481 0
M  V30 5666 C 524.904 -2.09735 0.239698 0
M  V30 5667 O 524.252 -2.14865 -0.777524 0
M  V30 5668 C 524.462 -2.0954 2.79095 0
M  V30 5669 C 525.81 -2.68305 3.29086 0
M  V30 5670 O 526.834 -2.19797 2.80299 0
M  V30 5671 O 525.693 -3.56643 4.14087 0
M  V30 5672 H 522.787 -0.566133 0.602845 0
M  V30 5673 H 525.333 -0.501504 1.6212 0
M  V30 5674 H 524.105 -1.46958 3.62656 0
M  V30 5675 H 523.728 -2.91517 2.70377 0
M  V30 5676 N 524.725 -1.39134 -0.740242 0
M  V30 5677 C 525.974 -1.35384 -1.49512 0
M  V30 5678 C 526.287 0.04919 -1.95538 0
M  V30 5679 O 527.493 0.209257 -2.70692 0
M  V30 5680 C 525.949 -2.37812 -2.70136 0
M  V30 5681 C 525.557 -3.83804 -2.31081 0
M  V30 5682 C 527.301 -2.4313 -3.47977 0
M  V30 5683 C 525.208 -4.77886 -3.48395 0
M  V30 5684 H 524.138 -0.503297 -0.561434 0
M  V30 5685 H 526.789 -1.64754 -0.807974 0
M  V30 5686 H 525.171 -2.01505 -3.40899 0
M  V30 5687 H 526.345 -4.29123 -1.67898 0
M  V30 5688 H 524.66 -3.81732 -1.66343 0
M  V30 5689 H 527.257 -3.10614 -4.35228 0
M  V30 5690 H 527.6 -1.45423 -3.90074 0
M  V30 5691 H 528.133 -2.78304 -2.84239 0
M  V30 5692 H 524.872 -5.76836 -3.11353 0
M  V30 5693 H 524.392 -4.3725 -4.10576 0
M  V30 5694 H 526.071 -4.96538 -4.148 0
M  V30 5695 N 526.204 0.969867 -1.24223 0
M  V30 5696 C 527.615 1.52717 -1.07399 0
M  V30 5697 C 527.966 1.92956 0.355298 0
M  V30 5698 O 527.091 1.77112 1.2434 0
M  V30 5699 C 527.686 2.77521 -1.94339 0
M  V30 5700 C 526.245 3.29615 -1.81744 0
M  V30 5701 C 525.392 2.02537 -1.89405 0
M  V30 5702 H 528.343 0.788399 -1.37732 0
M  V30 5703 H 528.364 3.50773 -1.47439 0
M  V30 5704 H 527.876 2.48203 -2.98357 0
M  V30 5705 H 525.977 3.63789 -0.805505 0
M  V30 5706 H 526.09 3.98661 -2.65718 0
M  V30 5707 H 524.454 2.17151 -1.33108 0
M  V30 5708 H 525.237 1.75587 -2.94999 0
M  V30 5709 N 527.682 1.05563 1.17022 0
M  V30 5710 C 528.632 0.630007 2.19123 0
M  V30 5711 C 529.616 -0.335472 1.57364 0
M  V30 5712 O 530.808 -0.1521 1.76345 0
M  V30 5713 C 527.937 0.0101676 3.43298 0
M  V30 5714 C 527.023 0.999698 4.12149 0
M  V30 5715 N 527.414 2.17251 4.56766 0
M  V30 5716 C 525.712 0.829 4.38228 0
M  V30 5717 C 526.413 2.79883 5.09942 0
M  V30 5718 N 525.389 2.07656 5.02374 0
M  V30 5719 H 529.191 1.52353 2.51328 0
M  V30 5720 H 526.705 0.926288 1.33393 0
M  V30 5721 H 528.702 -0.312541 4.15727 0
M  V30 5722 H 527.362 -0.878707 3.12584 0
M  V30 5723 H 528.373 2.55067 4.50734 0
M  V30 5724 H 525.05 -0.00850974 4.17499 0
M  V30 5725 H 526.44 3.79362 5.54558 0
M  V30 5726 N 529.16 -1.33526 0.837174 0
M  V30 5727 C 530.388 -2.02047 0.445494 0
M  V30 5728 C 530.803 -1.62995 -0.952788 0
M  V30 5729 O 530.16 -0.842447 -1.61892 0
M  V30 5730 C 530.211 -3.57221 0.554577 0
M  V30 5731 O 529.932 -3.94863 1.89776 0
M  V30 5732 C 531.433 -4.43012 0.159634 0
M  V30 5733 H 528.653 -0.647221 0.177048 0
M  V30 5734 H 531.197 -1.70492 1.12928 0
M  V30 5735 H 529.352 -3.87315 -0.0812781 0
M  V30 5736 H 529.766 -4.89569 1.88208 0
M  V30 5737 H 531.24 -5.51253 0.28701 0
M  V30 5738 H 531.717 -4.29916 -0.898289 0
M  V30 5739 H 532.323 -4.18274 0.769855 0
M  V30 5740 N 530.638 -0.59345 -1.46 0
M  V30 5741 C 531.878 -0.0859747 -2.04219 0
M  V30 5742 C 532.242 1.25432 -1.45364 0
M  V30 5743 O 533.443 1.85168 -1.9485 0
M  V30 5744 C 531.714 -0.0324314 -3.57385 0
M  V30 5745 S 533.273 0.415908 -4.36824 0
M  V30 5746 H 530.091 -0.0426872 -0.709717 0
M  V30 5747 H 532.693 -0.788369 -1.78899 0
M  V30 5748 H 531.397 -1.01166 -3.97735 0
M  V30 5749 H 530.928 0.6924 -3.87259 0
M  V30 5750 H 532.943 1.66844 -4.67309 0
M  V30 5751 N 532.116 1.54067 -0.331816 0
M  V30 5752 C 533.364 2.00319 0.267739 0
M  V30 5753 C 533.685 1.22148 1.52003 0
M  V30 5754 O 532.955 0.325494 1.93177 0
M  V30 5755 H 531.535 0.740014 0.101922 0
M  V30 5756 H 534.197 1.89628 -0.450267 0
M  V30 5757 H 533.293 3.07765 0.518385 0
M  V30 5758 N 533.594 0.0601682 1.57485 0
M  V30 5759 C 535.005 -0.474217 1.80577 0
M  V30 5760 C 535.356 -1.70365 0.973147 0
M  V30 5761 O 534.481 -2.15544 0.192306 0
M  V30 5762 C 535.076 -0.867102 3.27516 0
M  V30 5763 C 533.635 -1.34642 3.51495 0
M  V30 5764 C 532.782 -0.32594 2.75378 0
M  V30 5765 H 535.733 0.285973 1.56102 0
M  V30 5766 H 535.754 -1.72938 3.38929 0
M  V30 5767 H 535.266 0.0278927 3.8809 0
M  V30 5768 H 533.367 -2.2603 2.96212 0
M  V30 5769 H 533.48 -1.33237 4.60201 0
M  V30 5770 H 531.844 -0.800749 2.41785 0
M  V30 5771 H 532.627 0.561125 3.38683 0
M  V30 5772 N 535.072 -1.5615 -0.213296 0
M  V30 5773 C 536.349 -1.70349 -0.961281 0
M  V30 5774 C 536.729 -0.609791 -2.02101 0
M  V30 5775 O 536.077 0.381987 -2.25285 0
M  V30 5776 C 536.287 -3.11982 -1.56424 0
M  V30 5777 C 537.635 -3.71649 -2.05334 0
M  V30 5778 O 538.659 -3.14995 -1.66302 0
M  V30 5779 O 537.518 -4.71038 -2.77102 0
M  V30 5780 H 534.612 -0.694121 -0.449582 0
M  V30 5781 H 537.158 -1.68464 -0.204426 0
M  V30 5782 H 535.93 -3.83046 -0.799457 0
M  V30 5783 H 535.553 -3.18019 -2.38641 0
M  V30 5784 N 536.55 0.480323 -1.50102 0
M  V30 5785 C 537.961 1.06142 -1.53593 0
M  V30 5786 C 538.312 1.93335 -0.334055 0
M  V30 5787 O 537.437 2.09188 0.55403 0
M  V30 5788 C 538.032 1.9317 -2.78336 0
M  V30 5789 C 536.591 2.46405 -2.84538 0
M  V30 5790 C 535.738 1.24521 -2.4777 0
M  V30 5791 H 538.689 0.26333 -1.565 0
M  V30 5792 H 538.71 2.78123 -2.59669 0
M  V30 5793 H 538.222 1.29683 -3.65792 0
M  V30 5794 H 536.323 3.13472 -2.01411 0
M  V30 5795 H 536.436 2.82143 -3.87211 0
M  V30 5796 H 534.8 1.57706 -2.00003 0
M  V30 5797 H 535.583 0.627102 -3.37524 0
M  V30 5798 N 538.028 1.39524 0.732853 0
M  V30 5799 C 538.975 1.38416 1.84688 0
M  V30 5800 C 539.945 0.243539 1.64305 0
M  V30 5801 O 541.13 0.438979 1.85681 0
M  V30 5802 C 538.27 1.23555 3.22224 0
M  V30 5803 C 537.383 2.47179 3.54298 0
M  V30 5804 C 536.518 2.2489 4.81246 0
M  V30 5805 C 535.557 3.44178 5.0617 0
M  V30 5806 N 534.694 3.21192 6.24323 0
M  V30 5807 H 539.534 2.33645 1.84971 0
M  V30 5808 H 537.071 1.16059 0.903804 0
M  V30 5809 H 539.029 1.12949 4.0162 0
M  V30 5810 H 537.659 0.31954 3.21215 0
M  V30 5811 H 536.711 2.68379 2.69587 0
M  V30 5812 H 538.023 3.36022 3.68633 0
M  V30 5813 H 537.177 2.11538 5.68627 0
M  V30 5814 H 535.916 1.33443 4.69089 0
M  V30 5815 H 534.921 3.58025 4.17251 0
M  V30 5816 H 536.146 4.36528 5.20212 0
M  V30 5817 H 534.092 2.32413 6.1345 0
M  V30 5818 H 534.009 4.03594 6.39256 0
M  V30 5819 H 535.277 3.1154 7.14537 0
M  V30 5820 N 539.506 -0.963266 1.24736 0
M  V30 5821 C 540.755 -1.70115 1.08369 0
M  V30 5822 C 541.068 -1.91939 -0.376688 0
M  V30 5823 O 542.274 -2.6334 -0.660624 0
M  V30 5824 C 540.73 -3.06218 1.89099 0
M  V30 5825 C 540.338 -2.92221 3.39574 0
M  V30 5826 C 542.082 -3.83848 1.81275 0
M  V30 5827 C 539.989 -4.23662 4.12631 0
M  V30 5828 H 538.919 -0.637944 0.401924 0
M  V30 5829 H 541.57 -1.07304 1.48856 0
M  V30 5830 H 539.952 -3.69884 1.41429 0
M  V30 5831 H 541.126 -2.37541 3.94856 0
M  V30 5832 H 539.441 -2.28054 3.48397 0
M  V30 5833 H 542.038 -4.81188 2.33158 0
M  V30 5834 H 542.381 -4.08949 0.778895 0
M  V30 5835 H 542.914 -3.26918 2.26649 0
M  V30 5836 H 539.653 -4.03753 5.16395 0
M  V30 5837 H 539.173 -4.78141 3.62135 0
M  V30 5838 H 540.852 -4.92256 4.19873 0
M  V30 5839 N 540.985 -1.06182 -1.16461 0
M  V30 5840 C 542.225 -0.787048 -1.8864 0
M  V30 5841 C 542.589 0.674093 -1.79778 0
M  V30 5842 O 543.79 1.06341 -2.46871 0
M  V30 5843 C 542.061 -1.2666 -3.34203 0
M  V30 5844 S 543.62 -1.12071 -4.24247 0
M  V30 5845 H 540.438 -0.285539 -0.651144 0
M  V30 5846 H 543.04 -1.35851 -1.40587 0
M  V30 5847 H 541.744 -2.32496 -3.38192 0
M  V30 5848 H 541.275 -0.689841 -3.87304 0
M  V30 5849 H 543.29 -0.0509341 -4.96174 0
M  V30 5850 N 542.463 1.3308 -0.844243 0
M  V30 5851 C 543.703 1.99414 -0.448697 0
M  V30 5852 C 544.067 1.65398 0.975058 0
M  V30 5853 O 545.268 2.24741 1.47461 0
M  V30 5854 C 543.539 3.51081 -0.669089 0
M  V30 5855 S 545.098 4.37241 -0.369564 0
M  V30 5856 H 541.916 0.690736 -0.168538 0
M  V30 5857 H 544.518 1.61977 -1.0947 0
M  V30 5858 H 543.222 3.73326 -1.70457 0
M  V30 5859 H 542.753 3.93399 -0.00913211 0
M  V30 5860 H 544.768 4.89568 0.808552 0
M  V30 5861 N 543.941 0.601185 1.45683 0
M  V30 5862 C 544.873 -0.159446 2.28645 0
M  V30 5863 C 545.886 -0.837882 1.39583 0
M  V30 5864 O 547.075 -0.704344 1.64016 0
M  V30 5865 C 544.175 -1.24641 3.15147 0
M  V30 5866 C 543.348 -0.656334 4.32448 0
M  V30 5867 C 542.407 -1.63337 5.00208 0
M  V30 5868 O 541.433 -1.16217 5.57209 0
M  V30 5869 N 542.635 -2.96773 4.98905 0
M  V30 5870 H 545.4 0.5524 2.94565 0
M  V30 5871 H 542.961 0.440223 1.558 0
M  V30 5872 H 544.953 -1.8997 3.57342 0
M  V30 5873 H 543.523 -1.86087 2.51178 0
M  V30 5874 H 542.743 0.174879 3.93812 0
M  V30 5875 H 544.031 -0.242211 5.08223 0
M  V30 5876 H 543.429 -3.37662 4.53873 0
M  V30 5877 H 541.986 -3.57541 5.44984 0
M  V30 5878 N 545.419 -1.53889 0.339982 0
M  V30 5879 C 546.666 -2.00855 -0.257621 0
M  V30 5880 C 546.994 -1.22788 -1.50842 0
M  V30 5881 O 546.249 -0.302567 -1.93347 0
M  V30 5882 C 546.548 -3.51968 -0.620735 0
M  V30 5883 C 546.214 -4.47741 0.532771 0
M  V30 5884 C 544.876 -4.73645 0.849339 0
M  V30 5885 C 547.228 -5.04551 1.3068 0
M  V30 5886 C 544.556 -5.53614 1.94237 0
M  V30 5887 C 546.908 -5.85713 2.39005 0
M  V30 5888 C 545.572 -6.09912 2.71225 0
M  V30 5889 H 544.842 -0.734979 -0.0942703 0
M  V30 5890 H 547.489 -1.85714 0.467159 0
M  V30 5891 H 545.794 -3.64921 -1.42618 0
M  V30 5892 H 547.491 -3.85762 -1.09495 0
M  V30 5893 H 544.081 -4.27711 0.275973 0
M  V30 5894 H 548.265 -4.84507 1.07549 0
M  V30 5895 H 543.521 -5.7059 2.19628 0
M  V30 5896 H 547.695 -6.28748 2.99415 0
M  V30 5897 H 545.322 -6.71665 3.56047 0
M  V30 5898 N 546.897 -0.0685191 -1.57451 0
M  V30 5899 C 548.174 0.642167 -1.84758 0
M  V30 5900 C 548.554 1.87991 -0.960344 0
M  V30 5901 O 547.902 2.28485 -0.0257894 0
M  V30 5902 C 548.112 0.982946 -3.34872 0
M  V30 5903 C 549.46 1.35784 -4.02303 0
M  V30 5904 O 550.484 1.07477 -3.39598 0
M  V30 5905 O 549.343 1.88681 -5.12895 0
M  V30 5906 H 546.437 0.318625 -0.763156 0
M  V30 5907 H 548.983 -0.0992015 -1.6941 0
M  V30 5908 H 547.755 0.10372 -3.91163 0
M  V30 5909 H 547.378 1.78119 -3.55471 0
M  V30 5910 N 548.375 1.56261 0.205012 0
M  V30 5911 C 549.622 1.8004 0.926927 0
M  V30 5912 C 549.95 0.640086 1.83666 0
M  V30 5913 O 549.205 -0.374702 1.92079 0
M  V30 5914 C 549.504 3.09722 1.78345 0
M  V30 5915 C 549.17 4.39082 1.02555 0
M  V30 5916 C 547.832 4.74226 0.816256 0
M  V30 5917 C 550.184 5.18877 0.491559 0
M  V30 5918 C 547.512 5.86668 0.0613287 0
M  V30 5919 C 549.864 6.32105 -0.250107 0
M  V30 5920 C 548.528 6.6584 -0.470508 0
M  V30 5921 H 547.798 0.658812 0.339187 0
M  V30 5922 H 550.445 1.90515 0.19395 0
M  V30 5923 H 548.75 2.9444 2.5848 0
M  V30 5924 H 550.447 3.25324 2.34446 0
M  V30 5925 H 547.037 4.11497 1.19868 0
M  V30 5926 H 551.221 4.92147 0.640684 0
M  V30 5927 H 546.477 6.11283 -0.119501 0
M  V30 5928 H 550.651 6.93157 -0.671307 0
M  V30 5929 H 548.278 7.5281 -1.05739 0
M  V30 5930 N 549.853 -0.472356 1.50355 0
M  V30 5931 C 550.8 -1.57051 1.69126 0
M  V30 5932 C 551.77 -1.5733 0.532574 0
M  V30 5933 O 552.955 -1.7488 0.762994 0
M  V30 5934 C 550.095 -2.95033 1.79024 0
M  V30 5935 C 549.208 -3.04552 3.06386 0
M  V30 5936 C 548.343 -4.33441 3.07087 0
M  V30 5937 C 547.382 -4.36697 4.28908 0
M  V30 5938 N 546.519 -5.57056 4.27356 0
M  V30 5939 H 551.359 -1.40351 2.62879 0
M  V30 5940 H 548.896 -0.682403 1.30314 0
M  V30 5941 H 550.854 -3.75048 1.82744 0
M  V30 5942 H 549.484 -3.10371 0.887109 0
M  V30 5943 H 548.536 -2.17419 3.12143 0
M  V30 5944 H 549.848 -3.02818 3.96362 0
M  V30 5945 H 549.002 -5.21801 3.09529 0
M  V30 5946 H 547.741 -4.37782 2.14939 0
M  V30 5947 H 546.746 -3.46734 4.2668 0
M  V30 5948 H 547.971 -4.34049 5.22282 0
M  V30 5949 H 545.917 -5.62184 3.3806 0
M  V30 5950 H 545.834 -5.57058 5.111 0
M  V30 5951 H 547.102 -6.47545 4.33942 0
M  V30 5952 N 551.331 -1.39911 -0.725443 0
M  V30 5953 C 552.747 -1.21725 -1.03224 0
M  V30 5954 C 552.947 -0.0855224 -2.01318 0
M  V30 5955 O 552.003 0.55976 -2.46217 0
M  V30 5956 C 553.316 -2.55511 -1.58539 0
M  V30 5957 C 554.864 -2.62439 -1.70572 0
M  V30 5958 C 555.339 -3.9647 -2.29294 0
M  V30 5959 N 556.83 -3.98159 -2.36692 0
M  V30 5960 C 557.565 -4.98647 -2.83088 0
M  V30 5961 N 557.061 -6.0953 -3.2931 0
M  V30 5962 N 558.854 -4.8602 -2.82384 0
M  V30 5963 H 551.005 -2.12267 -0.075048 0
M  V30 5964 H 553.268 -0.943136 -0.0959066 0
M  V30 5965 H 552.974 -3.38926 -0.939249 0
M  V30 5966 H 552.848 -2.75905 -2.57208 0
M  V30 5967 H 555.235 -1.79401 -2.34306 0
M  V30 5968 H 555.316 -2.45885 -0.705297 0
M  V30 5969 H 554.96 -4.79942 -1.66186 0
M  V30 5970 H 554.89 -4.10349 -3.30032 0
M  V30 5971 H 557.381 -3.18085 -2.04035 0
M  V30 5972 H 557.694 -6.82106 -3.6325 0
M  V30 5973 H 556.039 -6.1311 -3.27294 0
M  V30 5974 H 559.23 -3.98493 -2.45603 0
M  V30 5975 H 559.403 -5.64478 -3.18226 0
M  V30 5976 N 552.809 0.956637 -1.25245 0
M  V30 5977 C 553.739 2.07058 -1.07931 0
M  V30 5978 C 554.72 1.70096 0.0110361 0
M  V30 5979 O 555.905 1.93555 -0.158121 0
M  V30 5980 C 553.035 3.40272 -0.695124 0
M  V30 5981 C 551.989 3.91235 -1.73549 0
M  V30 5982 C 551.315 5.20921 -1.20604 0
M  V30 5983 C 552.615 4.17837 -3.13385 0
M  V30 5984 H 554.309 2.218 -2.01109 0
M  V30 5985 H 551.855 1.06581 -0.968326 0
M  V30 5986 H 553.808 4.1765 -0.560949 0
M  V30 5987 H 552.532 3.25462 0.272355 0
M  V30 5988 H 551.191 3.16025 -1.85807 0
M  V30 5989 H 550.839 5.02479 -0.228846 0
M  V30 5990 H 550.539 5.55987 -1.90136 0
M  V30 5991 H 552.063 6.00897 -1.08421 0
M  V30 5992 H 553.477 4.8588 -3.04292 0
M  V30 5993 H 551.874 4.64154 -3.80369 0
M  V30 5994 H 552.944 3.2419 -3.60595 0
M  V30 5995 N 554.287 1.06798 1.15896 0
M  V30 5996 C 555.698 0.811355 1.68149 0
M  V30 5997 C 556.049 -0.664339 1.8461 0
M  V30 5998 O 555.174 -1.51485 1.54535 0
M  V30 5999 C 555.769 1.46624 3.05429 0
M  V30 6000 C 554.328 1.25726 3.54781 0
M  V30 6001 C 553.475 1.53949 2.3064 0
M  V30 6002 H 556.426 1.23078 1.00187 0
M  V30 6003 H 556.447 0.88437 3.7008 0
M  V30 6004 H 555.959 2.54025 2.93416 0
M  V30 6005 H 554.06 0.20322 3.72045 0
M  V30 6006 H 554.173 1.97354 4.36564 0
M  V30 6007 H 552.537 0.96025 2.35905 0
M  V30 6008 H 553.32 2.6252 2.2122 0
M  V30 6009 N 555.766 -1.3263 0.851289 0
M  V30 6010 C 557.014 -1.96978 0.452128 0
M  V30 6011 C 557.335 -1.67715 -0.99482 0
M  V30 6012 O 556.605 -0.98259 -1.69476 0
M  V30 6013 H 555.185 -0.72873 0.164202 0
M  V30 6014 H 557.847 -1.61774 1.08698 0
M  V30 6015 H 556.943 -3.06387 0.594407 0
M  V30 6016 N 557.244 -0.608902 -1.45362 0
M  V30 6017 C 558.492 -0.104401 -2.0183 0
M  V30 6018 C 558.813 1.27007 -1.47967 0
M  V30 6019 O 558.083 1.83924 -0.674455 0
M  V30 6020 H 556.663 -0.0356042 -0.746151 0
M  V30 6021 H 559.325 -0.790596 -1.78145 0
M  V30 6022 H 558.421 -0.0551793 -3.12051 0
M  V30 6023 N 558.722 1.53707 -0.348139 0
M  V30 6024 C 560.138 1.596 0.00361134 0
M  V30 6025 C 560.338 1.36394 1.4832 0
M  V30 6026 O 559.394 1.16046 2.24253 0
M  V30 6027 C 560.707 2.97512 -0.436682 0
M  V30 6028 C 562.255 3.10568 -0.389416 0
M  V30 6029 C 562.73 4.50866 -0.805249 0
M  V30 6030 N 564.221 4.56929 -0.759616 0
M  V30 6031 C 564.956 5.63643 -1.05327 0
M  V30 6032 N 564.452 6.78189 -1.41531 0
M  V30 6033 N 566.245 5.5354 -0.977207 0
M  V30 6034 H 558.396 1.67044 -1.31187 0
M  V30 6035 H 560.659 0.782559 -0.535075 0
M  V30 6036 H 560.365 3.19575 -1.46849 0
M  V30 6037 H 560.239 3.76742 0.185744 0
M  V30 6038 H 562.626 2.88226 0.633228 0
M  V30 6039 H 562.707 2.33387 -1.04711 0
M  V30 6040 H 562.351 4.73943 -1.82593 0
M  V30 6041 H 562.281 5.26452 -0.124989 0
M  V30 6042 H 564.772 3.74675 -0.49265 0
M  V30 6043 H 565.085 7.55541 -1.62411 0
M  V30 6044 H 563.43 6.79624 -1.45381 0
M  V30 6045 H 566.621 4.62932 -0.693675 0
M  V30 6046 H 566.794 6.36614 -1.2094 0
M  V30 6047 N 560.2 0.0768682 1.57412 0
M  V30 6048 C 561.447 -0.591085 1.93681 0
M  V30 6049 C 561.775 -1.69311 0.957286 0
M  V30 6050 O 561.03 -1.95682 -0.0262428 0
M  V30 6051 C 561.329 -1.20268 3.36557 0
M  V30 6052 C 560.995 -0.226286 4.50332 0
M  V30 6053 C 559.657 0.0423142 4.81181 0
M  V30 6054 C 562.009 0.441415 5.19327 0
M  V30 6055 C 559.337 0.985616 5.78362 0
M  V30 6056 C 561.689 1.37307 6.17519 0
M  V30 6057 C 560.353 1.65009 6.46783 0
M  V30 6058 H 559.623 -0.216293 0.70873 0
M  V30 6059 H 562.27 0.148824 1.90921 0
M  V30 6060 H 560.575 -2.01844 3.35807 0
M  V30 6061 H 562.272 -1.72688 3.61911 0
M  V30 6062 H 558.862 -0.445821 4.26275 0
M  V30 6063 H 563.046 0.247023 4.95685 0
M  V30 6064 H 558.302 1.20743 5.99359 0
M  V30 6065 H 562.476 1.89637 6.70083 0
M  V30 6066 H 560.103 2.38263 7.21897 0
M  V30 6067 N 561.678 -1.56367 -0.196722 0
M  V30 6068 C 562.926 -1.80172 -0.915554 0
M  V30 6069 C 563.247 -0.649649 -1.8386 0
M  V30 6070 O 562.517 0.332111 -1.93064 0
M  V30 6071 H 561.097 -0.664592 -0.341067 0
M  V30 6072 H 563.759 -1.93844 -0.202622 0
M  V30 6073 H 562.855 -2.7327 -1.50764 0
M  V30 6074 N 563.156 0.464375 -1.50603 0
M  V30 6075 C 564.396 1.22573 -1.6357 0
M  V30 6076 C 564.76 1.89111 -0.331834 0
M  V30 6077 O 565.961 2.66679 -0.336999 0
M  V30 6078 C 564.232 2.23643 -2.7878 0
M  V30 6079 S 565.791 3.08628 -3.1192 0
M  V30 6080 H 562.609 0.416058 -0.576556 0
M  V30 6081 H 565.211 0.521637 -1.88412 0
M  V30 6082 H 563.915 1.73354 -3.7199 0
M  V30 6083 H 563.446 2.98672 -2.56044 0
M  V30 6084 H 565.461 4.24904 -2.56264 0
M  V30 6085 N 564.634 1.40294 0.718013 0
M  V30 6086 C 566.045 1.34289 1.29705 0
M  V30 6087 C 566.396 0.0152228 1.96194 0
M  V30 6088 O 565.521 -0.88682 1.97394 0
M  V30 6089 C 566.116 2.43219 2.3586 0
M  V30 6090 C 564.675 2.40682 2.89394 0
M  V30 6091 C 563.822 2.24223 1.63154 0
M  V30 6092 H 566.773 1.50135 0.514312 0
M  V30 6093 H 566.794 2.10986 3.16647 0
M  V30 6094 H 566.306 3.39836 1.87439 0
M  V30 6095 H 564.407 1.47756 3.42051 0
M  V30 6096 H 564.52 3.36177 3.41353 0
M  V30 6097 H 562.884 1.71696 1.88129 0
M  V30 6098 H 563.667 3.22834 1.16761 0
M  V30 6099 N 566.112 -0.949982 1.2575 0
M  V30 6100 C 567.358 -1.69822 1.11947 0
M  V30 6101 C 567.713 -1.89455 -0.335334 0
M  V30 6102 O 567.006 -1.45778 -1.24336 0
M  V30 6103 C 567.2 -3.08039 1.81237 0
M  V30 6104 C 567.029 -3.0189 3.33305 0
M  V30 6105 C 565.799 -3.05391 4.02573 0
M  V30 6106 C 567.997 -2.827 4.29634 0
M  V30 6107 N 565.979 -2.89449 5.4138 0
M  V30 6108 C 567.35 -2.75237 5.55558 0
M  V30 6109 C 569.405 -2.67416 4.19992 0
M  V30 6110 C 568.108 -2.54051 6.72942 0
M  V30 6111 C 570.134 -2.47602 5.37073 0
M  V30 6112 C 569.496 -2.40863 6.6194 0
M  V30 6113 H 565.595 -0.629188 0.464378 0
M  V30 6114 H 568.179 -1.1249 1.58916 0
M  V30 6115 H 566.35 -3.63528 1.36756 0
M  V30 6116 H 568.082 -3.71671 1.60134 0
M  V30 6117 H 564.837 -3.14763 3.53866 0
M  V30 6118 H 565.261 -2.84669 6.14241 0
M  V30 6119 H 569.903 -2.71398 3.24196 0
M  V30 6120 H 567.621 -2.48811 7.68842 0
M  V30 6121 H 571.207 -2.36694 5.31477 0
M  V30 6122 H 570.087 -2.25732 7.51009 0
M  V30 6123 N 567.59 -1.07411 -1.15328 0
M  V30 6124 C 568.838 -0.796073 -1.85761 0
M  V30 6125 C 569.159 0.679864 -1.82764 0
M  V30 6126 O 568.429 1.49242 -1.269 0
M  V30 6127 H 567.009 -0.291495 -0.687779 0
M  V30 6128 H 569.671 -1.35799 -1.39802 0
M  V30 6129 H 568.767 -1.13114 -2.90881 0
M  V30 6130 N 569.068 1.32177 -0.85831 0
M  V30 6131 C 570.314 1.97417 -0.46417 0
M  V30 6132 C 570.647 1.67746 0.978514 0
M  V30 6133 O 569.922 0.967654 1.68721 0
M  V30 6134 C 570.205 3.53069 -0.708094 0
M  V30 6135 C 570.058 3.92357 -2.19946 0
M  V30 6136 C 571.377 4.39783 -0.166881 0
M  V30 6137 H 568.496 0.717097 -0.17012 0
M  V30 6138 H 571.138 1.56499 -1.07741 0
M  V30 6139 H 569.288 3.88054 -0.186128 0
M  V30 6140 H 570.96 3.67533 -2.78779 0
M  V30 6141 H 569.203 3.41384 -2.67656 0
M  V30 6142 H 569.874 5.00841 -2.32082 0
M  V30 6143 H 572.35 4.11556 -0.613285 0
M  V30 6144 H 571.226 5.47671 -0.367093 0
M  V30 6145 H 571.487 4.32196 0.930559 0
M  V30 6146 N 570.547 0.616602 1.45037 0
M  V30 6147 C 571.958 0.199359 1.85633 0
M  V30 6148 C 572.309 -1.24588 1.51566 0
M  V30 6149 O 571.434 -1.94594 0.94668 0
M  V30 6150 C 572.029 0.355033 3.36935 0
M  V30 6151 C 570.588 -0.00758748 3.76399 0
M  V30 6152 C 569.735 0.675256 2.68953 0
M  V30 6153 H 572.686 0.822708 1.3571 0
M  V30 6154 H 572.707 -0.410201 3.78282 0
M  V30 6155 H 572.219 1.40699 3.61698 0
M  V30 6156 H 570.32 -1.05837 3.57252 0
M  V30 6157 H 570.433 0.392346 4.77491 0
M  V30 6158 H 568.797 0.111992 2.54454 0
M  V30 6159 H 569.58 1.72952 2.96551 0
M  V30 6160 N 572.025 -1.5352 0.356285 0
M  V30 6161 C 573.436 -1.86282 -0.12492 0
M  V30 6162 C 573.787 -1.27717 -1.48939 0
M  V30 6163 O 572.912 -0.595614 -2.08042 0
M  V30 6164 C 573.507 -3.37995 -0.23345 0
M  V30 6165 C 572.066 -3.70588 -0.658899 0
M  V30 6166 C 571.213 -2.76581 0.199596 0
M  V30 6167 H 574.164 -1.47901 0.575423 0
M  V30 6168 H 574.185 -3.65475 -1.0587 0
M  V30 6169 H 573.697 -3.8059 0.759776 0
M  V30 6170 H 571.798 -3.33544 -1.66069 0
M  V30 6171 H 571.911 -4.77076 -0.439957 0
M  V30 6172 H 570.275 -2.52552 -0.330076 0
M  V30 6173 H 571.058 -3.22008 1.19019 0
M  V30 6174 N 573.503 -0.0852151 -1.57369 0
M  V30 6175 C 574.413 0.891712 -2.16992 0
M  V30 6176 C 575.429 1.3174 -1.13669 0
M  V30 6177 O 576.605 1.38735 -1.45995 0
M  V30 6178 C 573.67 2.13635 -2.73059 0
M  V30 6179 C 572.731 1.7658 -3.91303 0
M  V30 6180 C 571.964 2.95111 -4.44686 0
M  V30 6181 O 572.187 4.09539 -3.97032 0
M  V30 6182 O 571.121 2.74149 -5.35841 0
M  V30 6183 H 574.947 0.414477 -3.00858 0
M  V30 6184 H 572.532 0.138598 -1.48756 0
M  V30 6185 H 574.414 2.86595 -3.08935 0
M  V30 6186 H 573.089 2.6043 -1.92244 0
M  V30 6187 H 571.996 1.00831 -3.60255 0
M  V30 6188 H 573.329 1.34557 -4.7345 0
M  V30 6189 N 574.981 1.5647 0.188427 0
M  V30 6190 C 576.209 1.85131 0.923803 0
M  V30 6191 C 576.624 0.668537 1.76567 0
M  V30 6192 O 575.981 -0.362662 1.7886 0
M  V30 6193 C 576.032 3.12661 1.81453 0
M  V30 6194 O 575.753 4.26378 1.00665 0
M  V30 6195 C 577.254 3.54548 2.66103 0
M  V30 6196 H 574.474 0.614624 0.269218 0
M  V30 6197 H 577.018 2.03581 0.193671 0
M  V30 6198 H 575.173 2.96088 2.49821 0
M  V30 6199 H 575.587 4.99041 1.61425 0
M  V30 6200 H 577.061 4.4673 3.24247 0
M  V30 6201 H 577.538 2.77853 3.40139 0
M  V30 6202 H 578.144 3.73674 2.03096 0
M  V30 6203 N 576.459 -0.456382 1.50847 0
M  V30 6204 C 577.708 -1.2042 1.61808 0
M  V30 6205 C 578.021 -1.9278 0.330932 0
M  V30 6206 O 579.227 -2.69612 0.319643 0
M  V30 6207 C 577.683 -2.18891 2.85683 0
M  V30 6208 C 577.291 -1.52267 4.2133 0
M  V30 6209 C 579.035 -2.94224 3.05994 0
M  V30 6210 C 576.942 -2.4911 5.36375 0
M  V30 6211 H 575.872 -0.453177 0.602616 0
M  V30 6212 H 578.523 -0.473144 1.77295 0
M  V30 6213 H 576.905 -2.95351 2.63787 0
M  V30 6214 H 578.079 -0.814949 4.53536 0
M  V30 6215 H 576.394 -0.891594 4.06743 0
M  V30 6216 H 578.991 -3.66732 3.89117 0
M  V30 6217 H 579.334 -3.54469 2.18306 0
M  V30 6218 H 579.867 -2.24874 3.28141 0
M  V30 6219 H 576.606 -1.93582 6.26264 0
M  V30 6220 H 576.126 -3.17991 5.08569 0
M  V30 6221 H 577.805 -3.10637 5.67551 0
M  V30 6222 N 577.937 -1.40673 -0.710563 0
M  V30 6223 C 578.887 -1.37812 -1.81636 0
M  V30 6224 C 579.871 -0.254853 -1.58869 0
M  V30 6225 O 581.063 -0.494356 -1.69956 0
M  V30 6226 C 578.192 -1.24802 -3.19811 0
M  V30 6227 C 577.278 -2.41931 -3.48325 0
M  V30 6228 N 577.669 -3.67411 -3.47625 0
M  V30 6229 C 575.967 -2.35419 -3.78806 0
M  V30 6230 C 576.668 -4.45008 -3.74623 0
M  V30 6231 N 575.644 -3.74916 -3.93623 0
M  V30 6232 H 579.446 -2.32766 -1.79436 0
M  V30 6233 H 576.96 -1.34516 -0.909909 0
M  V30 6234 H 578.957 -1.20835 -3.99004 0
M  V30 6235 H 577.617 -0.308202 -3.23234 0
M  V30 6236 H 578.628 -4.00503 -3.28356 0
M  V30 6237 H 575.305 -1.4983 -3.89689 0
M  V30 6238 H 576.695 -5.53884 -3.80344 0
M  V30 6239 N 579.415 0.9433 -1.26252 0
M  V30 6240 C 580.826 1.50404 -1.10614 0
M  V30 6241 C 581.177 1.93666 0.31429 0
M  V30 6242 O 580.302 1.79709 1.20555 0
M  V30 6243 C 580.897 2.73336 -2.00182 0
M  V30 6244 C 579.456 3.25686 -1.88695 0
M  V30 6245 C 578.603 1.98474 -1.93658 0
M  V30 6246 H 581.554 0.759006 -1.39373 0
M  V30 6247 H 581.575 3.47567 -1.54847 0
M  V30 6248 H 581.087 2.41818 -3.03555 0
M  V30 6249 H 579.188 3.61998 -0.882489 0
M  V30 6250 H 579.301 3.92935 -2.74115 0
M  V30 6251 H 577.665 2.14278 -1.37684 0
M  V30 6252 H 578.448 1.6929 -2.98657 0
M  V30 6253 N 580.893 1.08022 1.14757 0
M  V30 6254 C 582.141 0.805913 1.85336 0
M  V30 6255 C 582.462 -0.670162 1.83122 0
M  V30 6256 O 581.732 -1.48567 1.2769 0
M  V30 6257 H 580.312 0.295138 0.686223 0
M  V30 6258 H 582.974 1.36538 1.3908 0
M  V30 6259 H 582.07 1.14655 2.90277 0
M  V30 6260 N 582.371 -1.3172 0.865308 0
M  V30 6261 C 583.319 -2.30569 0.306674 0
M  V30 6262 C 584.313 -1.59317 -0.575724 0
M  V30 6263 O 585.519 -1.73961 -0.462343 0
M  V30 6264 H 581.894 -0.747681 0.0804834 0
M  V30 6265 H 583.865 -2.75165 1.15441 0
M  V30 6266 C 582.614 -3.44358 -0.480952 0
M  V30 6267 H 581.937 -3.99354 0.18876 0
M  V30 6268 H 583.377 -4.15652 -0.837241 0
M  V30 6269 C 581.836 -2.92574 -1.67039 0
M  V30 6270 O 582.366 -2.90954 -2.76964 0
M  V30 6271 N 580.572 -2.48835 -1.50097 0
M  V30 6272 H 580.119 -2.50353 -0.606738 0
M  V30 6273 H 580.077 -2.14543 -2.29823 0
M  V30 6274 N 583.85 -0.624285 -1.44708 0
M  V30 6275 C 585.096 -0.126237 -2.02407 0
M  V30 6276 C 585.428 1.24618 -1.48943 0
M  V30 6277 O 584.704 1.82569 -0.670742 0
M  V30 6278 C 584.986 -0.105449 -3.59946 0
M  V30 6279 C 584.84 -1.50972 -4.23707 0
M  V30 6280 C 586.159 0.573629 -4.36346 0
M  V30 6281 H 583.278 -0.0473472 -0.735478 0
M  V30 6282 H 585.92 -0.799452 -1.72362 0
M  V30 6283 H 584.07 0.46783 -3.85673 0
M  V30 6284 H 585.742 -2.13136 -4.0911 0
M  V30 6285 H 583.985 -2.0656 -3.81465 0
M  V30 6286 H 584.656 -1.44727 -5.32689 0
M  V30 6287 H 587.132 0.0861787 -4.16011 0
M  V30 6288 H 586.008 0.557338 -5.46063 0
M  V30 6289 H 586.269 1.64276 -4.10446 0
M  V30 6290 N 585.328 1.53329 -0.364422 0
M  V30 6291 C 586.26 2.23286 0.517293 0
M  V30 6292 C 587.273 1.24657 1.04711 0
M  V30 6293 O 588.462 1.50887 0.95369 0
M  V30 6294 C 585.562 2.91604 1.72685 0
M  V30 6295 C 584.735 4.1673 1.32873 0
M  V30 6296 C 583.794 4.68269 2.40022 0
M  V30 6297 O 582.82 5.31976 2.02461 0
M  V30 6298 N 584.022 4.45983 3.7159 0
M  V30 6299 H 586.787 2.99588 -0.0819391 0
M  V30 6300 H 584.348 1.60787 -0.189544 0
M  V30 6301 H 586.34 3.22992 2.4384 0
M  V30 6302 H 584.91 2.18763 2.23297 0
M  V30 6303 H 584.13 3.91657 0.447069 0
M  V30 6304 H 585.418 4.98078 1.03902 0
M  V30 6305 H 584.816 3.95077 4.04883 0
M  V30 6306 H 583.373 4.81924 4.38854 0
M  V30 6307 N 586.806 0.0935595 1.57322 0
M  V30 6308 C 588.031 -0.582324 1.99057 0
M  V30 6309 C 588.456 -1.61025 0.972242 0
M  V30 6310 O 587.814 -1.81202 -0.0594622 0
M  V30 6311 C 587.862 -1.20799 3.39765 0
M  V30 6312 O 586.966 -2.32382 3.40694 0
M  V30 6313 H 586.307 -0.147884 0.647323 0
M  V30 6314 H 588.837 0.174516 2.03854 0
M  V30 6315 H 588.847 -1.54966 3.77425 0
M  V30 6316 H 587.522 -0.454914 4.13405 0
M  V30 6317 H 586.099 -1.99845 3.14827 0
M  V30 6318 N 588.284 -1.56567 -0.180126 0
M  V30 6319 C 589.7 -1.50488 -0.531559 0
M  V30 6320 C 589.9 -0.796267 -1.851 0
M  V30 6321 O 588.956 -0.352978 -2.50021 0
M  V30 6322 C 590.269 -2.95201 -0.572456 0
M  V30 6323 C 591.817 -3.05957 -0.660264 0
M  V30 6324 C 592.292 -4.5211 -0.732135 0
M  V30 6325 N 593.783 -4.56322 -0.795262 0
M  V30 6326 C 594.518 -5.66742 -0.871296 0
M  V30 6327 N 594.014 -6.86815 -0.908708 0
M  V30 6328 N 595.807 -5.54691 -0.909639 0
M  V30 6329 H 587.958 -2.01045 0.685165 0
M  V30 6330 H 590.221 -0.915536 0.245962 0
M  V30 6331 H 589.927 -3.50165 0.328208 0
M  V30 6332 H 589.801 -3.49369 -1.422 0
M  V30 6333 H 592.188 -2.51032 -1.55136 0
M  V30 6334 H 592.269 -2.54888 0.215783 0
M  V30 6335 H 591.913 -5.07664 0.154664 0
M  V30 6336 H 591.843 -5.00926 -1.6242 0
M  V30 6337 H 594.334 -3.69868 -0.77499 0
M  V30 6338 H 594.647 -7.66718 -0.967654 0
M  V30 6339 H 592.992 -6.89443 -0.877132 0
M  V30 6340 H 596.183 -4.59804 -0.877353 0
M  V30 6341 H 596.356 -6.40768 -0.965434 0
M  V30 6342 N 589.762 0.448376 -1.51087 0
M  V30 6343 C 590.725 1.52588 -1.71025 0
M  V30 6344 C 591.725 1.49958 -0.580442 0
M  V30 6345 O 592.915 1.52176 -0.847833 0
M  V30 6346 C 590.047 2.92163 -1.75652 0
M  V30 6347 H 591.24 1.36218 -2.67179 0
M  V30 6348 H 588.793 0.676313 -1.4091 0
M  V30 6349 H 589.528 3.13951 -0.812724 0
M  V30 6350 H 589.313 2.95478 -2.57751 0
M  V30 6351 H 590.803 3.70349 -1.92953 0
M  V30 6352 N 591.24 1.41047 0.703093 0
M  V30 6353 C 592.656 1.23351 1.01275 0
M  V30 6354 C 592.856 0.11754 2.01157 0
M  V30 6355 O 591.912 -0.520518 2.47077 0
M  V30 6356 C 593.225 2.58001 1.54454 0
M  V30 6357 C 594.773 2.65119 1.66376 0
M  V30 6358 C 595.248 4.00067 2.22958 0
M  V30 6359 N 596.739 4.01875 2.30328 0
M  V30 6360 C 597.474 5.03087 2.75119 0
M  V30 6361 N 596.97 6.14692 3.19571 0
M  V30 6362 N 598.763 4.90451 2.74616 0
M  V30 6363 H 590.914 2.1236 0.0412686 0
M  V30 6364 H 593.177 0.944543 0.08089 0
M  V30 6365 H 592.883 3.40378 0.88521 0
M  V30 6366 H 592.757 2.79962 2.52786 0
M  V30 6367 H 595.144 1.83106 2.31422 0
M  V30 6368 H 595.225 2.46975 0.666089 0
M  V30 6369 H 594.869 4.82526 1.58529 0
M  V30 6370 H 594.799 4.15547 3.23462 0
M  V30 6371 H 597.29 3.21291 1.98949 0
M  V30 6372 H 597.603 6.87799 3.52352 0
M  V30 6373 H 595.948 6.18239 3.17498 0
M  V30 6374 H 599.139 4.0235 2.39233 0
M  V30 6375 H 599.312 5.6947 3.09206 0
M  V30 6376 N 592.718 -0.936591 1.26751 0
M  V30 6377 C 593.651 -2.03619 1.03027 0
M  V30 6378 C 594.629 -1.62534 -0.0464619 0
M  V30 6379 O 595.813 -1.88251 0.0968873 0
M  V30 6380 C 592.94 -3.3402 0.561072 0
M  V30 6381 C 591.986 -3.9408 1.63105 0
M  V30 6382 S 592.819 -4.27782 3.22122 0
M  V30 6383 C 593.975 -5.61277 2.76982 0
M  V30 6384 H 594.208 -2.23429 1.96129 0
M  V30 6385 H 591.741 -1.07857 1.10482 0
M  V30 6386 H 593.699 -4.09424 0.297031 0
M  V30 6387 H 592.36 -3.12147 -0.349741 0
M  V30 6388 H 591.553 -4.88154 1.25386 0
M  V30 6389 H 591.155 -3.25227 1.84671 0
M  V30 6390 H 593.447 -6.40189 2.21731 0
M  V30 6391 H 594.39 -6.03887 3.69766 0
M  V30 6392 H 594.798 -5.21374 2.16402 0
M  V30 6393 N 594.196 -1.08629 -1.14182 0
M  V30 6394 C 595.126 -0.740003 -2.21464 0
M  V30 6395 C 596.107 0.278591 -1.67803 0
M  V30 6396 O 597.292 0.148461 -1.93632 0
M  V30 6397 C 594.422 -0.150952 -3.46972 0
M  V30 6398 C 593.376 -1.09815 -4.13672 0
M  V30 6399 C 592.702 -0.3712 -5.3341 0
M  V30 6400 C 594.002 -2.43722 -4.61949 0
M  V30 6401 H 595.696 -1.63697 -2.50686 0
M  V30 6402 H 593.242 -0.788526 -1.20492 0
M  V30 6403 H 595.195 0.103325 -4.21273 0
M  V30 6404 H 593.919 0.781164 -3.1712 0
M  V30 6405 H 592.578 -1.33756 -3.41328 0
M  V30 6406 H 592.226 0.564792 -4.99819 0
M  V30 6407 H 591.926 -1.00267 -5.78982 0
M  V30 6408 H 593.45 -0.12503 -6.10472 0
M  V30 6409 H 594.864 -2.24034 -5.27714 0
M  V30 6410 H 593.261 -3.02582 -5.18232 0
M  V30 6411 H 594.331 -3.05082 -3.76899 0
M  V30 6412 N 595.674 1.31259 -0.872281 0
M  V30 6413 C 596.604 2.30929 -0.345554 0
M  V30 6414 C 597.585 1.60449 0.5648 0
M  V30 6415 O 598.77 1.8814 0.481335 0
M  V30 6416 C 595.9 3.44348 0.451823 0
M  V30 6417 C 594.854 4.26435 -0.365641 0
M  V30 6418 C 594.18 5.31785 0.557562 0
M  V30 6419 C 595.48 4.97159 -1.60095 0
M  V30 6420 H 597.174 2.75234 -1.17841 0
M  V30 6421 H 594.72 1.3232 -0.568094 0
M  V30 6422 H 596.673 4.13128 0.830854 0
M  V30 6423 H 595.397 2.98816 1.31821 0
M  V30 6424 H 594.056 3.59326 -0.726649 0
M  V30 6425 H 593.704 4.82502 1.4213 0
M  V30 6426 H 593.404 5.87598 0.0144878 0
M  V30 6427 H 594.928 6.03424 0.933387 0
M  V30 6428 H 596.342 5.58523 -1.29323 0
M  V30 6429 H 594.739 5.62779 -2.08327 0
M  V30 6430 H 595.809 4.24012 -2.35249 0
M  V30 6431 N 597.152 0.631951 1.44375 0
M  V30 6432 C 598.429 0.067646 1.95483 0
M  V30 6433 C 598.809 -1.40683 1.57389 0
M  V30 6434 O 598.157 -2.12167 0.848375 0
M  V30 6435 C 598.367 0.291392 3.47781 0
M  V30 6436 C 599.715 0.185028 4.24197 0
M  V30 6437 O 600.739 0.222803 3.55503 0
M  V30 6438 O 599.598 0.0906642 5.46425 0
M  V30 6439 H 596.692 -0.0218379 0.826712 0
M  V30 6440 H 599.238 0.703711 1.54421 0
M  V30 6441 H 598.01 1.31449 3.68561 0
M  V30 6442 H 597.633 -0.378772 3.95792 0
M  V30 6443 N 598.631 -1.53133 0.372548 0
M  V30 6444 C 599.563 -2.23557 -0.505444 0
M  V30 6445 C 600.576 -1.25211 -1.04049 0
M  V30 6446 O 601.765 -1.51391 -0.945675 0
M  V30 6447 C 598.865 -2.92516 -1.71136 0
M  V30 6448 C 598.038 -4.17428 -1.30661 0
M  V30 6449 C 597.097 -4.69535 -2.37536 0
M  V30 6450 O 596.123 -5.33042 -1.99637 0
M  V30 6451 N 597.325 -4.47947 -3.6922 0
M  V30 6452 H 600.09 -2.9954 0.0978259 0
M  V30 6453 H 597.651 -1.60684 0.198068 0
M  V30 6454 H 599.643 -3.24281 -2.42124 0
M  V30 6455 H 598.213 -2.19944 -2.22134 0
M  V30 6456 H 597.433 -3.91888 -0.426292 0
M  V30 6457 H 598.721 -4.98622 -1.01259 0
M  V30 6458 H 598.119 -3.97219 -4.02783 0
M  V30 6459 H 596.676 -4.84245 -4.36292 0
M  V30 6460 N 600.109 -0.101901 -1.5727 0
M  V30 6461 C 601.339 0.567568 -1.98651 0
M  V30 6462 C 601.747 1.61839 -0.980037 0
M  V30 6463 O 601.09 1.83661 0.0376564 0
M  V30 6464 C 601.152 1.26742 -3.36417 0
M  V30 6465 C 600.816 0.366561 -4.55528 0
M  V30 6466 C 601.813 -0.388022 -5.1845 0
M  V30 6467 C 599.498 0.282629 -5.01504 0
M  V30 6468 C 601.492 -1.21445 -6.25724 0
M  V30 6469 C 599.179 -0.547443 -6.08643 0
M  V30 6470 C 600.177 -1.29462 -6.70618 0
M  V30 6471 O 599.865 -2.11095 -7.7569 0
M  V30 6472 H 599.597 0.156282 -0.657687 0
M  V30 6473 H 602.151 -0.179912 -2.04611 0
M  V30 6474 H 600.381 2.06162 -3.27161 0
M  V30 6475 H 602.07 1.8321 -3.622 0
M  V30 6476 H 602.836 -0.332949 -4.83856 0
M  V30 6477 H 598.715 0.853868 -4.53023 0
M  V30 6478 H 602.259 -1.79814 -6.74027 0
M  V30 6479 H 598.156 -0.603971 -6.42668 0
M  V30 6480 H 598.924 -2.03851 -7.92709 0
M  V30 6481 N 601.587 1.56661 0.17182 0
M  V30 6482 C 603.003 1.50768 0.52357 0
M  V30 6483 C 603.203 0.806072 1.84675 0
M  V30 6484 O 602.259 0.366233 2.4983 0
M  V30 6485 C 603.572 2.955 0.556793 0
M  V30 6486 C 605.12 3.06303 0.644029 0
M  V30 6487 C 605.595 4.52492 0.708148 0
M  V30 6488 N 607.086 4.56737 0.771051 0
M  V30 6489 C 607.821 5.67196 0.841229 0
M  V30 6490 N 607.317 6.87287 0.872272 0
M  V30 6491 N 609.11 5.55165 0.88021 0
M  V30 6492 H 601.261 2.00679 -0.695817 0
M  V30 6493 H 603.524 0.914219 -0.250814 0
M  V30 6494 H 603.23 3.49986 -0.346774 0
M  V30 6495 H 603.104 3.50119 1.40346 0
M  V30 6496 H 605.491 2.51851 1.53802 0
M  V30 6497 H 605.572 2.5477 -0.229297 0
M  V30 6498 H 605.216 5.07575 -0.181585 0
M  V30 6499 H 605.146 5.01781 1.59761 0
M  V30 6500 H 607.637 3.70274 0.755364 0
M  V30 6501 H 607.95 7.6722 0.92698 0
M  V30 6502 H 606.295 6.89898 0.840557 0
M  V30 6503 H 609.486 4.60263 0.852956 0
M  V30 6504 H 609.659 6.41271 0.931439 0
M  V30 6505 N 603.065 -0.440357 1.51323 0
M  V30 6506 C 604.012 -1.53429 1.72419 0
M  V30 6507 C 604.982 -1.56165 0.565826 0
M  V30 6508 O 606.167 -1.73222 0.799917 0
M  V30 6509 C 603.307 -2.91169 1.85242 0
M  V30 6510 C 602.42 -2.97985 3.12777 0
M  V30 6511 C 601.555 -4.26829 3.16212 0
M  V30 6512 C 600.594 -4.27501 4.38074 0
M  V30 6513 N 599.731 -5.47866 4.39076 0
M  V30 6514 H 604.571 -1.34743 2.65797 0
M  V30 6515 H 602.108 -0.654608 1.31732 0
M  V30 6516 H 604.066 -3.71087 1.90658 0
M  V30 6517 H 602.696 -3.0842 0.952744 0
M  V30 6518 H 601.748 -2.10749 3.16685 0
M  V30 6519 H 603.06 -2.94342 4.02696 0
M  V30 6520 H 602.214 -5.15118 3.20527 0
M  V30 6521 H 600.953 -4.33124 2.24176 0
M  V30 6522 H 599.958 -3.37606 4.33938 0
M  V30 6523 H 601.183 -4.22873 5.31371 0
M  V30 6524 H 599.129 -5.54887 3.49909 0
M  V30 6525 H 599.046 -5.46091 5.22801 0
M  V30 6526 H 600.314 -6.38195 4.4758 0
M  V30 6527 N 604.543 -1.41418 -0.695603 0
M  V30 6528 C 605.49 -1.43264 -1.80954 0
M  V30 6529 C 606.46 -0.287016 -1.63601 0
M  V30 6530 O 607.645 -0.488054 -1.84452 0
M  V30 6531 C 604.785 -1.32054 -3.18835 0
M  V30 6532 C 603.898 -2.56485 -3.4762 0
M  V30 6533 C 603.033 -2.3757 -4.75115 0
M  V30 6534 C 602.072 -3.57477 -4.96867 0
M  V30 6535 N 601.209 -3.37632 -6.15588 0
M  V30 6536 H 606.049 -2.38467 -1.78711 0
M  V30 6537 H 603.586 -1.18415 -0.872715 0
M  V30 6538 H 605.544 -1.23558 -3.98484 0
M  V30 6539 H 604.174 -0.404592 -3.20254 0
M  V30 6540 H 603.226 -2.75432 -2.62376 0
M  V30 6541 H 604.538 -3.45678 -3.59594 0
M  V30 6542 H 603.692 -2.2654 -5.62818 0
M  V30 6543 H 602.431 -1.45834 -4.65386 0
M  V30 6544 H 601.436 -3.68961 -4.07612 0
M  V30 6545 H 602.661 -4.50167 -5.08455 0
M  V30 6546 H 600.607 -2.48596 -6.07072 0
M  V30 6547 H 600.524 -4.20401 -6.2833 0
M  V30 6548 H 601.792 -3.30375 -7.06026 0
M  V30 6549 N 606.021 0.929856 -1.27246 0
M  V30 6550 C 607.246 1.71674 -1.16374 0
M  V30 6551 C 607.671 1.86064 0.276024 0
M  V30 6552 O 607.029 1.3591 1.19992 0
M  V30 6553 C 607.077 3.09526 -1.85003 0
M  V30 6554 O 606.181 3.96142 -1.14653 0
M  V30 6555 H 605.522 0.52629 -0.404863 0
M  V30 6556 H 608.052 1.16381 -1.68276 0
M  V30 6557 H 608.062 3.59852 -1.92276 0
M  V30 6558 H 606.737 2.98369 -2.89739 0
M  V30 6559 H 605.314 3.54584 -1.15433 0
M  V30 6560 N 607.499 1.09233 1.13605 0
M  V30 6561 C 608.446 0.729921 2.18954 0
M  V30 6562 C 609.416 -0.287916 1.63586 0
M  V30 6563 O 610.601 -0.170003 1.90041 0
M  V30 6564 C 607.741 0.154489 3.44754 0
M  V30 6565 C 606.854 1.22613 4.14234 0
M  V30 6566 C 605.989 0.613657 5.27644 0
M  V30 6567 C 605.028 1.66674 5.8897 0
M  V30 6568 N 604.165 1.07545 6.93814 0
M  V30 6569 H 609.005 1.63257 2.49302 0
M  V30 6570 H 606.542 0.815693 1.22413 0
M  V30 6571 H 608.5 -0.196923 4.16735 0
M  V30 6572 H 607.13 -0.711433 3.14863 0
M  V30 6573 H 606.182 1.69485 3.40557 0
M  V30 6574 H 607.494 2.0238 4.55899 0
M  V30 6575 H 606.648 0.210976 6.06333 0
M  V30 6576 H 605.387 -0.215584 4.87223 0
M  V30 6577 H 604.392 2.07899 5.08978 0
M  V30 6578 H 605.617 2.49861 6.31464 0
M  V30 6579 H 603.563 0.267451 6.55455 0
M  V30 6580 H 603.48 1.81011 7.3401 0
M  V30 6581 H 604.748 0.698906 7.7636 0
M  V30 6582 N 608.977 -1.30795 0.87923 0
M  V30 6583 C 609.907 -2.30742 0.357796 0
M  V30 6584 C 610.888 -1.60747 -0.556283 0
M  V30 6585 O 612.073 -1.88393 -0.47135 0
M  V30 6586 C 609.203 -3.44583 -0.433555 0
M  V30 6587 C 608.157 -4.26235 0.388251 0
M  V30 6588 C 607.483 -5.32073 -0.529352 0
M  V30 6589 C 608.783 -4.96303 1.62729 0
M  V30 6590 H 610.477 -2.74605 1.19299 0
M  V30 6591 H 608.023 -1.32017 0.575104 0
M  V30 6592 H 609.976 -4.13563 -0.808934 0
M  V30 6593 H 608.7 -2.99511 -1.30234 0
M  V30 6594 H 607.359 -3.58936 0.745695 0
M  V30 6595 H 607.007 -4.83249 -1.39569 0
M  V30 6596 H 606.707 -5.87598 0.0166741 0
M  V30 6597 H 608.231 -6.0391 -0.901373 0
M  V30 6598 H 609.645 -5.5783 1.32283 0
M  V30 6599 H 608.042 -5.61666 2.11309 0
M  V30 6600 H 609.112 -4.22758 2.37494 0
M  V30 6601 N 610.455 -0.639598 -1.44038 0
M  V30 6602 C 611.702 -0.14748 -2.01962 0
M  V30 6603 C 612.03 1.23372 -1.50365 0
M  V30 6604 O 611.285 1.8345 -0.681501 0
M  V30 6605 C 611.584 -0.0925348 -3.5728 0
M  V30 6606 C 611.25 -1.41365 -4.28167 0
M  V30 6607 C 609.912 -1.77545 -4.47248 0
M  V30 6608 C 612.264 -2.2853 -4.68427 0
M  V30 6609 C 609.592 -3.00583 -5.03852 0
M  V30 6610 C 611.944 -3.50846 -5.26393 0
M  V30 6611 C 610.608 -3.8724 -5.43692 0
M  V30 6612 H 609.878 -0.0539666 -0.739032 0
M  V30 6613 H 612.525 -0.827599 -1.72694 0
M  V30 6614 H 610.83 0.670987 -3.86012 0
M  V30 6615 H 612.527 0.304891 -3.99839 0
M  V30 6616 H 609.117 -1.1221 -4.13651 0
M  V30 6617 H 613.301 -2.0187 -4.5339 0
M  V30 6618 H 608.557 -3.28846 -5.15432 0
M  V30 6619 H 612.731 -4.18616 -5.56537 0
M  V30 6620 H 610.358 -4.8266 -5.87319 0
M  V30 6621 N 611.933 1.52934 -0.380664 0
M  V30 6622 C 613.349 1.59571 -0.0302429 0
M  V30 6623 C 613.549 1.39509 1.45394 0
M  V30 6624 O 612.605 1.20777 2.21741 0
M  V30 6625 C 613.918 2.96519 -0.499691 0
M  V30 6626 C 615.466 3.09672 -0.455204 0
M  V30 6627 C 615.941 4.49056 -0.900703 0
M  V30 6628 N 617.432 4.55215 -0.856367 0
M  V30 6629 C 618.167 5.61282 -1.17259 0
M  V30 6630 N 617.663 6.75035 -1.55885 0
M  V30 6631 N 619.456 5.51343 -1.0944 0
M  V30 6632 H 611.607 1.64224 -1.347 0
M  V30 6633 H 613.87 0.771033 -0.551554 0
M  V30 6634 H 613.576 3.16388 -1.53595 0
M  V30 6635 H 613.45 3.77052 0.105789 0
M  V30 6636 H 615.837 2.89504 0.571949 0
M  V30 6637 H 615.918 2.31113 -1.09638 0
M  V30 6638 H 615.562 4.69964 -1.92604 0
M  V30 6639 H 615.492 5.26068 -0.236629 0
M  V30 6640 H 617.983 3.73546 -0.572013 0
M  V30 6641 H 618.296 7.51926 -1.784 0
M  V30 6642 H 616.641 6.76388 -1.59764 0
M  V30 6643 H 619.832 4.61356 -0.791713 0
M  V30 6644 H 620.005 6.33905 -1.34417 0
M  V30 6645 N 613.412 0.11024 1.57214 0
M  V30 6646 C 614.64 -0.557834 1.99238 0
M  V30 6647 C 615.055 -1.60778 0.989734 0
M  V30 6648 O 614.412 -1.82491 -0.0186092 0
M  V30 6649 C 614.463 -1.19189 3.41286 0
M  V30 6650 O 614.184 -0.183919 4.37714 0
M  V30 6651 C 615.685 -1.94413 3.98395 0
M  V30 6652 H 612.905 -0.148392 0.654386 0
M  V30 6653 H 615.449 0.193996 2.03578 0
M  V30 6654 H 613.604 -1.89456 3.37913 0
M  V30 6655 H 614.018 -0.643475 5.20538 0
M  V30 6656 H 615.492 -2.34116 4.99894 0
M  V30 6657 H 615.969 -2.81592 3.3705 0
M  V30 6658 H 616.575 -1.28928 4.05287 0
M  V30 6659 N 614.89 -1.56749 -0.16351 0
M  V30 6660 C 615.837 -1.97011 -1.2023 0
M  V30 6661 C 616.807 -0.835186 -1.43575 0
M  V30 6662 O 617.992 -1.09594 -1.56185 0
M  V30 6663 C 615.132 -2.34186 -2.53478 0
M  V30 6664 C 614.245 -3.60893 -2.37446 0
M  V30 6665 C 613.38 -3.87245 -3.63614 0
M  V30 6666 C 612.419 -5.07274 -3.42548 0
M  V30 6667 N 611.556 -5.29719 -4.60806 0
M  V30 6668 H 616.396 -2.85562 -0.851958 0
M  V30 6669 H 613.933 -1.41292 -0.409257 0
M  V30 6670 H 615.891 -2.53764 -3.31149 0
M  V30 6671 H 614.521 -1.48736 -2.86492 0
M  V30 6672 H 613.573 -3.49185 -1.50911 0
M  V30 6673 H 614.885 -4.48722 -2.1783 0
M  V30 6674 H 614.039 -4.07232 -4.49719 0
M  V30 6675 H 612.778 -2.97806 -3.86216 0
M  V30 6676 H 611.783 -4.87177 -2.5483 0
M  V30 6677 H 613.008 -5.98251 -3.2136 0
M  V30 6678 H 610.954 -4.43233 -4.83612 0
M  V30 6679 H 610.871 -6.11786 -4.44132 0
M  V30 6680 H 612.139 -5.54192 -5.48171 0
M  V30 6681 N 616.368 0.432326 -1.51554 0
M  V30 6682 C 617.614 1.18309 -1.64714 0
M  V30 6683 C 617.947 1.90745 -0.364696 0
M  V30 6684 O 617.222 1.8381 0.635936 0
M  V30 6685 C 617.505 2.1961 -2.85383 0
M  V30 6686 C 617.358 1.51223 -4.23617 0
M  V30 6687 C 618.677 3.20538 -3.01569 0
M  V30 6688 H 615.796 0.428751 -0.599451 0
M  V30 6689 H 618.438 0.471689 -1.84052 0
M  V30 6690 H 616.588 2.8028 -2.69027 0
M  V30 6691 H 618.26 0.938516 -4.51652 0
M  V30 6692 H 616.503 0.814501 -4.26085 0
M  V30 6693 H 617.174 2.25024 -5.04052 0
M  V30 6694 H 619.65 2.69926 -3.16669 0
M  V30 6695 H 618.526 3.88706 -3.87555 0
M  V30 6696 H 618.787 3.86933 -2.13859 0
M  V30 6697 N 617.846 1.41785 0.688094 0
M  V30 6698 C 618.776 1.47 1.8142 0
M  V30 6699 C 619.757 0.327881 1.6691 0
M  V30 6700 O 620.942 0.540362 1.86531 0
M  V30 6701 C 618.072 1.35876 3.19617 0
M  V30 6702 C 617.026 2.47976 3.48844 0
M  V30 6703 C 616.352 2.21915 4.86475 0
M  V30 6704 C 617.652 3.90309 3.47068 0
M  V30 6705 H 619.346 2.41247 1.77314 0
M  V30 6706 H 616.892 1.16116 0.851651 0
M  V30 6707 H 618.845 1.38134 3.98117 0
M  V30 6708 H 617.569 0.38116 3.24368 0
M  V30 6709 H 616.228 2.45013 2.72698 0
M  V30 6710 H 615.876 1.2248 4.8786 0
M  V30 6711 H 615.576 2.97037 5.06994 0
M  V30 6712 H 617.1 2.25901 5.67275 0
M  V30 6713 H 618.514 3.94947 4.1556 0
M  V30 6714 H 616.911 4.65175 3.7912 0
M  V30 6715 H 617.981 4.17927 2.45896 0
M  V30 6716 N 619.324 -0.923095 1.27737 0
M  V30 6717 C 620.254 -2.04124 1.13383 0
M  V30 6718 C 621.235 -1.70066 0.0340658 0
M  V30 6719 O 622.42 -1.93068 0.209383 0
M  V30 6720 C 619.55 -3.3831 0.785097 0
M  V30 6721 C 618.504 -3.86496 1.8386 0
M  V30 6722 C 617.83 -5.1754 1.34373 0
M  V30 6723 C 619.13 -4.09381 3.24353 0
M  V30 6724 H 620.824 -2.1639 2.06919 0
M  V30 6725 H 618.37 -1.03976 0.996243 0
M  V30 6726 H 620.323 -4.16016 0.671485 0
M  V30 6727 H 619.047 -3.2607 -0.185969 0
M  V30 6728 H 617.706 -3.10987 1.9412 0
M  V30 6729 H 617.354 -5.01696 0.361989 0
M  V30 6730 H 617.054 -5.50751 2.04811 0
M  V30 6731 H 618.578 -5.97811 1.24315 0
M  V30 6732 H 619.992 -4.77641 3.17067 0
M  V30 6733 H 618.389 -4.53906 3.92542 0
M  V30 6734 H 619.459 -3.14515 3.69064 0
M  V30 6735 N 620.802 -1.09834 -1.13024 0
M  V30 6736 C 621.765 -0.745058 -2.16752 0
M  V30 6737 C 622.765 0.227435 -1.59183 0
M  V30 6738 O 623.955 0.0050786 -1.74199 0
M  V30 6739 C 621.087 -0.102543 -3.40746 0
M  V30 6740 H 622.28 -1.66375 -2.49518 0
M  V30 6741 H 619.833 -0.898061 -1.27924 0
M  V30 6742 H 620.568 0.827177 -3.13573 0
M  V30 6743 H 620.353 -0.80235 -3.83803 0
M  V30 6744 H 621.843 0.129082 -4.174 0
M  V30 6745 N 622.28 1.30327 -0.886154 0
M  V30 6746 C 623.691 1.78243 -0.555554 0
M  V30 6747 C 624.042 1.72849 0.928314 0
M  V30 6748 O 623.167 1.30607 1.72542 0
M  V30 6749 C 623.762 3.23654 -1.00168 0
M  V30 6750 C 622.321 3.69401 -0.722471 0
M  V30 6751 C 621.468 2.50753 -1.18399 0
M  V30 6752 H 624.419 1.1718 -1.07026 0
M  V30 6753 H 624.44 3.79056 -0.331152 0
M  V30 6754 H 623.952 3.27548 -2.08169 0
M  V30 6755 H 622.053 3.70995 0.345496 0
M  V30 6756 H 622.166 4.60818 -1.31085 0
M  V30 6757 H 620.53 2.47452 -0.603303 0
M  V30 6758 H 621.313 2.57383 -2.27176 0
M  V30 6759 N 623.758 0.647228 1.43697 0
M  V30 6760 C 624.688 -0.0345631 2.33474 0
M  V30 6761 C 625.669 -0.818193 1.4913 0
M  V30 6762 O 626.854 -0.780867 1.77809 0
M  V30 6763 C 623.984 -1.00576 3.32418 0
M  V30 6764 C 622.938 -0.33266 4.26705 0
M  V30 6765 C 622.264 -1.41489 5.1564 0
M  V30 6766 C 623.564 0.771204 5.16575 0
M  V30 6767 H 625.258 0.715163 2.90733 0
M  V30 6768 H 622.804 0.345364 1.39797 0
M  V30 6769 H 624.757 -1.49159 3.94119 0
M  V30 6770 H 623.481 -1.78657 2.73403 0
M  V30 6771 H 622.14 0.13267 3.6636 0
M  V30 6772 H 621.788 -2.18698 4.52968 0
M  V30 6773 H 621.488 -0.969799 5.79542 0
M  V30 6774 H 623.012 -1.9022 5.80214 0
M  V30 6775 H 624.426 0.36779 5.72119 0
M  V30 6776 H 622.823 1.1404 5.89165 0
M  V30 6777 H 623.893 1.63169 4.56622 0
M  V30 6778 N 625.236 -1.5273 0.388769 0
M  V30 6779 C 626.484 -2.01174 -0.193208 0
M  V30 6780 C 626.805 -1.27705 -1.47365 0
M  V30 6781 O 626.075 -0.396966 -1.91836 0
M  V30 6782 H 624.655 -0.743287 -0.0743871 0
M  V30 6783 H 627.317 -1.87826 0.520336 0
M  V30 6784 H 626.413 -3.09477 -0.403803 0
M  V30 6785 N 626.714 -0.118576 -1.57153 0
M  V30 6786 C 627.991 0.583062 -1.86708 0
M  V30 6787 C 628.371 1.84841 -1.01967 0
M  V30 6788 O 627.719 2.28288 -0.0984673 0
M  V30 6789 C 627.929 0.875912 -3.3783 0
M  V30 6790 C 629.277 1.22916 -4.0642 0
M  V30 6791 O 630.301 0.966188 -3.42846 0
M  V30 6792 O 629.16 1.72269 -5.18638 0
M  V30 6793 H 626.254 0.294185 -0.772906 0
M  V30 6794 H 628.8 -0.153048 -1.69008 0
M  V30 6795 H 627.572 -0.0207776 -3.91294 0
M  V30 6796 H 627.195 1.66719 -3.60958 0
M  V30 6797 N 628.193 1.56834 0.155195 0
M  V30 6798 C 629.47 1.73799 0.897395 0
M  V30 6799 C 629.85 0.684379 1.99698 0
M  V30 6800 O 629.198 -0.298111 2.26547 0
M  V30 6801 C 629.408 3.17572 1.44737 0
M  V30 6802 C 630.756 3.79014 1.91399 0
M  V30 6803 O 631.78 3.20951 1.54496 0
M  V30 6804 O 630.639 4.80998 2.59429 0
M  V30 6805 H 627.733 0.710329 0.423511 0
M  V30 6806 H 630.279 1.69107 0.141761 0
M  V30 6807 H 629.051 3.85749 0.656741 0
M  V30 6808 H 628.674 3.26657 2.26674 0
M  V30 6809 N 629.671 -0.424282 1.51781 0
M  V30 6810 C 630.918 -1.1726 1.65095 0
M  V30 6811 C 631.246 -1.90881 0.373477 0
M  V30 6812 O 630.501 -1.84835 -0.642997 0
M  V30 6813 C 630.8 -2.20418 2.81337 0
M  V30 6814 C 630.466 -1.63715 4.20129 0
M  V30 6815 C 629.128 -1.47975 4.57883 0
M  V30 6816 C 631.48 -1.22157 5.06682 0
M  V30 6817 C 628.808 -0.891703 5.79884 0
M  V30 6818 C 631.16 -0.647767 6.29275 0
M  V30 6819 C 629.824 -0.477371 6.65791 0
M  V30 6820 H 629.094 -0.429085 0.604125 0
M  V30 6821 H 631.741 -0.461852 1.85847 0
M  V30 6822 H 630.046 -2.97581 2.54859 0
M  V30 6823 H 631.743 -2.78163 2.88836 0
M  V30 6824 H 628.333 -1.76946 3.90369 0
M  V30 6825 H 632.517 -1.33133 4.7811 0
M  V30 6826 H 627.773 -0.747563 6.06813 0
M  V30 6827 H 631.947 -0.317291 6.95677 0
M  V30 6828 H 629.574 -0.0195936 7.60197 0
M  V30 6829 N 631.149 -1.42148 -0.680565 0
M  V30 6830 C 632.565 -1.24947 -0.992995 0
M  V30 6831 C 632.765 -0.149527 -2.00944 0
M  V30 6832 O 631.821 0.481145 -2.47873 0
M  V30 6833 C 633.134 -2.60426 -1.5033 0
M  V30 6834 C 634.682 -2.67733 -1.62137 0
M  V30 6835 C 635.157 -4.03564 -2.16565 0
M  V30 6836 N 636.648 -4.05488 -2.23905 0
M  V30 6837 C 637.383 -5.07401 -2.67081 0
M  V30 6838 N 636.879 -6.19698 -3.09751 0
M  V30 6839 N 638.672 -4.94758 -2.66778 0
M  V30 6840 H 630.823 -2.12399 -0.0074788 0
M  V30 6841 H 633.086 -0.94571 -0.0658529 0
M  V30 6842 H 632.792 -3.41743 -0.830947 0
M  V30 6843 H 632.666 -2.83949 -2.483 0
M  V30 6844 H 635.053 -1.86765 -2.2848 0
M  V30 6845 H 635.134 -2.48004 -0.626713 0
M  V30 6846 H 634.778 -4.84987 -1.50833 0
M  V30 6847 H 634.708 -4.20641 -3.1681 0
M  V30 6848 H 637.199 -3.24415 -1.93812 0
M  V30 6849 H 637.512 -6.93318 -3.41365 0
M  V30 6850 H 635.857 -6.23212 -3.07623 0
M  V30 6851 H 639.048 -4.06105 -2.32801 0
M  V30 6852 H 639.221 -5.74317 -3.00107 0
M  V30 6853 N 632.627 0.916307 -1.28225 0
M  V30 6854 C 633.857 1.69654 -1.17902 0
M  V30 6855 C 634.265 1.87331 0.265268 0
M  V30 6856 O 633.608 1.39828 1.19137 0
M  V30 6857 C 633.67 3.11024 -1.80289 0
M  V30 6858 C 633.334 3.16643 -3.29525 0
M  V30 6859 C 634.331 2.98032 -4.25997 0
M  V30 6860 C 632.016 3.39238 -3.70436 0
M  V30 6861 C 634.01 3.01924 -5.61356 0
M  V30 6862 C 631.697 3.42762 -5.05922 0
M  V30 6863 C 632.695 3.24125 -6.01192 0
M  V30 6864 O 632.383 3.27406 -7.34208 0
M  V30 6865 H 632.115 0.537197 -0.41036 0
M  V30 6866 H 634.669 1.15547 -1.69817 0
M  V30 6867 H 632.899 3.66662 -1.22865 0
M  V30 6868 H 634.588 3.71063 -1.6452 0
M  V30 6869 H 635.354 2.80405 -3.95725 0
M  V30 6870 H 631.233 3.52791 -2.96749 0
M  V30 6871 H 634.777 2.87295 -6.35694 0
M  V30 6872 H 630.674 3.59916 -5.35846 0
M  V30 6873 H 631.442 3.43784 -7.42802 0
M  V30 6874 N 634.105 1.10431 1.1244 0
M  V30 6875 C 635.345 0.856518 1.85589 0
M  V30 6876 C 635.709 -0.606905 1.82156 0
M  V30 6877 O 636.91 -0.97105 2.50647 0
M  V30 6878 C 635.181 1.38977 3.29272 0
M  V30 6879 S 636.74 1.27739 4.19795 0
M  V30 6880 H 633.558 0.309509 0.640098 0
M  V30 6881 H 636.16 1.40975 1.35449 0
M  V30 6882 H 634.864 2.44887 3.2933 0
M  V30 6883 H 634.395 0.833112 3.84477 0
M  V30 6884 H 636.41 0.235051 4.95643 0
M  V30 6885 N 635.583 -1.29855 0.893053 0
M  V30 6886 C 636.493 -2.31661 0.370157 0
M  V30 6887 C 637.509 -1.65677 -0.531723 0
M  V30 6888 O 638.685 -1.9691 -0.422902 0
M  V30 6889 C 635.75 -3.44388 -0.399741 0
M  V30 6890 C 634.811 -4.2598 0.532861 0
M  V30 6891 C 634.044 -5.33324 -0.200388 0
M  V30 6892 O 634.267 -5.52305 -1.42531 0
M  V30 6893 O 633.201 -6.00188 0.453668 0
M  V30 6894 H 637.027 -2.78354 1.2146 0
M  V30 6895 H 634.612 -1.34171 0.657153 0
M  V30 6896 H 636.494 -4.13037 -0.835358 0
M  V30 6897 H 635.169 -2.99815 -1.22035 0
M  V30 6898 H 634.076 -3.59998 1.01746 0
M  V30 6899 H 635.409 -4.74178 1.3197 0
M  V30 6900 N 637.061 -0.65484 -1.43351 0
M  V30 6901 C 638.291 -0.176429 -2.05845 0
M  V30 6902 C 638.699 1.16375 -1.49176 0
M  V30 6903 O 638.042 1.72981 -0.618322 0
M  V30 6904 C 638.104 -0.0125844 -3.59498 0
M  V30 6905 C 637.768 -1.27831 -4.38758 0
M  V30 6906 C 638.765 -2.2074 -4.70712 0
M  V30 6907 C 636.45 -1.52035 -4.78739 0
M  V30 6908 C 638.444 -3.36145 -5.41558 0
M  V30 6909 C 636.131 -2.67732 -5.49329 0
M  V30 6910 C 637.129 -3.59612 -5.80662 0
M  V30 6911 O 636.817 -4.73289 -6.4981 0
M  V30 6912 H 636.549 -0.0879682 -0.670252 0
M  V30 6913 H 639.103 -0.896193 -1.84818 0
M  V30 6914 H 637.333 0.762567 -3.79107 0
M  V30 6915 H 639.022 0.423392 -4.03686 0
M  V30 6916 H 639.788 -2.03284 -4.40341 0
M  V30 6917 H 635.667 -0.813987 -4.53757 0
M  V30 6918 H 639.211 -4.07881 -5.65932 0
M  V30 6919 H 635.108 -2.85122 -5.79116 0
M  V30 6920 H 635.876 -4.72575 -6.68293 0
M  V30 6921 N 638.539 1.52521 -0.396863 0
M  V30 6922 C 639.767 2.06091 0.18275 0
M  V30 6923 C 640.182 1.26796 1.39886 0
M  V30 6924 O 639.539 0.316585 1.79733 0
M  V30 6925 C 639.59 3.57362 0.545377 0
M  V30 6926 O 639.311 4.33656 -0.622428 0
M  V30 6927 C 640.812 4.27305 1.18004 0
M  V30 6928 H 638.032 0.670504 0.025789 0
M  V30 6929 H 640.576 1.96561 -0.564276 0
M  V30 6930 H 638.731 3.66941 1.2423 0
M  V30 6931 H 639.145 5.23507 -0.322662 0
M  V30 6932 H 640.619 5.34366 1.38408 0
M  V30 6933 H 641.096 3.83 2.1496 0
M  V30 6934 H 641.702 4.22064 0.523671 0
M  V30 6935 N 640.017 0.126909 1.57088 0
M  V30 6936 C 640.927 -0.833867 2.1928 0
M  V30 6937 C 641.943 -1.2868 1.17122 0
M  V30 6938 O 643.119 -1.34815 1.49622 0
M  V30 6939 C 640.184 -2.0632 2.78627 0
M  V30 6940 C 639.245 -1.66143 3.95847 0
M  V30 6941 C 638.478 -2.83217 4.52354 0
M  V30 6942 O 638.701 -3.98868 4.0775 0
M  V30 6943 O 637.635 -2.59846 5.42922 0
M  V30 6944 H 641.461 -0.334564 3.01852 0
M  V30 6945 H 639.046 -0.0991091 1.49071 0
M  V30 6946 H 640.928 -2.78304 3.16425 0
M  V30 6947 H 639.603 -2.55242 1.99082 0
M  V30 6948 H 638.51 -0.912435 3.62802 0
M  V30 6949 H 639.843 -1.21957 4.76852 0
M  V30 6950 N 641.495 -1.56914 -0.146875 0
M  V30 6951 C 642.741 -1.84515 -0.855914 0
M  V30 6952 C 643.096 -0.710909 -1.78784 0
M  V30 6953 O 642.389 0.291123 -1.89375 0
M  V30 6954 C 642.583 -3.16128 -1.66727 0
M  V30 6955 C 642.412 -4.42246 -0.815405 0
M  V30 6956 C 641.182 -5.03006 -0.480976 0
M  V30 6957 C 643.38 -5.14094 -0.145684 0
M  V30 6958 N 641.362 -6.12695 0.384476 0
M  V30 6959 C 642.733 -6.17282 0.579902 0
M  V30 6960 C 644.788 -4.97856 -0.0663705 0
M  V30 6961 C 643.491 -7.0599 1.37731 0
M  V30 6962 C 645.517 -5.87028 0.71778 0
M  V30 6963 C 644.879 -6.89698 1.43165 0
M  V30 6964 H 640.978 -0.725829 -0.291026 0
M  V30 6965 H 643.562 -1.94322 -0.121279 0
M  V30 6966 H 641.733 -3.07468 -2.37315 0
M  V30 6967 H 643.465 -3.31635 -2.31949 0
M  V30 6968 H 640.22 -4.66504 -0.816789 0
M  V30 6969 H 640.644 -6.72158 0.80823 0
M  V30 6970 H 645.286 -4.18465 -0.603929 0
M  V30 6971 H 643.004 -7.84809 1.92613 0
M  V30 6972 H 646.59 -5.76532 0.781141 0
M  V30 6973 H 645.47 -7.57505 2.02868 0
M  V30 6974 N 642.974 0.416227 -1.52004 0
M  V30 6975 C 644.251 1.17637 -1.56272 0
M  V30 6976 C 644.631 2.08352 -0.339493 0
M  V30 6977 O 643.979 2.1833 0.674124 0
M  V30 6978 C 644.189 1.95986 -2.88774 0
M  V30 6979 C 645.537 2.52299 -3.41512 0
M  V30 6980 O 646.561 2.06174 -2.90467 0
M  V30 6981 O 645.42 3.3648 -4.30631 0
M  V30 6982 H 642.514 0.536726 -0.629169 0
M  V30 6983 H 645.06 0.423583 -1.64329 0
M  V30 6984 H 643.832 1.29487 -3.69254 0
M  V30 6985 H 643.455 2.78285 -2.83978 0
M  V30 6986 N 644.452 1.42507 0.673017 0
M  V30 6987 C 645.382 1.48916 1.79851 0
M  V30 6988 C 646.363 0.345566 1.66553 0
M  V30 6989 O 647.548 0.560116 1.85947 0
M  V30 6990 C 644.678 1.39258 3.18158 0
M  V30 6991 C 643.632 2.51662 3.46194 0
M  V30 6992 C 642.958 2.27062 4.84094 0
M  V30 6993 C 644.258 3.93968 3.42909 0
M  V30 6994 H 645.952 2.43114 1.74745 0
M  V30 6995 H 643.498 1.17013 0.839288 0
M  V30 6996 H 645.451 1.42349 3.96629 0
M  V30 6997 H 644.175 0.415542 3.23946 0
M  V30 6998 H 642.834 2.47891 2.70084 0
M  V30 6999 H 642.482 1.27648 4.86534 0
M  V30 7000 H 642.182 3.02398 5.03815 0
M  V30 7001 H 643.706 2.31905 5.64847 0
M  V30 7002 H 645.12 3.99332 4.11347 0
M  V30 7003 H 643.517 4.6917 3.74165 0
M  V30 7004 H 644.587 4.20512 2.41449 0
M  V30 7005 N 645.93 -0.909495 1.28709 0
M  V30 7006 C 646.862 -2.01729 1.08804 0
M  V30 7007 C 647.875 -1.62755 0.0384739 0
M  V30 7008 O 649.064 -1.76259 0.281977 0
M  V30 7009 C 646.164 -3.32952 0.63217 0
M  V30 7010 C 645.337 -4.00512 1.75809 0
M  V30 7011 C 644.396 -5.10019 1.29488 0
M  V30 7012 O 643.422 -5.32986 1.99787 0
M  V30 7013 N 644.624 -5.80278 0.1604 0
M  V30 7014 H 647.389 -2.19362 2.04207 0
M  V30 7015 H 644.95 -1.08106 1.20518 0
M  V30 7016 H 646.942 -4.03543 0.305802 0
M  V30 7017 H 645.512 -3.11759 -0.229134 0
M  V30 7018 H 644.732 -3.23413 2.25383 0
M  V30 7019 H 646.02 -4.42395 2.51325 0
M  V30 7020 H 645.418 -5.64094 -0.425937 0
M  V30 7021 H 643.975 -6.51713 -0.106663 0
M  V30 7022 N 647.408 -1.11026 -1.11852 0
M  V30 7023 C 648.655 -0.85646 -1.83497 0
M  V30 7024 C 648.983 0.617938 -1.84423 0
M  V30 7025 O 648.238 1.47194 -1.28966 0
M  V30 7026 C 648.537 -1.35777 -3.30604 0
M  V30 7027 C 648.203 -2.84465 -3.49843 0
M  V30 7028 C 646.865 -3.25068 -3.54802 0
M  V30 7029 C 649.217 -3.80251 -3.56453 0
M  V30 7030 C 646.545 -4.60194 -3.63921 0
M  V30 7031 C 648.897 -5.15188 -3.67102 0
M  V30 7032 C 647.561 -5.55356 -3.70319 0
M  V30 7033 H 646.831 -0.313401 -0.671462 0
M  V30 7034 H 649.478 -1.38792 -1.31943 0
M  V30 7035 H 647.783 -0.746455 -3.84624 0
M  V30 7036 H 649.48 -1.13779 -3.8452 0
M  V30 7037 H 646.07 -2.52054 -3.46651 0
M  V30 7038 H 650.254 -3.49986 -3.51886 0
M  V30 7039 H 645.51 -4.90728 -3.64686 0
M  V30 7040 H 649.684 -5.89248 -3.71159 0
M  V30 7041 H 647.311 -6.60054 -3.77138 0
M  V30 7042 N 648.886 1.2938 -0.899927 0
M  V30 7043 C 649.833 2.27713 -0.376243 0
M  V30 7044 C 650.803 1.57016 0.541774 0
M  V30 7045 O 651.988 1.84997 0.466966 0
M  V30 7046 C 649.128 3.42889 0.39 0
M  V30 7047 C 648.241 4.28369 -0.558938 0
M  V30 7048 C 647.376 5.30726 0.224379 0
M  V30 7049 C 646.415 6.07862 -0.719068 0
M  V30 7050 N 645.552 7.02094 0.0298569 0
M  V30 7051 H 650.392 2.71888 -1.21988 0
M  V30 7052 H 647.929 1.33724 -0.612879 0
M  V30 7053 H 649.887 4.08443 0.850314 0
M  V30 7054 H 648.517 2.99743 1.19809 0
M  V30 7055 H 647.569 3.62986 -1.13777 0
M  V30 7056 H 648.881 4.82068 -1.2811 0
M  V30 7057 H 648.035 6.02098 0.745881 0
M  V30 7058 H 646.774 4.77759 0.979674 0
M  V30 7059 H 645.779 5.35353 -1.25207 0
M  V30 7060 H 647.004 6.62917 -1.4737 0
M  V30 7061 H 644.95 6.51496 0.767415 0
M  V30 7062 H 644.867 7.5335 -0.632391 0
M  V30 7063 H 646.135 7.77685 0.531615 0
M  V30 7064 N 650.364 0.662433 1.43002 0
M  V30 7065 C 651.312 -0.035345 2.32573 0
M  V30 7066 C 652.306 -0.803505 1.49131 0
M  V30 7067 O 653.512 -0.712865 1.65282 0
M  V30 7068 H 649.887 -0.0302194 0.751393 0
M  V30 7069 H 651.858 0.737686 2.89138 0
M  V30 7070 C 650.607 -0.981575 3.33557 0
M  V30 7071 H 649.93 -0.399914 3.97795 0
M  V30 7072 H 651.37 -1.43873 3.98844 0
M  V30 7073 C 649.829 -2.08204 2.64863 0
M  V30 7074 O 650.359 -3.16698 2.47113 0
M  V30 7075 N 648.565 -1.85022 2.24088 0
M  V30 7076 H 648.112 -0.967909 2.38724 0
M  V30 7077 H 648.07 -2.58845 1.78457 0
M  V30 7078 N 651.842 -1.52309 0.404946 0
M  V30 7079 C 653.072 -2.05886 -0.171569 0
M  V30 7080 C 653.48 -1.27527 -1.39762 0
M  V30 7081 O 652.823 -0.319215 -1.80905 0
M  V30 7082 C 652.885 -3.54609 -0.590983 0
M  V30 7083 C 652.549 -4.53989 0.523757 0
M  V30 7084 C 653.546 -5.01084 1.38604 0
M  V30 7085 C 651.231 -4.97465 0.695255 0
M  V30 7086 C 653.225 -5.90295 2.4048 0
M  V30 7087 C 650.912 -5.86473 1.71733 0
M  V30 7088 C 651.91 -6.32782 2.57051 0
M  V30 7089 O 651.598 -7.20029 3.57509 0
M  V30 7090 H 651.33 -0.675508 -0.0257763 0
M  V30 7091 H 653.884 -1.97238 0.573278 0
M  V30 7092 H 652.114 -3.60929 -1.38805 0
M  V30 7093 H 653.803 -3.90853 -1.09494 0
M  V30 7094 H 654.569 -4.68214 1.26492 0
M  V30 7095 H 650.448 -4.60982 0.0408447 0
M  V30 7096 H 653.992 -6.26363 3.07108 0
M  V30 7097 H 649.889 -6.18756 1.83877 0
M  V30 7098 H 650.657 -7.3813 3.53703 0
M  V30 7099 N 653.32 -0.135238 -1.57019 0
M  V30 7100 C 654.252 0.839675 -2.13265 0
M  V30 7101 C 655.265 1.21887 -1.07923 0
M  V30 7102 O 656.454 1.16499 -1.35241 0
M  V30 7103 C 653.554 2.13647 -2.63075 0
M  V30 7104 C 652.727 1.92646 -3.92691 0
M  V30 7105 C 651.786 3.06205 -4.27931 0
M  V30 7106 O 650.812 2.78409 -4.96465 0
M  V30 7107 N 652.014 4.33072 -3.86561 0
M  V30 7108 H 654.779 0.359026 -2.97542 0
M  V30 7109 H 652.34 0.0486979 -1.61827 0
M  V30 7110 H 654.332 2.88641 -2.8367 0
M  V30 7111 H 652.902 2.5301 -1.83588 0
M  V30 7112 H 652.122 1.01754 -3.80841 0
M  V30 7113 H 653.41 1.75939 -4.77413 0
M  V30 7114 H 652.808 4.58526 -3.31316 0
M  V30 7115 H 651.365 5.04885 -4.12231 0
M  V30 7116 N 654.798 1.5699 0.138552 0
M  V30 7117 C 655.73 1.95515 1.1961 0
M  V30 7118 C 656.743 0.852002 1.38726 0
M  V30 7119 O 657.932 1.13038 1.38147 0
M  V30 7120 C 655.032 2.2213 2.55952 0
M  V30 7121 C 654.205 3.53424 2.57702 0
M  V30 7122 C 653.264 3.6848 3.75645 0
M  V30 7123 O 652.29 4.4079 3.60129 0
M  V30 7124 N 653.492 3.05777 4.93438 0
M  V30 7125 H 656.257 2.86838 0.868557 0
M  V30 7126 H 653.818 1.58542 0.328033 0
M  V30 7127 H 655.81 2.29435 3.33379 0
M  V30 7128 H 654.38 1.3703 2.80965 0
M  V30 7129 H 653.6 3.57484 1.6613 0
M  V30 7130 H 654.888 4.39759 2.55909 0
M  V30 7131 H 654.286 2.46961 5.08947 0
M  V30 7132 H 652.843 3.18631 5.6861 0
M  V30 7133 N 656.276 -0.40816 1.52223 0
M  V30 7134 C 657.206 -1.5042 1.78595 0
M  V30 7135 C 658.187 -1.57723 0.636974 0
M  V30 7136 O 659.372 -1.72982 0.882664 0
M  V30 7137 C 656.502 -2.88232 1.93751 0
M  V30 7138 C 655.456 -2.95779 3.09352 0
M  V30 7139 C 654.782 -4.35855 3.09732 0
M  V30 7140 C 656.082 -2.67175 4.48793 0
M  V30 7141 H 657.776 -1.28601 2.70374 0
M  V30 7142 H 655.322 -0.617221 1.30101 0
M  V30 7143 H 657.275 -3.64895 2.10783 0
M  V30 7144 H 655.999 -3.11347 0.986443 0
M  V30 7145 H 654.658 -2.21561 2.92072 0
M  V30 7146 H 654.306 -4.55981 2.12346 0
M  V30 7147 H 654.006 -4.41829 3.87377 0
M  V30 7148 H 655.53 -5.14451 3.28895 0
M  V30 7149 H 656.944 -3.3356 4.66273 0
M  V30 7150 H 655.341 -2.84523 5.28362 0
M  V30 7151 H 656.411 -1.62609 4.56822 0
M  V30 7152 N 657.755 -1.42862 -0.66545 0
M  V30 7153 C 659.002 -1.4383 -1.42546 0
M  V30 7154 C 659.33 -0.0581114 -1.94413 0
M  V30 7155 O 658.585 0.935002 -1.71919 0
M  V30 7156 C 658.884 -2.4175 -2.63233 0
M  V30 7157 C 658.55 -3.87915 -2.29854 0
M  V30 7158 C 657.212 -4.27726 -2.20463 0
M  V30 7159 C 659.564 -4.80074 -2.02924 0
M  V30 7160 C 656.892 -5.57666 -1.82279 0
M  V30 7161 C 659.244 -6.10366 -1.66242 0
M  V30 7162 C 657.908 -6.49167 -1.55367 0
M  V30 7163 H 657.178 -0.52631 -0.521612 0
M  V30 7164 H 659.825 -1.75863 -0.757914 0
M  V30 7165 H 658.13 -2.03077 -3.35063 0
M  V30 7166 H 659.827 -2.39759 -3.21429 0
M  V30 7167 H 656.417 -3.564 -2.3807 0
M  V30 7168 H 660.601 -4.50097 -2.09108 0
M  V30 7169 H 655.857 -5.8658 -1.72436 0
M  V30 7170 H 660.031 -6.81258 -1.44432 0
M  V30 7171 H 657.658 -7.49761 -1.2555 0
M  V30 7172 N 659.233 0.902656 -1.29189 0
M  V30 7173 C 660.51 1.63296 -1.07674 0
M  V30 7174 C 660.89 2.07649 0.380137 0
M  V30 7175 O 660.238 1.82997 1.36837 0
M  V30 7176 C 660.448 2.81603 -2.06158 0
M  V30 7177 C 661.796 3.52359 -2.36914 0
M  V30 7178 O 662.82 2.91767 -2.04329 0
M  V30 7179 O 661.679 4.61586 -2.92576 0
M  V30 7180 H 658.773 0.716889 -0.41231 0
M  V30 7181 H 661.319 0.950984 -1.4055 0
M  V30 7182 H 660.091 2.46004 -3.04299 0
M  V30 7183 H 659.714 3.57508 -1.73993 0
M  V30 7184 N 660.711 1.11618 1.11262 0
M  V30 7185 C 661.941 0.88745 1.86569 0
M  V30 7186 C 662.349 -0.56636 1.80524 0
M  V30 7187 O 661.692 -1.40289 1.18594 0
M  V30 7188 C 661.754 1.27313 3.36202 0
M  V30 7189 C 661.418 2.73649 3.66013 0
M  V30 7190 C 662.415 3.71863 3.63337 0
M  V30 7191 C 660.1 3.10342 3.9496 0
M  V30 7192 C 662.094 5.04788 3.89188 0
M  V30 7193 C 659.781 4.43451 4.20469 0
M  V30 7194 C 660.779 5.40484 4.17572 0
M  V30 7195 O 660.467 6.71195 4.42439 0
M  V30 7196 H 660.199 0.317543 0.596777 0
M  V30 7197 H 662.753 1.48768 1.41624 0
M  V30 7198 H 660.983 0.616062 3.81761 0
M  V30 7199 H 662.672 1.01991 3.92877 0
M  V30 7200 H 663.438 3.44861 3.41022 0
M  V30 7201 H 659.317 2.35431 3.9635 0
M  V30 7202 H 662.861 5.80516 3.86842 0
M  V30 7203 H 658.758 4.70187 4.42261 0
M  V30 7204 H 659.526 6.77012 4.59997 0
M  V30 7205 N 662.189 -1.289 0.906776 0
M  V30 7206 C 663.122 -2.25737 0.334362 0
M  V30 7207 C 664.1 -1.52745 -0.557474 0
M  V30 7208 O 665.284 -1.81673 -0.502697 0
M  V30 7209 C 662.411 -3.34642 -0.522716 0
M  V30 7210 C 661.457 -4.25424 0.302777 0
M  V30 7211 S 662.29 -5.07629 1.70508 0
M  V30 7212 C 663.446 -6.20031 0.855118 0
M  V30 7213 H 663.679 -2.73941 1.15514 0
M  V30 7214 H 661.212 -1.37233 0.707573 0
M  V30 7215 H 663.17 -3.97845 -1.01141 0
M  V30 7216 H 661.831 -2.85119 -1.31781 0
M  V30 7217 H 661.024 -5.02767 -0.352257 0
M  V30 7218 H 660.626 -3.66908 0.724873 0
M  V30 7219 H 662.918 -6.77451 0.0816418 0
M  V30 7220 H 663.861 -6.89767 1.60087 0
M  V30 7221 H 664.269 -5.63035 0.406375 0
M  V30 7222 N 663.667 -0.670007 -1.42649 0
M  V30 7223 C 664.615 0.0230106 -2.32589 0
M  V30 7224 C 665.609 0.795585 -1.49555 0
M  V30 7225 O 666.815 0.70409 -1.65658 0
M  V30 7226 H 663.19 0.0262342 -0.751542 0
M  V30 7227 H 665.161 -0.753009 -2.88743 0
M  V30 7228 C 663.91 0.963872 -3.34073 0
M  V30 7229 H 663.233 0.378813 -3.98001 0
M  V30 7230 H 664.673 1.41755 -3.99602 0
M  V30 7231 C 663.132 2.06797 -2.65964 0
M  V30 7232 O 663.662 3.15383 -2.48789 0
M  V30 7233 N 661.868 1.83831 -2.25066 0
M  V30 7234 H 661.415 0.955235 -2.39234 0
M  V30 7235 H 661.373 2.57895 -1.79827 0
M  V30 7236 N 665.145 1.52092 -0.413018 0
M  V30 7237 C 666.37 2.06756 0.163338 0
M  V30 7238 C 666.795 1.28073 1.37764 0
M  V30 7239 O 666.153 0.312015 1.78595 0
M  V30 7240 C 666.201 3.57278 0.488322 0
M  V30 7241 O 665.305 3.80986 1.57871 0
M  V30 7242 H 664.646 0.663882 0.0125068 0
M  V30 7243 H 667.176 1.95988 -0.587339 0
M  V30 7244 H 667.186 4.01125 0.745836 0
M  V30 7245 H 665.861 4.13978 -0.399327 0
M  V30 7246 H 664.438 3.49017 1.31306 0
M  V30 7247 N 666.623 0.143563 1.56945 0
M  V30 7248 C 667.555 -0.828353 2.13708 0
M  V30 7249 C 668.568 -1.21313 1.08568 0
M  V30 7250 O 669.757 -1.1578 1.35857 0
M  V30 7251 C 666.857 -2.12248 2.64204 0
M  V30 7252 C 666.03 -1.90561 3.93707 0
M  V30 7253 C 665.089 -3.03931 4.29549 0
M  V30 7254 O 664.115 -2.75772 4.97934 0
M  V30 7255 N 665.317 -4.31016 3.88852 0
M  V30 7256 H 668.082 -0.343242 2.97728 0
M  V30 7257 H 665.643 -0.0401152 1.6185 0
M  V30 7258 H 667.635 -2.87132 2.85197 0
M  V30 7259 H 666.205 -2.52033 1.84928 0
M  V30 7260 H 665.425 -0.997327 3.81375 0
M  V30 7261 H 666.713 -1.73405 4.78339 0
M  V30 7262 H 666.111 -4.56762 3.33743 0
M  V30 7263 H 664.668 -5.02691 4.14903 0
M  V30 7264 N 668.101 -1.57061 -0.130224 0
M  V30 7265 C 669.326 -1.88802 -0.858409 0
M  V30 7266 C 669.751 -0.734353 -1.73173 0
M  V30 7267 O 669.109 0.315529 -1.78533 0
M  V30 7268 C 669.157 -3.19228 -1.67708 0
M  V30 7269 O 668.261 -3.04343 -2.78297 0
M  V30 7270 H 667.602 -0.619849 -0.238083 0
M  V30 7271 H 670.132 -2.04271 -0.115995 0
M  V30 7272 H 670.142 -3.51669 -2.06864 0
M  V30 7273 H 668.817 -4.02793 -1.0359 0
M  V30 7274 H 667.394 -2.83346 -2.42425 0
M  V30 7275 N 669.579 0.400081 -1.52437 0
M  V30 7276 C 670.526 1.48803 -1.76426 0
M  V30 7277 C 671.496 1.5461 -0.607032 0
M  V30 7278 O 672.681 1.71041 -0.845563 0
M  V30 7279 C 669.821 2.86156 -1.92896 0
M  V30 7280 C 668.934 2.89587 -3.20567 0
M  V30 7281 C 668.069 4.18296 -3.27417 0
M  V30 7282 C 667.108 4.15736 -4.49255 0
M  V30 7283 N 666.245 5.36032 -4.53447 0
M  V30 7284 H 671.085 1.27649 -2.69276 0
M  V30 7285 H 668.622 0.619451 -1.33421 0
M  V30 7286 H 670.58 3.65901 -2.00429 0
M  V30 7287 H 669.21 3.05785 -1.03418 0
M  V30 7288 H 668.262 2.02278 -3.22161 0
M  V30 7289 H 669.574 2.83562 -4.10358 0
M  V30 7290 H 668.728 5.06439 -3.34072 0
M  V30 7291 H 667.467 4.27028 -2.35581 0
M  V30 7292 H 666.472 3.25982 -4.42737 0
M  V30 7293 H 667.697 4.08636 -5.42396 0
M  V30 7294 H 665.643 5.45415 -3.64498 0
M  V30 7295 H 665.56 5.32038 -5.37096 0
M  V30 7296 H 666.828 6.26104 -4.64343 0
M  V30 7297 N 671.057 1.43213 0.657864 0
M  V30 7298 C 672.304 1.44584 1.41781 0
M  V30 7299 C 672.632 0.0684208 1.9438 0
M  V30 7300 O 671.887 -0.925872 1.72413 0
M  V30 7301 C 672.186 2.43143 2.61947 0
M  V30 7302 C 671.852 3.89128 2.27794 0
M  V30 7303 C 670.514 4.28889 2.18191 0
M  V30 7304 C 672.866 4.81144 2.00375 0
M  V30 7305 C 670.194 5.58625 1.79319 0
M  V30 7306 C 672.546 6.11239 1.63003 0
M  V30 7307 C 671.21 6.49981 1.51922 0
M  V30 7308 H 670.48 0.529069 0.518813 0
M  V30 7309 H 673.127 1.76263 0.748577 0
M  V30 7310 H 671.432 2.04851 3.33981 0
M  V30 7311 H 673.129 2.4146 3.20153 0
M  V30 7312 H 669.719 3.57657 2.36176 0
M  V30 7313 H 673.903 4.512 2.06718 0
M  V30 7314 H 669.159 5.87486 1.69323 0
M  V30 7315 H 673.333 6.82014 1.40817 0
M  V30 7316 H 670.96 7.50416 1.21572 0
M  V30 7317 N 672.536 -0.895792 1.29666 0
M  V30 7318 C 673.483 -2.00035 1.15129 0
M  V30 7319 C 674.453 -1.66043 0.0435819 0
M  V30 7320 O 675.638 -1.89621 0.211811 0
M  V30 7321 C 672.778 -3.34774 0.83787 0
M  V30 7322 C 671.891 -3.81525 2.0264 0
M  V30 7323 C 671.026 -5.04858 1.65201 0
M  V30 7324 C 670.065 -5.43988 2.80612 0
M  V30 7325 N 669.202 -6.58507 2.43544 0
M  V30 7326 H 674.042 -2.11802 2.09628 0
M  V30 7327 H 671.579 -1.03719 1.04311 0
M  V30 7328 H 673.537 -4.12311 0.636824 0
M  V30 7329 H 672.167 -3.22724 -0.0702314 0
M  V30 7330 H 671.219 -2.9999 2.33903 0
M  V30 7331 H 672.531 -4.06472 2.89106 0
M  V30 7332 H 671.685 -5.8999 1.41408 0
M  V30 7333 H 670.424 -4.81759 0.758893 0
M  V30 7334 H 669.429 -4.57388 3.05083 0
M  V30 7335 H 670.654 -5.69066 3.70595 0
M  V30 7336 H 668.6 -6.37004 1.56724 0
M  V30 7337 H 668.517 -6.83269 3.23542 0
M  V30 7338 H 669.785 -7.46897 2.2308 0
M  V30 7339 N 674.014 -1.12206 -1.10668 0
M  V30 7340 C 675.26 -0.877172 -1.82848 0
M  V30 7341 C 675.593 0.595571 -1.84842 0
M  V30 7342 O 674.868 1.44013 -1.30731 0
M  V30 7343 C 675.151 -1.44957 -3.29635 0
M  V30 7344 C 675.004 -2.99051 -3.35989 0
M  V30 7345 C 676.323 -1.10714 -4.25946 0
M  V30 7346 H 673.442 -0.320103 -0.663854 0
M  V30 7347 H 676.084 -1.38827 -1.2972 0
M  V30 7348 H 674.234 -1.01488 -3.7501 0
M  V30 7349 H 675.906 -3.51182 -2.99113 0
M  V30 7350 H 674.149 -3.34705 -2.75962 0
M  V30 7351 H 674.82 -3.34194 -4.39339 0
M  V30 7352 H 677.296 -1.48254 -3.88793 0
M  V30 7353 H 676.172 -1.5343 -5.2702 0
M  V30 7354 H 676.433 -0.019 -4.42096 0
M  V30 7355 N 675.492 1.28418 -0.913599 0
M  V30 7356 C 676.439 2.27301 -0.400373 0
M  V30 7357 C 677.409 1.57582 0.52509 0
M  V30 7358 O 678.594 1.85482 0.447318 0
M  V30 7359 C 675.734 3.43284 0.35361 0
M  V30 7360 C 674.847 4.27752 -0.604341 0
M  V30 7361 C 673.982 5.30934 0.168075 0
M  V30 7362 C 673.021 6.07065 -0.783499 0
M  V30 7363 N 672.158 7.02086 -0.0446112 0
M  V30 7364 H 676.998 2.70579 -1.24865 0
M  V30 7365 H 674.535 1.33067 -0.627028 0
M  V30 7366 H 676.493 4.09322 0.806945 0
M  V30 7367 H 675.123 3.00997 1.16623 0
M  V30 7368 H 674.175 3.61759 -1.17621 0
M  V30 7369 H 675.487 4.80682 -1.33216 0
M  V30 7370 H 674.641 6.02855 0.681979 0
M  V30 7371 H 673.38 4.78771 0.928947 0
M  V30 7372 H 672.385 5.33995 -1.30878 0
M  V30 7373 H 673.61 6.61317 -1.54392 0
M  V30 7374 H 671.556 6.52273 0.698272 0
M  V30 7375 H 671.473 7.52637 -0.712258 0
M  V30 7376 H 672.741 7.78205 0.449102 0
M  V30 7377 N 676.97 0.677563 1.42291 0
M  V30 7378 C 678.219 0.198173 2.00724 0
M  V30 7379 C 678.532 -1.20325 1.54211 0
M  V30 7380 O 679.738 -1.77916 2.05081 0
M  V30 7381 C 678.194 0.303432 3.58619 0
M  V30 7382 C 677.802 1.70909 4.14119 0
M  V30 7383 C 679.546 -0.117103 4.24338 0
M  V30 7384 C 677.453 1.76696 5.64387 0
M  V30 7385 H 676.383 0.070329 0.750713 0
M  V30 7386 H 679.034 0.843147 1.62982 0
M  V30 7387 H 677.416 -0.409482 3.93877 0
M  V30 7388 H 678.59 2.44931 3.90315 0
M  V30 7389 H 676.905 2.07771 3.6086 0
M  V30 7390 H 679.502 -0.0940471 5.34617 0
M  V30 7391 H 679.845 -1.15283 4.00019 0
M  V30 7392 H 680.378 0.5449 3.9405 0
M  V30 7393 H 677.117 2.7826 5.93508 0
M  V30 7394 H 676.637 1.07034 5.90173 0
M  V30 7395 H 678.316 1.52166 6.28852 0
M  V30 7396 N 678.448 -1.51871 0.421078 0
M  V30 7397 C 679.38 -2.25052 -0.434065 0
M  V30 7398 C 680.393 -1.28458 -1.00013 0
M  V30 7399 O 681.582 -1.54323 -0.897033 0
M  V30 7400 C 678.682 -2.97813 -1.61743 0
M  V30 7401 C 677.855 -4.21374 -1.17315 0
M  V30 7402 C 676.914 -4.76854 -2.22478 0
M  V30 7403 O 675.94 -5.39123 -1.82577 0
M  V30 7404 N 677.142 -4.59467 -3.54782 0
M  V30 7405 H 679.907 -2.99077 0.193073 0
M  V30 7406 H 677.468 -1.59972 0.249088 0
M  V30 7407 H 679.46 -3.3182 -2.31685 0
M  V30 7408 H 678.03 -2.26899 -2.15024 0
M  V30 7409 H 677.25 -3.93046 -0.3014 0
M  V30 7410 H 678.538 -5.01591 -0.853444 0
M  V30 7411 H 677.936 -4.09832 -3.89941 0
M  V30 7412 H 676.493 -4.9788 -4.20665 0
M  V30 7413 N 679.926 -0.151884 -1.56866 0
M  V30 7414 C 681.173 0.498004 -1.96281 0
M  V30 7415 C 681.501 1.64551 -1.03698 0
M  V30 7416 O 680.756 1.95585 -0.0671497 0
M  V30 7417 C 681.055 1.04074 -3.41911 0
M  V30 7418 C 680.721 0.0111688 -4.50899 0
M  V30 7419 C 679.383 -0.271844 -4.80432 0
M  V30 7420 C 681.735 -0.68869 -5.1663 0
M  V30 7421 C 679.063 -1.26044 -5.73001 0
M  V30 7422 C 681.415 -1.66613 -6.10264 0
M  V30 7423 C 680.079 -1.9568 -6.38174 0
M  V30 7424 H 679.349 0.182233 -0.718242 0
M  V30 7425 H 681.996 -0.239746 -1.89993 0
M  V30 7426 H 680.301 1.85592 -3.45055 0
M  V30 7427 H 681.998 1.55224 -3.69738 0
M  V30 7428 H 678.588 0.241932 -4.27917 0
M  V30 7429 H 682.772 -0.48324 -4.93942 0
M  V30 7430 H 678.028 -1.49202 -5.92915 0
M  V30 7431 H 682.202 -2.21392 -6.60272 0
M  V30 7432 H 679.829 -2.72434 -7.09707 0
M  V30 7433 N 681.404 1.57128 0.121893 0
M  V30 7434 C 682.652 1.84335 0.828548 0
M  V30 7435 C 682.973 0.736632 1.80551 0
M  V30 7436 O 682.243 -0.23962 1.94429 0
M  V30 7437 H 680.823 0.680108 0.30897 0
M  V30 7438 H 683.485 1.9459 0.109906 0
M  V30 7439 H 682.581 2.80152 1.37554 0
M  V30 7440 N 682.882 -0.391992 1.52647 0
M  V30 7441 C 684.11 -1.1586 1.71418 0
M  V30 7442 C 684.525 -1.8381 0.431216 0
M  V30 7443 O 683.882 -1.7256 -0.594085 0
M  V30 7444 C 683.933 -2.20888 2.86165 0
M  V30 7445 O 683.654 -1.5571 4.09495 0
M  V30 7446 C 685.155 -3.103 3.1659 0
M  V30 7447 H 682.375 -0.347494 0.574011 0
M  V30 7448 H 684.919 -0.458972 1.99283 0
M  V30 7449 H 683.074 -2.86492 2.6077 0
M  V30 7450 H 683.488 -2.25474 4.73563 0
M  V30 7451 H 684.962 -3.8003 4.00351 0
M  V30 7452 H 685.439 -3.73639 2.30848 0
M  V30 7453 H 686.045 -2.50345 3.43813 0
M  V30 7454 N 684.36 -1.4356 -0.65026 0
M  V30 7455 C 685.29 -1.51758 -1.77459 0
M  V30 7456 C 686.271 -0.372019 -1.65982 0
M  V30 7457 O 687.456 -0.589627 -1.85033 0
M  V30 7458 C 684.586 -1.44302 -3.15902 0
M  V30 7459 C 683.54 -2.57138 -3.42146 0
M  V30 7460 C 682.866 -2.34735 -4.8042 0
M  V30 7461 C 684.166 -3.99373 -3.36598 0
M  V30 7462 H 685.86 -2.45863 -1.70855 0
M  V30 7463 H 683.406 -1.18333 -0.820566 0
M  V30 7464 H 685.359 -1.48641 -3.94314 0
M  V30 7465 H 684.083 -0.467026 -3.23244 0
M  V30 7466 H 682.742 -2.52157 -2.66106 0
M  V30 7467 H 682.39 -1.35372 -4.84441 0
M  V30 7468 H 682.09 -3.10375 -4.9894 0
M  V30 7469 H 683.614 -2.40862 -5.61086 0
M  V30 7470 H 685.028 -4.05826 -4.04942 0
M  V30 7471 H 683.425 -4.75063 -3.66654 0
M  V30 7472 H 684.495 -4.243 -2.34729 0
M  V30 7473 N 685.838 0.888903 -1.30139 0
M  V30 7474 C 687.063 1.67884 -1.21777 0
M  V30 7475 C 687.488 1.86848 0.216689 0
M  V30 7476 O 686.846 1.39659 1.15608 0
M  V30 7477 C 686.894 3.03483 -1.94757 0
M  V30 7478 O 685.998 3.92294 -1.27198 0
M  V30 7479 H 685.339 0.513144 -0.421402 0
M  V30 7480 H 687.869 1.10968 -1.71893 0
M  V30 7481 H 687.879 3.53553 -2.03627 0
M  V30 7482 H 686.554 2.89 -2.99085 0
M  V30 7483 H 685.131 3.50732 -1.26655 0
M  V30 7484 N 687.317 1.12792 1.10072 0
M  V30 7485 C 688.594 0.796867 1.78632 0
M  V30 7486 C 688.974 -0.712739 1.98704 0
M  V30 7487 O 688.322 -1.64773 1.5831 0
M  V30 7488 C 688.532 1.57622 3.11378 0
M  V30 7489 C 689.88 1.76463 3.86194 0
M  V30 7490 O 690.904 1.54165 3.2111 0
M  V30 7491 O 689.763 2.13623 5.03018 0
M  V30 7492 H 686.857 0.290248 0.774394 0
M  V30 7493 H 689.403 1.23215 1.16688 0
M  V30 7494 H 688.175 2.60246 2.92212 0
M  V30 7495 H 687.798 1.13543 3.81043 0
M  V30 7496 N 688.795 -1.27931 0.920396 0
M  V30 7497 C 690.042 -1.94689 0.557007 0
M  V30 7498 C 690.37 -1.724 -0.900476 0
M  V30 7499 O 689.625 -1.04194 -1.65657 0
M  V30 7500 C 689.924 -3.47853 0.820558 0
M  V30 7501 C 689.59 -3.90252 2.25863 0
M  V30 7502 C 688.252 -4.01539 2.65179 0
M  V30 7503 C 690.604 -4.11853 3.19415 0
M  V30 7504 C 687.932 -4.3181 3.97187 0
M  V30 7505 C 690.284 -4.43606 4.50995 0
M  V30 7506 C 688.948 -4.53105 4.90155 0
M  V30 7507 H 688.218 -0.712416 0.203823 0
M  V30 7508 H 690.865 -1.52142 1.16298 0
M  V30 7509 H 689.17 -3.91578 0.131844 0
M  V30 7510 H 690.867 -3.97634 0.51847 0
M  V30 7511 H 687.457 -3.81999 1.94358 0
M  V30 7512 H 691.641 -4.0258 2.90246 0
M  V30 7513 H 686.897 -4.37371 4.2722 0
M  V30 7514 H 691.071 -4.59268 5.23494 0
M  V30 7515 H 688.698 -4.76315 5.92476 0
M  V30 7516 N 690.273 -0.685099 -1.4193 0
M  V30 7517 C 691.52 -0.211658 -2.01391 0
M  V30 7518 C 691.848 1.18526 -1.54214 0
M  V30 7519 O 691.103 1.81189 -0.739519 0
M  V30 7520 C 691.402 -0.206154 -3.56805 0
M  V30 7521 C 691.068 -1.54915 -4.23453 0
M  V30 7522 C 689.73 -1.91684 -4.41373 0
M  V30 7523 C 692.082 -2.43317 -4.60919 0
M  V30 7524 C 689.41 -3.16461 -4.94034 0
M  V30 7525 C 691.762 -3.67415 -5.14965 0
M  V30 7526 C 690.426 -4.04341 -5.31098 0
M  V30 7527 H 689.696 -0.0774511 -0.736941 0
M  V30 7528 H 692.343 -0.882121 -1.69973 0
M  V30 7529 H 690.648 0.547841 -3.87951 0
M  V30 7530 H 692.345 0.17753 -4.00607 0
M  V30 7531 H 688.935 -1.25314 -4.09871 0
M  V30 7532 H 693.119 -2.16192 -4.46738 0
M  V30 7533 H 688.375 -3.45078 -5.04709 0
M  V30 7534 H 692.549 -4.3611 -5.42938 0
M  V30 7535 H 690.176 -5.01101 -5.71666 0
M  V30 7536 N 691.751 1.51645 -0.429126 0
M  V30 7537 C 693.028 1.94579 0.199614 0
M  V30 7538 C 693.408 1.3673 1.60836 0
M  V30 7539 O 692.756 0.551062 2.21756 0
M  V30 7540 C 692.966 3.48506 0.185685 0
M  V30 7541 C 694.314 4.22756 0.395282 0
M  V30 7542 O 695.338 3.55219 0.264165 0
M  V30 7543 O 694.197 5.42555 0.655475 0
M  V30 7544 H 691.291 0.816007 0.134393 0
M  V30 7545 H 693.837 1.62577 -0.486513 0
M  V30 7546 H 692.609 3.83045 -0.799508 0
M  V30 7547 H 692.232 3.86927 0.91507 0
M  V30 7548 N 693.229 0.160201 1.56784 0
M  V30 7549 C 694.192 -0.760405 2.16219 0
M  V30 7550 C 695.192 -1.16595 1.10735 0
M  V30 7551 O 696.382 -1.08472 1.36306 0
M  V30 7552 C 693.514 -2.03358 2.73603 0
M  V30 7553 H 694.707 -0.243173 2.98912 0
M  V30 7554 H 692.26 -0.0893139 1.56045 0
M  V30 7555 H 692.995 -2.59416 1.94612 0
M  V30 7556 H 692.78 -1.75186 3.50788 0
M  V30 7557 H 694.27 -2.69081 3.19351 0
M  V30 7558 N 694.707 -1.5719 -0.113559 0
M  V30 7559 C 695.637 -2.03772 -1.14013 0
M  V30 7560 C 696.618 -0.923176 -1.42869 0
M  V30 7561 O 697.803 -1.19325 -1.53216 0
M  V30 7562 C 694.933 -2.44663 -2.4649 0
M  V30 7563 C 693.887 -3.59612 -2.32085 0
M  V30 7564 C 693.213 -3.8642 -3.69573 0
M  V30 7565 C 694.513 -4.91149 -1.7768 0
M  V30 7566 H 696.207 -2.89785 -0.752665 0
M  V30 7567 H 693.753 -1.39412 -0.360609 0
M  V30 7568 H 695.706 -2.75857 -3.18561 0
M  V30 7569 H 694.43 -1.55628 -2.87137 0
M  V30 7570 H 693.089 -3.28636 -1.62461 0
M  V30 7571 H 692.737 -2.94581 -4.07715 0
M  V30 7572 H 692.437 -4.63797 -3.60786 0
M  V30 7573 H 693.961 -4.2007 -4.4314 0
M  V30 7574 H 695.375 -5.20843 -2.39574 0
M  V30 7575 H 693.772 -5.72562 -1.79701 0
M  V30 7576 H 694.842 -4.79301 -0.734776 0
M  V30 7577 N 696.185 0.383891 -1.52853 0
M  V30 7578 C 697.462 1.14296 -1.58732 0
M  V30 7579 C 697.842 2.07585 -0.383611 0
M  V30 7580 O 697.19 2.1971 0.627661 0
M  V30 7581 C 697.4 1.89816 -2.92867 0
M  V30 7582 C 698.748 2.44998 -3.46787 0
M  V30 7583 O 699.772 1.99966 -2.94774 0
M  V30 7584 O 698.631 3.2727 -4.37672 0
M  V30 7585 H 695.725 0.52326 -0.640413 0
M  V30 7586 H 698.271 0.388631 -1.6519 0
M  V30 7587 H 697.043 1.21626 -3.71918 0
M  V30 7588 H 696.666 2.72199 -2.89816 0
M  V30 7589 N 697.663 1.43903 0.642637 0
M  V30 7590 C 698.61 1.49881 1.75512 0
M  V30 7591 C 699.58 0.347538 1.62423 0
M  V30 7592 O 700.765 0.556177 1.82514 0
M  V30 7593 C 697.905 1.43797 3.13714 0
M  V30 7594 C 697.018 2.6921 3.37861 0
M  V30 7595 C 696.153 2.5504 4.6597 0
M  V30 7596 C 695.192 3.75671 4.83257 0
M  V30 7597 N 694.329 3.60247 6.02633 0
M  V30 7598 H 699.169 2.44935 1.69737 0
M  V30 7599 H 696.706 1.21572 0.828165 0
M  V30 7600 H 698.664 1.38262 3.93624 0
M  V30 7601 H 697.294 0.523173 3.18532 0
M  V30 7602 H 696.346 2.8498 2.51973 0
M  V30 7603 H 697.658 3.58786 3.46517 0
M  V30 7604 H 696.812 2.47273 5.54023 0
M  V30 7605 H 695.551 1.63006 4.59653 0
M  V30 7606 H 694.556 3.83836 3.93637 0
M  V30 7607 H 695.781 4.68728 4.91397 0
M  V30 7608 H 693.727 2.70955 5.97427 0
M  V30 7609 H 693.644 4.43431 6.12295 0
M  V30 7610 H 694.912 3.56351 6.93278 0
M  V30 7611 N 699.141 -0.881989 1.30609 0
M  V30 7612 C 700.104 -1.96957 1.1722 0
M  V30 7613 C 701.104 -1.60472 0.102598 0
M  V30 7614 O 702.294 -1.70628 0.350943 0
M  V30 7615 C 699.426 -3.31463 0.796572 0
M  V30 7616 H 700.619 -2.10262 2.13846 0
M  V30 7617 H 698.172 -1.06877 1.14048 0
M  V30 7618 H 698.907 -3.23859 -0.169053 0
M  V30 7619 H 698.692 -3.59314 1.56959 0
M  V30 7620 H 700.182 -4.11233 0.72645 0
M  V30 7621 N 700.619 -1.13374 -1.09472 0
M  V30 7622 C 701.896 -0.806329 -1.78207 0
M  V30 7623 C 702.276 0.702191 -1.99079 0
M  V30 7624 O 701.624 1.63931 -1.59182 0
M  V30 7625 C 701.834 -1.59271 -3.10538 0
M  V30 7626 C 703.182 -1.78509 -3.85253 0
M  V30 7627 O 704.206 -1.55866 -3.20288 0
M  V30 7628 O 703.065 -2.16287 -5.01879 0
M  V30 7629 H 700.159 -0.29435 -0.772843 0
M  V30 7630 H 702.705 -1.23833 -1.16033 0
M  V30 7631 H 701.477 -2.61792 -2.90828 0
M  V30 7632 H 701.1 -1.15562 -3.80436 0
M  V30 7633 N 702.098 1.27442 -0.927168 0
M  V30 7634 C 703.008 2.30599 -0.431448 0
M  V30 7635 C 704.024 1.67028 0.48761 0
M  V30 7636 O 705.2 1.97962 0.370546 0
M  V30 7637 C 702.265 3.45327 0.308292 0
M  V30 7638 C 701.326 4.24418 -0.645615 0
M  V30 7639 C 700.559 5.33667 0.0589164 0
M  V30 7640 O 700.782 5.5589 1.27838 0
M  V30 7641 O 699.716 5.98774 -0.612638 0
M  V30 7642 H 703.542 2.75036 -1.28797 0
M  V30 7643 H 701.127 1.32382 -0.692495 0
M  V30 7644 H 703.009 4.15107 0.725555 0
M  V30 7645 H 701.684 3.02945 1.14043 0
M  V30 7646 H 700.591 3.57174 -1.11255 0
M  V30 7647 H 701.924 4.70512 -1.44496 0
M  V30 7648 N 703.576 0.692616 1.41565 0
M  V30 7649 C 704.804 0.231279 2.05603 0
M  V30 7650 C 705.219 -1.11837 1.52111 0
M  V30 7651 O 704.576 -1.6983 0.66813 0
M  V30 7652 C 704.627 0.177125 3.61066 0
M  V30 7653 O 704.348 1.47346 4.12578 0
M  V30 7654 C 705.849 -0.30556 4.42246 0
M  V30 7655 H 703.069 0.108238 0.662213 0
M  V30 7656 H 705.613 0.944369 1.81389 0
M  V30 7657 H 703.768 -0.486769 3.8433 0
M  V30 7658 H 704.182 1.35861 5.06599 0
M  V30 7659 H 705.656 -0.29233 5.51225 0
M  V30 7660 H 706.133 -1.34393 4.18133 0
M  V30 7661 H 706.739 0.327229 4.24039 0
M  V30 7662 N 705.054 -1.51416 0.437162 0
M  V30 7663 C 705.986 -2.255 -0.410171 0
M  V30 7664 C 706.999 -1.29511 -0.986444 0
M  V30 7665 O 708.188 -1.55266 -0.880614 0
M  V30 7666 C 705.288 -2.99511 -1.58575 0
M  V30 7667 C 704.461 -4.22595 -1.12839 0
M  V30 7668 C 703.52 -4.79187 -2.17407 0
M  V30 7669 O 702.546 -5.4103 -1.76849 0
M  V30 7670 N 703.748 -4.63204 -3.49889 0
M  V30 7671 H 706.513 -2.98856 0.224783 0
M  V30 7672 H 704.074 -1.59699 0.266041 0
M  V30 7673 H 706.066 -3.34258 -2.28152 0
M  V30 7674 H 704.636 -2.29167 -2.12606 0
M  V30 7675 H 703.856 -3.93344 -0.259695 0
M  V30 7676 H 705.144 -5.02468 -0.800196 0
M  V30 7677 H 704.542 -4.13945 -3.85573 0
M  V30 7678 H 703.099 -5.02313 -4.15361 0
M  V30 7679 N 706.532 -0.168513 -1.56696 0
M  V30 7680 C 707.948 0.187686 -1.58493 0
M  V30 7681 C 708.148 1.63063 -1.18375 0
M  V30 7682 O 707.204 2.36142 -0.894042 0
M  V30 7683 C 708.517 -0.0905858 -3.00564 0
M  V30 7684 C 710.065 -0.028575 -3.12987 0
M  V30 7685 C 710.54 -0.279799 -4.57145 0
M  V30 7686 N 712.031 -0.227476 -4.62641 0
M  V30 7687 C 712.766 -0.396073 -5.7203 0
M  V30 7688 N 712.262 -0.623572 -6.89988 0
M  V30 7689 N 714.055 -0.332173 -5.61118 0
M  V30 7690 H 706.206 -1.11042 -1.81062 0
M  V30 7691 H 708.469 -0.441235 -0.839056 0
M  V30 7692 H 708.175 -1.09006 -3.34381 0
M  V30 7693 H 708.049 0.619078 -3.72085 0
M  V30 7694 H 710.436 0.961471 -2.78998 0
M  V30 7695 H 710.517 -0.770905 -2.43907 0
M  V30 7696 H 710.161 -1.26704 -4.91842 0
M  V30 7697 H 710.091 0.48311 -5.24379 0
M  V30 7698 H 712.582 -0.0571723 -3.77857 0
M  V30 7699 H 712.895 -0.741745 -7.69232 0
M  V30 7700 H 711.24 -0.660153 -6.91858 0
M  V30 7701 H 714.431 -0.155051 -4.67843 0
M  V30 7702 H 714.604 -0.466994 -6.46315 0
M  V30 7703 N 708.01 1.57248 0.105221 0
M  V30 7704 C 709.287 1.76566 0.841647 0
M  V30 7705 C 709.667 0.747566 1.9742 0
M  V30 7706 O 709.015 -0.225886 2.27381 0
M  V30 7707 C 709.225 3.22016 1.3456 0
M  V30 7708 C 710.573 3.84911 1.79244 0
M  V30 7709 O 711.597 3.25703 1.44207 0
M  V30 7710 O 710.456 4.89008 2.43995 0
M  V30 7711 H 707.55 0.723443 0.400698 0
M  V30 7712 H 710.096 1.69472 0.0878893 0
M  V30 7713 H 708.868 3.87644 0.533685 0
M  V30 7714 H 708.491 3.33703 2.16167 0
M  V30 7715 N 709.488 -0.375779 1.53054 0
M  V30 7716 C 710.435 -1.45978 1.78771 0
M  V30 7717 C 711.405 -1.53625 0.631552 0
M  V30 7718 O 712.59 -1.69674 0.872667 0
M  V30 7719 C 709.73 -2.8305 1.97425 0
M  V30 7720 C 708.843 -2.84451 3.25134 0
M  V30 7721 C 707.978 -4.13034 3.34031 0
M  V30 7722 C 707.017 -4.08536 4.55812 0
M  V30 7723 N 706.154 -5.2875 4.61918 0
M  V30 7724 H 710.994 -1.23349 2.71273 0
M  V30 7725 H 708.531 -0.598147 1.3439 0
M  V30 7726 H 710.489 -3.62666 2.06225 0
M  V30 7727 H 709.119 -3.04101 1.0827 0
M  V30 7728 H 708.171 -1.97127 3.25338 0
M  V30 7729 H 709.483 -2.76998 4.14818 0
M  V30 7730 H 708.637 -5.0106 3.42087 0
M  V30 7731 H 707.376 -4.23226 2.42345 0
M  V30 7732 H 706.381 -3.18897 4.47867 0
M  V30 7733 H 707.606 -3.99955 5.48828 0
M  V30 7734 H 705.552 -5.39547 3.73129 0
M  V30 7735 H 705.469 -5.23426 5.45492 0
M  V30 7736 H 706.737 -6.18637 4.74245 0
M  V30 7737 N 710.966 -1.44241 -0.634997 0
M  V30 7738 C 712.214 -1.46531 -1.39187 0
M  V30 7739 C 712.535 -0.0976441 -1.94755 0
M  V30 7740 O 711.805 0.869528 -1.75545 0
M  V30 7741 H 710.385 -0.539544 -0.516625 0
M  V30 7742 H 713.047 -1.79989 -0.747655 0
M  V30 7743 H 712.143 -2.18848 -2.22513 0
M  V30 7744 N 712.444 0.87505 -1.31075 0
M  V30 7745 C 713.376 1.98773 -1.14114 0
M  V30 7746 C 714.389 1.62595 -0.0816119 0
M  V30 7747 O 715.578 1.75449 -0.32861 0
M  V30 7748 C 712.678 3.31159 -0.720224 0
M  V30 7749 C 711.851 3.9571 -1.86366 0
M  V30 7750 C 710.91 5.06407 -1.42965 0
M  V30 7751 O 709.936 5.27501 -2.13848 0
M  V30 7752 N 711.138 5.79649 -0.314194 0
M  V30 7753 H 713.903 2.1387 -2.09951 0
M  V30 7754 H 711.464 1.04873 -1.23342 0
M  V30 7755 H 713.456 4.0259 -0.412687 0
M  V30 7756 H 712.026 3.12257 0.146396 0
M  V30 7757 H 711.246 3.17324 -2.33879 0
M  V30 7758 H 712.534 4.35576 -2.62966 0
M  V30 7759 H 711.932 5.65025 0.276228 0
M  V30 7760 H 710.489 6.51766 -0.0661641 0
M  V30 7761 N 713.922 1.13953 1.08869 0
M  V30 7762 C 715.147 0.928559 1.85452 0
M  V30 7763 C 715.572 -0.517642 1.80837 0
M  V30 7764 O 714.93 -1.36779 1.19001 0
M  V30 7765 C 714.978 1.42814 3.31114 0
M  V30 7766 O 714.082 0.617129 4.07756 0
M  V30 7767 H 713.423 0.33235 0.574839 0
M  V30 7768 H 715.953 1.5156 1.37443 0
M  V30 7769 H 715.963 1.43425 3.8196 0
M  V30 7770 H 714.638 2.48109 3.33788 0
M  V30 7771 H 713.215 0.679365 3.66659 0
M  V30 7772 N 715.4 -1.26948 0.933913 0
M  V30 7773 C 716.333 -2.24977 0.382169 0
M  V30 7774 C 717.311 -1.53893 -0.524949 0
M  V30 7775 O 718.495 -1.82699 -0.464048 0
M  V30 7776 C 715.622 -3.35676 -0.451615 0
M  V30 7777 C 714.668 -4.24686 0.392947 0
M  V30 7778 S 715.501 -5.03898 1.81237 0
M  V30 7779 C 716.657 -6.18078 0.986443 0
M  V30 7780 H 716.89 -2.71429 1.21299 0
M  V30 7781 H 714.423 -1.35701 0.736523 0
M  V30 7782 H 716.381 -3.99901 -0.926797 0
M  V30 7783 H 715.042 -2.8785 -1.25703 0
M  V30 7784 H 714.235 -5.03402 -0.245533 0
M  V30 7785 H 713.837 -3.65288 0.802537 0
M  V30 7786 H 716.129 -6.77125 0.225321 0
M  V30 7787 H 717.072 -6.86216 1.74682 0
M  V30 7788 H 717.48 -5.62047 0.525711 0
M  V30 7789 N 716.879 -0.700114 -1.41195 0
M  V30 7790 C 718.126 -0.233006 -2.01155 0
M  V30 7791 C 718.454 1.16883 -1.55462 0
M  V30 7792 O 717.709 1.80395 -0.758695 0
M  V30 7793 C 718.008 -0.243986 -3.56566 0
M  V30 7794 C 717.674 -1.59397 -4.21786 0
M  V30 7795 C 716.336 -1.96355 -4.39316 0
M  V30 7796 C 718.688 -2.48192 -4.58312 0
M  V30 7797 C 716.016 -3.21683 -4.9065 0
M  V30 7798 C 718.368 -3.72857 -5.11039 0
M  V30 7799 C 717.032 -4.09951 -5.26779 0
M  V30 7800 H 716.302 -0.085263 -0.736078 0
M  V30 7801 H 718.949 -0.9001 -1.69028 0
M  V30 7802 H 717.254 0.506663 -3.8851 0
M  V30 7803 H 718.951 0.135031 -4.00773 0
M  V30 7804 H 715.541 -1.29654 -4.08519 0
M  V30 7805 H 719.725 -2.20918 -4.4442 0
M  V30 7806 H 714.981 -3.50412 -5.01021 0
M  V30 7807 H 719.155 -4.41844 -5.38282 0
M  V30 7808 H 716.782 -5.07136 -5.66319 0
M  V30 7809 N 718.357 1.51182 -0.445186 0
M  V30 7810 C 719.768 1.86693 0.0160999 0
M  V30 7811 C 720.119 1.36183 1.4124 0
M  V30 7812 O 719.244 0.715895 2.04215 0
M  V30 7813 C 719.839 3.38781 0.0359918 0
M  V30 7814 C 718.398 3.73799 0.441715 0
M  V30 7815 C 717.545 2.74947 -0.360511 0
M  V30 7816 H 720.496 1.44294 -0.660674 0
M  V30 7817 H 720.517 3.71026 0.843813 0
M  V30 7818 H 720.029 3.75513 -0.980378 0
M  V30 7819 H 718.13 3.42659 1.4634 0
M  V30 7820 H 718.243 4.78829 0.16106 0
M  V30 7821 H 716.607 2.54047 0.182269 0
M  V30 7822 H 717.39 3.14521 -1.3759 0
M  V30 7823 N 719.835 0.176821 1.56605 0
M  V30 7824 C 721.081 -0.467406 1.9734 0
M  V30 7825 C 721.414 -1.62523 1.06301 0
M  V30 7826 O 720.689 -1.94182 0.11125 0
M  V30 7827 C 720.972 -0.945106 3.47476 0
M  V30 7828 C 720.825 0.213273 4.49294 0
M  V30 7829 C 722.144 -1.8169 4.00845 0
M  V30 7830 H 719.263 -0.168426 0.717497 0
M  V30 7831 H 721.905 0.264065 1.88156 0
M  V30 7832 H 720.055 -1.56841 3.55434 0
M  V30 7833 H 721.727 0.850508 4.53392 0
M  V30 7834 H 719.97 0.867918 4.25029 0
M  V30 7835 H 720.641 -0.163187 5.51759 0
M  V30 7836 H 723.117 -1.29139 3.95553 0
M  V30 7837 H 721.993 -2.12015 5.06301 0
M  V30 7838 H 722.254 -2.76463 3.44994 0
M  V30 7839 N 721.313 -1.57302 -0.09688 0
M  V30 7840 C 722.243 -2.0497 -1.11846 0
M  V30 7841 C 723.224 -0.938278 -1.41882 0
M  V30 7842 O 724.409 -1.20943 -1.51942 0
M  V30 7843 C 721.539 -2.47264 -2.43881 0
M  V30 7844 C 720.493 -3.62053 -2.28257 0
M  V30 7845 C 719.819 -3.90318 -3.65453 0
M  V30 7846 C 721.119 -4.93005 -1.72461 0
M  V30 7847 H 722.813 -2.90567 -0.721888 0
M  V30 7848 H 720.359 -1.39786 -0.345803 0
M  V30 7849 H 722.312 -2.7922 -3.15617 0
M  V30 7850 H 721.036 -1.58664 -2.8547 0
M  V30 7851 H 719.695 -3.30341 -1.58967 0
M  V30 7852 H 719.343 -2.98889 -4.04567 0
M  V30 7853 H 719.043 -4.67597 -3.55846 0
M  V30 7854 H 720.567 -4.24747 -4.3866 0
M  V30 7855 H 721.981 -5.23354 -2.34036 0
M  V30 7856 H 720.378 -5.74436 -1.73618 0
M  V30 7857 H 721.448 -4.80053 -0.683898 0
M  V30 7858 N 722.791 0.367657 -1.53252 0
M  V30 7859 C 724.016 1.13566 -1.73544 0
M  V30 7860 C 724.441 1.82329 -0.462344 0
M  V30 7861 O 723.799 1.71655 0.583472 0
M  V30 7862 C 723.847 2.14322 -2.89997 0
M  V30 7863 O 722.951 3.21359 -2.58461 0
M  V30 7864 H 722.292 0.329614 -0.576412 0
M  V30 7865 H 724.822 0.425417 -2.00128 0
M  V30 7866 H 724.832 2.57958 -3.16104 0
M  V30 7867 H 723.507 1.63664 -3.82344 0
M  V30 7868 H 722.084 2.8271 -2.43165 0
M  V30 7869 N 724.269 1.44576 0.627338 0
M  V30 7870 C 725.517 1.47267 1.38408 0
M  V30 7871 C 725.838 0.107971 1.94701 0
M  V30 7872 O 725.108 -0.860206 1.76004 0
M  V30 7873 H 723.688 0.542276 0.513756 0
M  V30 7874 H 726.35 1.80383 0.738099 0
M  V30 7875 H 725.446 2.20025 2.21349 0
M  V30 7876 N 725.747 -0.868086 1.31537 0
M  V30 7877 C 727.024 -1.60384 1.11965 0
M  V30 7878 C 727.404 -2.08584 -0.324949 0
M  V30 7879 O 726.752 -1.86561 -1.31937 0
M  V30 7880 C 726.962 -2.76038 2.13551 0
M  V30 7881 C 728.31 -3.45954 2.46173 0
M  V30 7882 O 729.334 -2.86247 2.11993 0
M  V30 7883 O 728.193 -4.53666 3.04711 0
M  V30 7884 H 725.287 -0.705705 0.431172 0
M  V30 7885 H 727.833 -0.913385 1.43022 0
M  V30 7886 H 726.605 -2.37849 3.10714 0
M  V30 7887 H 726.228 -3.52769 1.83411 0
M  V30 7888 N 727.225 -1.14528 -1.08264 0
M  V30 7889 C 728.472 -0.914405 -1.80679 0
M  V30 7890 C 728.8 0.558952 -1.86295 0
M  V30 7891 O 728.055 1.43017 -1.33584 0
M  V30 7892 C 728.354 -1.46226 -3.26117 0
M  V30 7893 C 728.02 -2.95451 -3.40616 0
M  V30 7894 C 726.682 -3.36191 -3.4428 0
M  V30 7895 C 729.034 -3.91399 -3.44175 0
M  V30 7896 C 726.362 -4.71539 -3.49096 0
M  V30 7897 C 728.714 -5.26606 -3.50526 0
M  V30 7898 C 727.378 -5.66856 -3.52464 0
M  V30 7899 H 726.648 -0.334604 -0.661151 0
M  V30 7900 H 729.295 -1.4292 -1.27461 0
M  V30 7901 H 727.6 -0.868442 -3.82054 0
M  V30 7902 H 729.297 -1.25955 -3.80705 0
M  V30 7903 H 725.887 -2.62955 -3.38456 0
M  V30 7904 H 730.071 -3.61004 -3.40573 0
M  V30 7905 H 725.327 -5.02082 -3.4889 0
M  V30 7906 H 729.501 -6.00758 -3.52225 0
M  V30 7907 H 727.128 -6.71718 -3.55948 0
M  V30 7908 N 728.703 1.26451 -0.940633 0
M  V30 7909 C 729.95 1.93778 -0.587909 0
M  V30 7910 C 730.278 1.73811 0.872935 0
M  V30 7911 O 729.533 1.06816 1.63978 0
M  V30 7912 C 729.832 3.46503 -0.875794 0
M  V30 7913 C 729.498 3.86609 -2.32043 0
M  V30 7914 C 728.16 3.97269 -2.71534 0
M  V30 7915 C 730.512 4.0672 -3.25927 0
M  V30 7916 C 727.84 4.25436 -4.04006 0
M  V30 7917 C 730.192 4.36375 -4.57995 0
M  V30 7918 C 728.856 4.45249 -4.97302 0
M  V30 7919 H 728.126 0.709084 -0.215131 0
M  V30 7920 H 730.773 1.50272 -1.18704 0
M  V30 7921 H 729.078 3.91319 -0.194124 0
M  V30 7922 H 730.775 3.96759 -0.581665 0
M  V30 7923 H 727.365 3.78858 -2.00411 0
M  V30 7924 H 731.549 3.97912 -2.96614 0
M  V30 7925 H 726.805 4.30519 -4.34124 0
M  V30 7926 H 730.979 4.50882 -5.30734 0
M  V30 7927 H 728.606 4.66829 -5.99979 0
M  V30 7928 N 730.181 0.707592 1.40822 0
M  V30 7929 C 731.409 0.253073 2.05346 0
M  V30 7930 C 731.824 -1.10218 1.53289 0
M  V30 7931 O 731.181 -1.69112 0.686105 0
M  V30 7932 C 731.232 0.215411 3.60858 0
M  V30 7933 O 730.953 1.51714 4.10992 0
M  V30 7934 C 732.454 -0.258636 4.42545 0
M  V30 7935 H 729.674 0.115256 0.661027 0
M  V30 7936 H 732.218 0.963555 1.80377 0
M  V30 7937 H 730.373 -0.445978 3.84824 0
M  V30 7938 H 730.787 1.41226 5.05129 0
M  V30 7939 H 732.261 -0.233849 5.51504 0
M  V30 7940 H 732.738 -1.2995 4.19535 0
M  V30 7941 H 733.344 0.372186 4.23668 0
M  V30 7942 N 731.66 -1.50943 0.453197 0
M  V30 7943 C 732.89 -2.06328 -0.105981 0
M  V30 7944 C 733.298 -1.31909 -1.35634 0
M  V30 7945 O 732.641 -0.376607 -1.79798 0
M  V30 7946 C 732.703 -3.5631 -0.477868 0
M  V30 7947 C 732.367 -4.52093 0.667925 0
M  V30 7948 C 733.364 -4.96421 1.54475 0
M  V30 7949 C 731.049 -4.95001 0.853168 0
M  V30 7950 C 733.043 -5.82346 2.59138 0
M  V30 7951 C 730.73 -5.80713 1.90305 0
M  V30 7952 C 731.728 -6.24284 2.77053 0
M  V30 7953 O 731.416 -7.08291 3.80236 0
M  V30 7954 H 731.148 -0.675986 -0.00427247 0
M  V30 7955 H 733.702 -1.95314 0.635738 0
M  V30 7956 H 731.932 -3.65163 -1.27252 0
M  V30 7957 H 733.621 -3.94138 -0.970039 0
M  V30 7958 H 734.387 -4.63953 1.41324 0
M  V30 7959 H 730.266 -4.60619 0.187482 0
M  V30 7960 H 733.81 -6.16276 3.2688 0
M  V30 7961 H 729.707 -6.12593 2.03469 0
M  V30 7962 H 730.475 -7.26504 3.77007 0
M  V30 7963 N 733.138 -0.185124 -1.56509 0
M  V30 7964 C 734.101 0.72591 -2.17401 0
M  V30 7965 C 735.101 1.14819 -1.12575 0
M  V30 7966 O 736.291 1.0629 -1.38015 0
M  V30 7967 C 733.423 1.98979 -2.76803 0
M  V30 7968 H 734.616 0.195588 -2.99262 0
M  V30 7969 H 732.169 0.0644772 -1.56167 0
M  V30 7970 H 732.904 2.56287 -1.98714 0
M  V30 7971 H 732.689 1.69583 -3.53531 0
M  V30 7972 H 734.179 2.63966 -3.23592 0
M  V30 7973 N 734.616 1.57351 0.0885366 0
M  V30 7974 C 735.893 1.77449 0.822873 0
M  V30 7975 C 736.273 0.768463 1.96616 0
M  V30 7976 O 735.621 -0.201757 2.27608 0
M  V30 7977 C 735.831 3.23425 1.31137 0
M  V30 7978 C 737.179 3.86791 1.75152 0
M  V30 7979 O 738.203 3.27215 1.40745 0
M  V30 7980 O 737.062 4.91568 2.38794 0
M  V30 7981 H 734.156 0.727653 0.393002 0
M  V30 7982 H 736.702 1.69556 0.0699095 0
M  V30 7983 H 735.474 3.88188 0.49254 0
M  V30 7984 H 735.097 3.35977 2.12615 0
M  V30 7985 N 736.094 -0.359525 1.53444 0
M  V30 7986 C 737.51 -0.701599 1.43352 0
M  V30 7987 C 737.71 -1.93049 0.577439 0
M  V30 7988 O 736.766 -2.52423 0.0622224 0
M  V30 7989 C 738.079 -0.90915 2.86627 0
M  V30 7990 C 739.627 -1.00878 2.96298 0
M  V30 7991 C 740.102 -1.24876 4.40647 0
M  V30 7992 N 741.593 -1.31632 4.44103 0
M  V30 7993 C 742.328 -1.51922 5.52908 0
M  V30 7994 N 741.824 -1.69489 6.71748 0
M  V30 7995 N 743.617 -1.54341 5.40496 0
M  V30 7996 H 735.768 0.448685 2.07607 0
M  V30 7997 H 738.031 0.138713 0.937797 0
M  V30 7998 H 737.737 -0.0778997 3.51614 0
M  V30 7999 H 737.611 -1.81551 3.30634 0
M  V30 8000 H 739.998 -1.83057 2.31461 0
M  V30 8001 H 740.079 -0.0796721 2.55676 0
M  V30 8002 H 739.723 -0.431961 5.0606 0
M  V30 8003 H 739.653 -2.19118 4.78848 0
M  V30 8004 H 742.144 -1.19646 3.5846 0
M  V30 8005 H 742.457 -1.84561 7.50438 0
M  V30 8006 H 740.802 -1.66655 6.74723 0
M  V30 8007 H 743.993 -1.40188 4.46615 0
M  V30 8008 H 744.166 -1.69812 6.25354 0
M  V30 8009 N 737.572 -1.44907 -0.619662 0
M  V30 8010 C 738.849 -1.38766 -1.37852 0
M  V30 8011 C 739.229 -0.0521393 -2.11036 0
M  V30 8012 O 738.577 0.965613 -2.07095 0
M  V30 8013 C 738.787 -2.59344 -2.33541 0
M  V30 8014 C 740.135 -3.03909 -2.96521 0
M  V30 8015 O 741.159 -2.59631 -2.43865 0
M  V30 8016 O 740.018 -3.80713 -3.92071 0
M  V30 8017 H 737.112 -0.550083 -0.617525 0
M  V30 8018 H 739.658 -1.57015 -0.643759 0
M  V30 8019 H 738.43 -3.48142 -1.78642 0
M  V30 8020 H 738.053 -2.43367 -3.14417 0
M  V30 8021 N 739.05 0.861098 -1.31996 0
M  V30 8022 C 740.327 1.59788 -1.12814 0
M  V30 8023 C 740.707 2.08753 0.313882 0
M  V30 8024 O 740.055 1.87258 1.30946 0
M  V30 8025 C 740.265 2.74901 -2.15012 0
M  V30 8026 C 741.613 3.44643 -2.48004 0
M  V30 8027 O 742.637 2.85119 -2.13508 0
M  V30 8028 O 741.496 4.52044 -3.07113 0
M  V30 8029 H 738.59 0.703408 -0.434909 0
M  V30 8030 H 741.136 0.905788 -1.43505 0
M  V30 8031 H 739.908 2.36198 -3.11971 0
M  V30 8032 H 739.531 3.51792 -1.85279 0
M  V30 8033 N 740.528 1.15101 1.07655 0
M  V30 8034 C 741.478 0.813448 2.12995 0
M  V30 8035 C 742.462 -0.200899 1.59641 0
M  V30 8036 O 743.654 -0.00209918 1.77 0
M  V30 8037 C 740.783 0.301078 3.41977 0
M  V30 8038 C 739.869 1.3454 4.02194 0
M  V30 8039 N 740.26 2.55181 4.36711 0
M  V30 8040 C 738.558 1.19742 4.29625 0
M  V30 8041 C 739.259 3.22094 4.84387 0
M  V30 8042 N 738.235 2.49486 4.82968 0
M  V30 8043 H 742.037 1.73105 2.37511 0
M  V30 8044 H 739.551 1.03601 1.25063 0
M  V30 8045 H 741.548 0.040914 4.1688 0
M  V30 8046 H 740.208 -0.610629 3.18907 0
M  V30 8047 H 741.219 2.92349 4.27496 0
M  V30 8048 H 737.896 0.345353 4.16069 0
M  V30 8049 H 739.286 4.24996 5.20411 0
M  V30 8050 N 742.006 -1.2595 0.947325 0
M  V30 8051 C 743.236 -1.97258 0.614235 0
M  V30 8052 C 743.644 -1.70682 -0.816355 0
M  V30 8053 O 742.987 -0.97527 -1.55673 0
M  V30 8054 C 743.049 -3.50845 0.784081 0
M  V30 8055 C 742.713 -4.01084 2.19045 0
M  V30 8056 C 743.71 -4.12347 3.16648 0
M  V30 8057 C 741.395 -4.34936 2.51268 0
M  V30 8058 C 743.389 -4.56766 4.44572 0
M  V30 8059 C 741.076 -4.79043 3.79422 0
M  V30 8060 C 742.074 -4.89919 4.75887 0
M  V30 8061 O 741.762 -5.3305 6.01758 0
M  V30 8062 H 741.494 -0.635738 0.22981 0
M  V30 8063 H 744.048 -1.61268 1.27207 0
M  V30 8064 H 742.278 -3.86638 0.069101 0
M  V30 8065 H 743.967 -4.03363 0.453135 0
M  V30 8066 H 744.733 -3.86432 2.93079 0
M  V30 8067 H 740.612 -4.25702 1.76916 0
M  V30 8068 H 744.156 -4.6517 5.19868 0
M  V30 8069 H 740.053 -5.04402 4.02802 0
M  V30 8070 H 740.821 -5.51255 6.05029 0
M  V30 8071 N 743.484 -0.715051 -1.40445 0
M  V30 8072 C 744.73 -0.263528 -2.01686 0
M  V30 8073 C 745.085 1.13052 -1.55683 0
M  V30 8074 O 744.378 1.75588 -0.766762 0
M  V30 8075 C 744.572 -0.281791 -3.56287 0
M  V30 8076 C 744.401 -1.67607 -4.17298 0
M  V30 8077 C 743.171 -2.2836 -4.50755 0
M  V30 8078 C 745.369 -2.62621 -4.42193 0
M  V30 8079 N 743.351 -3.6015 -4.97157 0
M  V30 8080 C 744.722 -3.79116 -4.90582 0
M  V30 8081 C 746.777 -2.60639 -4.24231 0
M  V30 8082 C 745.48 -4.93937 -5.22895 0
M  V30 8083 C 747.506 -3.74587 -4.57644 0
M  V30 8084 C 746.868 -4.89815 -5.06222 0
M  V30 8085 H 742.967 -0.142252 -0.768953 0
M  V30 8086 H 745.551 -0.936732 -1.70685 0
M  V30 8087 H 743.722 0.360975 -3.86719 0
M  V30 8088 H 745.454 0.186393 -4.04271 0
M  V30 8089 H 742.209 -1.80463 -4.3787 0
M  V30 8090 H 742.633 -4.27757 -5.24741 0
M  V30 8091 H 747.275 -1.72759 -3.85894 0
M  V30 8092 H 744.993 -5.82462 -5.60146 0
M  V30 8093 H 748.579 -3.74328 -4.45387 0
M  V30 8094 H 747.459 -5.76525 -5.3159 0
M  V30 8095 N 744.962 1.50701 -0.461195 0
M  V30 8096 C 746.187 2.07171 0.0974773 0
M  V30 8097 C 746.612 1.32391 1.3362 0
M  V30 8098 O 745.97 0.368676 1.77512 0
M  V30 8099 C 746.018 3.58651 0.374409 0
M  V30 8100 O 745.122 3.85816 1.4567 0
M  V30 8101 H 744.463 0.663944 -0.00862047 0
M  V30 8102 H 746.993 1.94021 -0.649394 0
M  V30 8103 H 747.003 4.03295 0.617843 0
M  V30 8104 H 745.678 4.12498 -0.530829 0
M  V30 8105 H 744.255 3.53018 1.20136 0
M  V30 8106 N 746.441 0.193421 1.56409 0
M  V30 8107 C 747.689 -0.444908 1.97142 0
M  V30 8108 C 748.01 -1.62268 1.08139 0
M  V30 8109 O 747.28 -1.95307 0.152326 0
M  V30 8110 H 745.86 -0.16736 0.728011 0
M  V30 8111 H 748.522 0.279763 1.92882 0
M  V30 8112 H 747.618 -0.790159 3.01932 0
M  V30 8113 N 747.919 -1.57396 -0.0801906 0
M  V30 8114 C 749.149 -1.90778 -0.792924 0
M  V30 8115 C 749.557 -0.786814 -1.72064 0
M  V30 8116 O 748.9 0.249259 -1.82001 0
M  V30 8117 C 748.962 -3.19552 -1.64702 0
M  V30 8118 C 748.626 -4.48259 -0.889567 0
M  V30 8119 C 749.623 -5.19465 -0.212602 0
M  V30 8120 C 747.308 -4.94896 -0.859229 0
M  V30 8121 C 749.302 -6.35555 0.484566 0
M  V30 8122 C 746.989 -6.10895 -0.158284 0
M  V30 8123 C 747.987 -6.81075 0.512421 0
M  V30 8124 O 747.675 -7.94862 1.20209 0
M  V30 8125 H 747.407 -0.63527 -0.231103 0
M  V30 8126 H 749.961 -2.0532 -0.0573081 0
M  V30 8127 H 748.191 -3.01196 -2.42524 0
M  V30 8128 H 749.88 -3.38649 -2.23767 0
M  V30 8129 H 750.646 -4.84467 -0.227403 0
M  V30 8130 H 746.525 -4.4015 -1.37073 0
M  V30 8131 H 750.069 -6.9027 1.00864 0
M  V30 8132 H 745.966 -6.45345 -0.141381 0
M  V30 8133 H 746.734 -8.10932 1.11051 0
M  V30 8134 N 749.397 0.351382 -1.53633 0
M  V30 8135 C 750.644 1.0925 -1.70502 0
M  V30 8136 C 750.972 1.88881 -0.464123 0
M  V30 8137 O 750.227 1.87693 0.554077 0
M  V30 8138 C 750.526 2.06744 -2.91533 0
M  V30 8139 C 750.192 1.43484 -4.27461 0
M  V30 8140 C 748.854 1.2596 -4.64422 0
M  V30 8141 C 751.206 0.978436 -5.11934 0
M  V30 8142 C 748.534 0.614017 -5.83478 0
M  V30 8143 C 750.886 0.346795 -6.31649 0
M  V30 8144 C 749.55 0.15917 -6.6731 0
M  V30 8145 H 748.82 0.399773 -0.623909 0
M  V30 8146 H 751.467 0.372656 -1.87839 0
M  V30 8147 H 749.772 2.85082 -2.68767 0
M  V30 8148 H 751.469 2.64066 -3.01778 0
M  V30 8149 H 748.059 1.5812 -3.98367 0
M  V30 8150 H 752.243 1.1017 -4.83918 0
M  V30 8151 H 747.499 0.457194 -6.09688 0
M  V30 8152 H 751.673 -0.0149864 -6.96398 0
M  V30 8153 H 749.3 -0.343129 -7.59425 0
M  V30 8154 N 750.875 1.45233 0.611969 0
M  V30 8155 C 752.103 1.52539 1.39784 0
M  V30 8156 C 752.518 0.156533 1.8815 0
M  V30 8157 O 751.875 -0.84112 1.61961 0
M  V30 8158 C 751.926 2.50614 2.60528 0
M  V30 8159 O 751.647 3.8218 2.14173 0
M  V30 8160 C 753.148 2.67574 3.53439 0
M  V30 8161 H 750.368 0.51674 0.428043 0
M  V30 8162 H 752.912 1.90379 0.746727 0
M  V30 8163 H 751.067 2.15858 3.2169 0
M  V30 8164 H 751.481 4.35305 2.92592 0
M  V30 8165 H 752.955 3.40184 4.34717 0
M  V30 8166 H 753.432 1.73458 4.03496 0
M  V30 8167 H 754.038 3.0331 2.98133 0
M  V30 8168 N 752.353 -0.854086 1.3245 0
M  V30 8169 C 753.578 -1.64597 1.26185 0
M  V30 8170 C 754.003 -1.87357 -0.167074 0
M  V30 8171 O 753.361 -1.42675 -1.11864 0
M  V30 8172 C 753.409 -2.98213 2.02734 0
M  V30 8173 O 752.513 -3.88784 1.37554 0
M  V30 8174 H 751.854 -0.50179 0.434859 0
M  V30 8175 H 754.384 -1.06372 1.74775 0
M  V30 8176 H 754.394 -3.4803 2.1293 0
M  V30 8177 H 753.069 -2.80969 3.06642 0
M  V30 8178 H 751.646 -3.4725 1.3591 0
M  V30 8179 N 753.831 -1.1567 -1.07043 0
M  V30 8180 C 755.247 -0.900006 -1.31803 0
M  V30 8181 C 755.447 0.451293 -1.96381 0
M  V30 8182 O 754.503 1.19252 -2.22565 0
M  V30 8183 C 755.816 -2.04334 -2.20609 0
M  V30 8184 C 757.364 -2.07823 -2.34048 0
M  V30 8185 C 757.839 -3.21488 -3.26204 0
M  V30 8186 N 759.33 -3.21156 -3.33786 0
M  V30 8187 C 760.065 -4.05746 -4.05163 0
M  V30 8188 N 759.561 -5.00407 -4.79129 0
M  V30 8189 N 761.354 -3.93759 -4.01136 0
M  V30 8190 H 753.505 -2.02681 -0.635146 0
M  V30 8191 H 755.768 -0.883956 -0.342528 0
M  V30 8192 H 755.474 -3.01895 -1.80423 0
M  V30 8193 H 755.348 -1.97838 -3.21154 0
M  V30 8194 H 757.735 -1.1086 -2.73485 0
M  V30 8195 H 757.816 -2.18386 -1.33197 0
M  V30 8196 H 757.46 -4.18706 -2.87485 0
M  V30 8197 H 757.39 -3.08162 -4.27017 0
M  V30 8198 H 759.881 -2.52606 -2.81067 0
M  V30 8199 H 760.194 -5.61387 -5.31097 0
M  V30 8200 H 758.539 -5.04393 -4.78135 0
M  V30 8201 H 761.73 -3.19115 -3.42466 0
M  V30 8202 H 761.903 -4.59906 -4.56498 0
M  V30 8203 N 755.309 1.25446 -0.953992 0
M  V30 8204 C 756.72 1.75047 -0.649255 0
M  V30 8205 C 757.071 1.77527 0.835385 0
M  V30 8206 O 756.196 1.39569 1.65377 0
M  V30 8207 C 756.791 3.17889 -1.17183 0
M  V30 8208 C 755.35 3.65052 -0.917267 0
M  V30 8209 C 754.497 2.44124 -1.31525 0
M  V30 8210 H 757.448 1.11342 -1.13087 0
M  V30 8211 H 757.469 3.76768 -0.531616 0
M  V30 8212 H 756.981 3.16052 -2.25239 0
M  V30 8213 H 755.082 3.72305 0.148354 0
M  V30 8214 H 755.195 4.53222 -1.55328 0
M  V30 8215 H 753.559 2.43906 -0.733624 0
M  V30 8216 H 754.342 2.44979 -2.405 0
M  V30 8217 N 756.787 0.722489 1.40064 0
M  V30 8218 C 758.034 0.264979 2.00759 0
M  V30 8219 C 758.362 -1.14395 1.57302 0
M  V30 8220 O 757.617 -1.79165 0.787298 0
M  V30 8221 C 757.916 0.300682 3.56133 0
M  V30 8222 C 757.582 1.66087 4.19197 0
M  V30 8223 C 756.244 2.03319 4.36136 0
M  V30 8224 C 758.596 2.55452 4.54306 0
M  V30 8225 C 755.924 3.29448 4.8547 0
M  V30 8226 C 758.276 3.8094 5.05042 0
M  V30 8227 C 756.94 4.1828 5.2019 0
M  V30 8228 H 756.21 0.0969625 0.734629 0
M  V30 8229 H 758.857 0.926877 1.67575 0
M  V30 8230 H 757.162 -0.44479 3.89267 0
M  V30 8231 H 758.859 -0.0712542 4.00937 0
M  V30 8232 H 755.449 1.36137 4.06405 0
M  V30 8233 H 759.633 2.27961 4.40849 0
M  V30 8234 H 754.889 3.58338 4.95382 0
M  V30 8235 H 759.063 4.50351 5.31184 0
M  V30 8236 H 756.69 5.16081 5.58179 0
M  V30 8237 N 758.265 -1.50454 0.469181 0
M  V30 8238 C 759.495 -2.06429 -0.0840913 0
M  V30 8239 C 759.903 -1.3334 -1.34227 0
M  V30 8240 O 759.246 -0.395656 -1.79389 0
M  V30 8241 C 759.308 -3.56797 -0.440049 0
M  V30 8242 C 758.972 -4.51359 0.715838 0
M  V30 8243 C 759.969 -4.94754 1.59732 0
M  V30 8244 C 757.654 -4.94069 0.905621 0
M  V30 8245 C 759.648 -5.79564 2.653 0
M  V30 8246 C 757.335 -5.78662 1.96453 0
M  V30 8247 C 758.333 -6.21311 2.83658 0
M  V30 8248 O 758.021 -7.04218 3.87727 0
M  V30 8249 H 757.753 -0.675994 0.00289751 0
M  V30 8250 H 760.307 -1.94629 0.656417 0
M  V30 8251 H 758.537 -3.66492 -1.23372 0
M  V30 8252 H 760.226 -3.95145 -0.928181 0
M  V30 8253 H 760.992 -4.62428 1.46237 0
M  V30 8254 H 756.871 -4.60394 0.236326 0
M  V30 8255 H 760.415 -6.12774 3.33398 0
M  V30 8256 H 756.312 -6.10401 2.09955 0
M  V30 8257 H 757.08 -7.22464 3.84692 0
M  V30 8258 N 759.743 -0.201713 -1.56304 0
M  V30 8259 C 760.69 0.716499 -2.19397 0
M  V30 8260 C 761.66 1.20494 -1.14326 0
M  V30 8261 O 762.845 1.26763 -1.42604 0
M  V30 8262 C 759.985 1.92762 -2.86246 0
M  V30 8263 C 759.098 1.47993 -4.0586 0
M  V30 8264 C 758.233 2.64706 -4.60547 0
M  V30 8265 C 757.272 2.16576 -5.72504 0
M  V30 8266 N 756.409 3.26491 -6.21569 0
M  V30 8267 H 761.249 0.171724 -2.97505 0
M  V30 8268 H 758.786 0.073016 -1.46919 0
M  V30 8269 H 760.744 2.6384 -3.23178 0
M  V30 8270 H 759.374 2.44559 -2.10691 0
M  V30 8271 H 758.426 0.66477 -3.74546 0
M  V30 8272 H 759.738 1.08686 -4.86815 0
M  V30 8273 H 758.892 3.43898 -4.99819 0
M  V30 8274 H 757.631 3.0729 -3.78713 0
M  V30 8275 H 756.636 1.3584 -5.32755 0
M  V30 8276 H 757.861 1.75015 -6.56161 0
M  V30 8277 H 755.807 3.68594 -5.42655 0
M  V30 8278 H 755.724 2.91374 -6.97594 0
M  V30 8279 H 756.992 4.05877 -6.65495 0
M  V30 8280 N 761.222 1.57436 0.0718424 0
M  V30 8281 C 762.638 1.53792 0.426628 0
M  V30 8282 C 762.838 0.921887 1.79174 0
M  V30 8283 O 761.894 0.524374 2.46995 0
M  V30 8284 C 763.207 2.98443 0.367739 0
M  V30 8285 C 764.755 3.09778 0.447928 0
M  V30 8286 C 765.23 4.5608 0.418946 0
M  V30 8287 N 766.721 4.60716 0.479022 0
M  V30 8288 C 767.456 5.71397 0.47881 0
M  V30 8289 N 766.952 6.91443 0.433417 0
M  V30 8290 N 768.745 5.59639 0.525364 0
M  V30 8291 H 760.896 1.95848 -0.822033 0
M  V30 8292 H 763.159 0.896418 -0.308447 0
M  V30 8293 H 762.865 3.47072 -0.56865 0
M  V30 8294 H 762.739 3.58335 1.17795 0
M  V30 8295 H 765.126 2.61122 1.37474 0
M  V30 8296 H 765.207 2.52796 -0.390857 0
M  V30 8297 H 764.851 5.05393 -0.504016 0
M  V30 8298 H 764.781 5.10925 1.27526 0
M  V30 8299 H 767.272 3.74328 0.518355 0
M  V30 8300 H 767.585 7.71562 0.43718 0
M  V30 8301 H 765.93 6.93847 0.400106 0
M  V30 8302 H 769.121 4.64756 0.558519 0
M  V30 8303 H 769.294 6.45896 0.52173 0
M  V30 8304 N 762.7 -0.34323 1.53817 0
M  V30 8305 C 763.633 -1.44472 1.76644 0
M  V30 8306 C 764.611 -1.50498 0.615556 0
M  V30 8307 O 765.795 -1.6821 0.850751 0
M  V30 8308 C 762.922 -2.82705 1.86536 0
M  V30 8309 C 761.968 -2.94302 3.08688 0
M  V30 8310 S 762.801 -2.60739 4.67735 0
M  V30 8311 C 763.957 -4.01079 4.80506 0
M  V30 8312 H 764.19 -1.24893 2.69794 0
M  V30 8313 H 761.723 -0.538915 1.4469 0
M  V30 8314 H 763.681 -3.62342 1.92921 0
M  V30 8315 H 762.342 -2.9958 0.943975 0
M  V30 8316 H 761.535 -3.95593 3.12286 0
M  V30 8317 H 761.137 -2.22614 3.00531 0
M  V30 8318 H 763.429 -4.95603 4.61935 0
M  V30 8319 H 764.372 -4.02475 5.82597 0
M  V30 8320 H 764.78 -3.89119 4.08958 0
M  V30 8321 N 764.178 -1.45556 -0.604258 0
M  V30 8322 C 765.455 -1.40221 -1.36373 0
M  V30 8323 C 765.835 -0.0745195 -2.10968 0
M  V30 8324 O 765.183 0.943594 -2.08107 0
M  V30 8325 C 765.393 -2.61807 -2.30777 0
M  V30 8326 C 766.741 -3.07037 -2.93281 0
M  V30 8327 O 767.765 -2.62203 -2.41097 0
M  V30 8328 O 766.624 -3.8485 -3.88011 0
M  V30 8329 H 763.718 -0.556602 -0.611656 0
M  V30 8330 H 766.264 -1.57689 -0.627069 0
M  V30 8331 H 765.036 -3.50017 -1.74939 0
M  V30 8332 H 764.659 -2.46688 -3.11818 0
M  V30 8333 N 765.656 0.84705 -1.32902 0
M  V30 8334 C 767.072 1.13645 -1.12058 0
M  V30 8335 C 767.272 2.01281 0.093937 0
M  V30 8336 O 766.328 2.4026 0.776608 0
M  V30 8337 C 767.641 1.80644 -2.40392 0
M  V30 8338 C 769.189 1.93246 -2.46221 0
M  V30 8339 C 769.664 2.6366 -3.74496 0
M  V30 8340 N 771.155 2.71179 -3.75521 0
M  V30 8341 C 771.89 3.26332 -4.71482 0
M  V30 8342 N 771.386 3.82236 -5.77813 0
M  V30 8343 N 773.179 3.24507 -4.58968 0
M  V30 8344 H 765.33 0.263612 -2.10758 0
M  V30 8345 H 767.593 0.17944 -0.930863 0
M  V30 8346 H 767.299 1.23708 -3.29225 0
M  V30 8347 H 767.173 2.80736 -2.51926 0
M  V30 8348 H 769.56 2.49338 -1.57843 0
M  V30 8349 H 769.641 0.921272 -2.38634 0
M  V30 8350 H 769.285 2.08229 -4.63253 0
M  V30 8351 H 769.215 3.65234 -3.79357 0
M  V30 8352 H 771.706 2.31527 -2.9867 0
M  V30 8353 H 772.019 4.22499 -6.47082 0
M  V30 8354 H 770.364 3.80546 -5.81558 0
M  V30 8355 H 773.555 2.80085 -3.7506 0
M  V30 8356 H 773.728 3.67188 -5.33926 0
M  V30 8357 N 767.134 1.16236 1.06428 0
M  V30 8358 C 768.383 0.937523 1.78587 0
M  V30 8359 C 768.696 -0.536 1.88113 0
M  V30 8360 O 769.902 -0.878697 2.56887 0
M  V30 8361 C 768.358 1.62808 3.2097 0
M  V30 8362 C 767.966 3.13927 3.19615 0
M  V30 8363 C 769.71 1.48515 3.97673 0
M  V30 8364 C 767.617 3.75727 4.56709 0
M  V30 8365 H 766.547 0.347125 0.669343 0
M  V30 8366 H 769.198 1.39353 1.19385 0
M  V30 8367 H 767.58 1.09977 3.80422 0
M  V30 8368 H 768.754 3.7359 2.69753 0
M  V30 8369 H 767.069 3.28089 2.56411 0
M  V30 8370 H 769.666 1.92069 4.99013 0
M  V30 8371 H 770.009 0.433913 4.14032 0
M  V30 8372 H 770.542 1.98494 3.44739 0
M  V30 8373 H 767.281 4.80793 4.45554 0
M  V30 8374 H 766.801 3.20849 5.0677 0
M  V30 8375 H 768.48 3.77203 5.25668 0
M  V30 8376 N 768.612 -1.24939 0.960631 0
M  V30 8377 C 769.545 -2.24116 0.429804 0
M  V30 8378 C 770.523 -1.54972 -0.492188 0
M  V30 8379 O 771.707 -1.83642 -0.42519 0
M  V30 8380 C 768.834 -3.36558 -0.380312 0
M  V30 8381 C 767.88 -4.23757 0.482941 0
M  V30 8382 S 768.713 -4.9994 1.91885 0
M  V30 8383 C 769.869 -6.15846 1.11732 0
M  V30 8384 H 770.102 -2.68795 1.27029 0
M  V30 8385 H 767.635 -1.34108 0.765141 0
M  V30 8386 H 769.593 -4.01777 -0.841764 0
M  V30 8387 H 768.254 -2.90451 -1.19569 0
M  V30 8388 H 767.447 -5.03809 -0.138699 0
M  V30 8389 H 767.049 -3.63504 0.879839 0
M  V30 8390 H 769.341 -6.76495 0.368898 0
M  V30 8391 H 770.284 -6.82356 1.89198 0
M  V30 8392 H 770.692 -5.60805 0.644812 0
M  V30 8393 N 770.09 -0.729906 -1.39679 0
M  V30 8394 C 771 -0.0880322 -2.34435 0
M  V30 8395 C 772.016 0.727674 -1.58053 0
M  V30 8396 O 773.192 0.657321 -1.90371 0
M  V30 8397 C 770.257 0.812211 -3.37052 0
M  V30 8398 C 769.318 -0.0151681 -4.29297 0
M  V30 8399 C 768.551 0.842202 -5.27013 0
M  V30 8400 O 768.774 2.08108 -5.31081 0
M  V30 8401 O 767.708 0.27357 -6.01278 0
M  V30 8402 H 771.534 -0.869989 -2.90972 0
M  V30 8403 H 769.119 -0.490522 -1.41118 0
M  V30 8404 H 771.001 1.32745 -3.99946 0
M  V30 8405 H 769.676 1.57307 -2.82907 0
M  V30 8406 H 768.583 -0.575811 -3.69642 0
M  V30 8407 H 769.916 -0.738129 -4.86634 0
M  V30 8408 N 771.568 1.50203 -0.477153 0
M  V30 8409 C 772.793 2.07263 0.0754986 0
M  V30 8410 C 773.218 1.33801 1.32208 0
M  V30 8411 O 772.576 0.387482 1.77111 0
M  V30 8412 C 772.624 3.59028 0.336348 0
M  V30 8413 O 771.728 3.87339 1.4157 0
M  V30 8414 H 771.069 0.663815 -0.015662 0
M  V30 8415 H 773.599 1.93321 -0.669936 0
M  V30 8416 H 773.609 4.03927 0.575034 0
M  V30 8417 H 772.284 4.11912 -0.574551 0
M  V30 8418 H 770.861 3.54272 1.16385 0
M  V30 8419 N 773.046 0.209999 1.56195 0
M  V30 8420 C 773.996 -0.717978 2.164 0
M  V30 8421 C 774.98 -1.16577 1.10899 0
M  V30 8422 O 776.172 -1.12169 1.3692 0
M  V30 8423 C 773.301 -1.93091 2.8385 0
M  V30 8424 C 772.387 -1.50333 3.96561 0
M  V30 8425 N 772.778 -0.787621 4.9963 0
M  V30 8426 C 771.076 -1.79151 4.08437 0
M  V30 8427 C 771.777 -0.571204 5.78889 0
M  V30 8428 N 770.753 -1.12444 5.31843 0
M  V30 8429 H 774.555 -0.162603 2.9345 0
M  V30 8430 H 772.069 0.0107928 1.62396 0
M  V30 8431 H 774.066 -2.60635 3.25384 0
M  V30 8432 H 772.726 -2.49087 2.08293 0
M  V30 8433 H 773.737 -0.441513 5.16015 0
M  V30 8434 H 770.414 -2.36549 3.44022 0
M  V30 8435 H 771.804 -0.00237941 6.719 0
M  V30 8436 N 774.524 -1.57472 -0.0634922 0
M  V30 8437 C 775.454 -2.07297 -1.07473 0
M  V30 8438 C 776.435 -0.968162 -1.39859 0
M  V30 8439 O 777.62 -1.24139 -1.49343 0
M  V30 8440 C 774.75 -2.52381 -2.38581 0
M  V30 8441 C 773.704 -3.66813 -2.20526 0
M  V30 8442 C 773.03 -3.97982 -3.57092 0
M  V30 8443 C 774.33 -4.96553 -1.61965 0
M  V30 8444 H 776.024 -2.92033 -0.660092 0
M  V30 8445 H 773.57 -1.40488 -0.316074 0
M  V30 8446 H 775.523 -2.85852 -3.09624 0
M  V30 8447 H 774.247 -1.64684 -2.8204 0
M  V30 8448 H 772.906 -3.33639 -1.51924 0
M  V30 8449 H 772.554 -3.07403 -3.98136 0
M  V30 8450 H 772.254 -4.7504 -3.45848 0
M  V30 8451 H 773.778 -4.33956 -4.29552 0
M  V30 8452 H 775.192 -5.28201 -2.22883 0
M  V30 8453 H 773.589 -5.7799 -1.61394 0
M  V30 8454 H 774.659 -4.81396 -0.581918 0
M  V30 8455 N 776.003 0.335068 -1.53997 0
M  V30 8456 C 777.419 0.678704 -1.4445 0
M  V30 8457 C 777.619 1.92106 -0.608078 0
M  V30 8458 O 776.675 2.52292 -0.102373 0
M  V30 8459 C 777.988 0.863435 -2.88037 0
M  V30 8460 C 779.536 0.961513 -2.97866 0
M  V30 8461 C 780.011 1.1785 -4.42578 0
M  V30 8462 N 781.502 1.2455 -4.46141 0
M  V30 8463 C 782.237 1.43106 -5.55255 0
M  V30 8464 N 781.733 1.5878 -6.74359 0
M  V30 8465 N 783.526 1.45722 -5.42883 0
M  V30 8466 H 775.677 -0.481656 -2.06867 0
M  V30 8467 H 777.94 -0.153615 -0.935471 0
M  V30 8468 H 777.646 0.0219511 -3.51693 0
M  V30 8469 H 777.52 1.76268 -3.33481 0
M  V30 8470 H 779.907 1.79351 -2.34344 0
M  V30 8471 H 779.988 0.0389862 -2.5577 0
M  V30 8472 H 779.632 0.351397 -5.06683 0
M  V30 8473 H 779.562 2.11472 -4.82273 0
M  V30 8474 H 782.053 1.13928 -3.60318 0
M  V30 8475 H 782.366 1.72599 -7.53279 0
M  V30 8476 H 780.711 1.559 -6.77289 0
M  V30 8477 H 783.902 1.33065 -4.48789 0
M  V30 8478 H 784.075 1.59841 -6.27977 0
M  V30 8479 N 777.481 1.45874 0.596531 0
M  V30 8480 C 778.444 1.54988 1.68853 0
M  V30 8481 C 779.444 0.428302 1.54991 0
M  V30 8482 O 780.634 0.692158 1.59859 0
M  V30 8483 C 777.766 1.457 3.08195 0
M  V30 8484 H 778.959 2.52294 1.62135 0
M  V30 8485 H 776.512 1.33479 0.813206 0
M  V30 8486 H 777.247 0.496204 3.20481 0
M  V30 8487 H 777.032 2.27061 3.19665 0
M  V30 8488 H 778.522 1.55133 3.87716 0
M  V30 8489 N 778.959 -0.83999 1.33349 0
M  V30 8490 C 779.922 -1.93128 1.23426 0
M  V30 8491 C 780.922 -1.60065 0.153599 0
M  V30 8492 O 782.112 -1.69425 0.405049 0
M  V30 8493 C 779.244 -3.28761 0.901622 0
M  V30 8494 H 780.437 -2.03352 2.20427 0
M  V30 8495 H 777.99 -1.03194 1.17391 0
M  V30 8496 H 778.725 -3.24233 -0.0659337 0
M  V30 8497 H 778.51 -3.54138 1.68311 0
M  V30 8498 H 780 -4.08714 0.856913 0
M  V30 8499 N 780.437 -1.16799 -1.0581 0
M  V30 8500 C 781.347 -0.893492 -2.16919 0
M  V30 8501 C 782.363 0.136061 -1.73467 0
M  V30 8502 O 783.539 -0.0417348 -2.01357 0
M  V30 8503 C 780.604 -0.403763 -3.44341 0
M  V30 8504 C 779.665 -1.49914 -4.02274 0
M  V30 8505 C 778.898 -1.03269 -5.23614 0
M  V30 8506 O 779.121 0.115647 -5.70283 0
M  V30 8507 O 778.055 -1.8231 -5.73626 0
M  V30 8508 H 781.881 -1.82274 -2.42919 0
M  V30 8509 H 779.466 -0.948361 -1.1544 0
M  V30 8510 H 781.348 -0.137874 -4.21174 0
M  V30 8511 H 780.023 0.497413 -3.19855 0
M  V30 8512 H 778.93 -1.81883 -3.26909 0
M  V30 8513 H 780.263 -2.3758 -4.31064 0
M  V30 8514 N 781.915 1.24427 -0.967243 0
M  V30 8515 C 783.164 1.91789 -0.624478 0
M  V30 8516 C 783.477 1.76448 0.844129 0
M  V30 8517 O 784.683 2.38495 1.2974 0
M  V30 8518 C 783.139 3.43743 -1.06626 0
M  V30 8519 C 782.747 3.67771 -2.55829 0
M  V30 8520 C 784.491 4.16958 -0.79662 0
M  V30 8521 C 782.398 5.13293 -2.93742 0
M  V30 8522 H 781.328 0.71811 -0.229856 0
M  V30 8523 H 783.979 1.41081 -1.17339 0
M  V30 8524 H 782.361 3.93484 -0.445663 0
M  V30 8525 H 783.535 3.28631 -3.23015 0
M  V30 8526 H 781.85 3.07841 -2.80398 0
M  V30 8527 H 784.447 5.24171 -1.05589 0
M  V30 8528 H 784.79 4.15442 0.267163 0
M  V30 8529 H 785.323 3.73164 -1.37816 0
M  V30 8530 H 782.062 5.19931 -3.9919 0
M  V30 8531 H 781.582 5.53433 -2.3124 0
M  V30 8532 H 783.261 5.81521 -2.83623 0
M  V30 8533 N 783.393 0.737304 1.3929 0
M  V30 8534 C 784.323 0.113988 2.33222 0
M  V30 8535 C 785.304 -0.721695 1.54031 0
M  V30 8536 O 786.489 -0.666206 1.82415 0
M  V30 8537 C 783.619 -0.792319 3.38141 0
M  V30 8538 C 782.573 -0.0606178 4.27957 0
M  V30 8539 C 781.899 -1.08409 5.23595 0
M  V30 8540 C 783.199 1.09817 5.10625 0
M  V30 8541 H 784.893 0.898611 2.85596 0
M  V30 8542 H 782.439 0.433571 1.37318 0
M  V30 8543 H 784.392 -1.23793 4.02807 0
M  V30 8544 H 783.116 -1.60908 2.84211 0
M  V30 8545 H 781.775 0.365393 3.64775 0
M  V30 8546 H 781.423 -1.89449 4.6596 0
M  V30 8547 H 781.123 -0.599269 5.84536 0
M  V30 8548 H 782.647 -1.52936 5.91137 0
M  V30 8549 H 784.061 0.730892 5.68622 0
M  V30 8550 H 782.458 1.51278 5.80719 0
M  V30 8551 H 783.528 1.91878 4.45321 0
M  V30 8552 N 784.871 -1.49948 0.485112 0
M  V30 8553 C 786.101 -2.06506 -0.0621921 0
M  V30 8554 C 786.509 -1.34756 -1.32806 0
M  V30 8555 O 785.852 -0.41466 -1.78959 0
M  V30 8556 C 785.914 -3.57243 -0.402182 0
M  V30 8557 C 785.578 -4.50574 0.763671 0
M  V30 8558 C 786.575 -4.93032 1.6497 0
M  V30 8559 C 784.26 -4.9308 0.957973 0
M  V30 8560 C 786.254 -5.76718 2.71432 0
M  V30 8561 C 783.941 -5.76546 2.0258 0
M  V30 8562 C 784.939 -6.18267 2.90232 0
M  V30 8563 O 784.627 -7.00066 3.95174 0
M  V30 8564 H 784.359 -0.675925 0.0100672 0
M  V30 8565 H 786.913 -1.93922 0.677023 0
M  V30 8566 H 785.143 -3.6778 -1.19478 0
M  V30 8567 H 786.832 -3.96107 -0.886219 0
M  V30 8568 H 787.598 -4.60851 1.51134 0
M  V30 8569 H 783.477 -4.60117 0.285144 0
M  V30 8570 H 787.021 -6.09203 3.39878 0
M  V30 8571 H 782.918 -6.0814 2.16417 0
M  V30 8572 H 783.686 -7.18343 3.92333 0
M  V30 8573 N 786.349 -0.21828 -1.56081 0
M  V30 8574 C 787.579 0.41865 -2.02314 0
M  V30 8575 C 787.987 1.54124 -1.09739 0
M  V30 8576 O 787.33 1.83435 -0.0986829 0
M  V30 8577 C 787.392 1.01439 -3.44892 0
M  V30 8578 C 787.056 0.0276523 -4.56992 0
M  V30 8579 C 788.053 -0.771526 -5.14143 0
M  V30 8580 C 785.738 -0.0901537 -5.02219 0
M  V30 8581 C 787.732 -1.67525 -6.14991 0
M  V30 8582 C 785.419 -0.997411 -6.02905 0
M  V30 8583 C 786.417 -1.78851 -6.59167 0
M  V30 8584 O 786.105 -2.68052 -7.57894 0
M  V30 8585 H 785.837 0.107066 -0.667468 0
M  V30 8586 H 788.391 -0.331191 -2.02712 0
M  V30 8587 H 786.621 1.81326 -3.41552 0
M  V30 8588 H 788.31 1.55838 -3.74792 0
M  V30 8589 H 789.076 -0.690945 -4.80053 0
M  V30 8590 H 784.955 0.515474 -4.58109 0
M  V30 8591 H 788.499 -2.29316 -6.58832 0
M  V30 8592 H 784.396 -1.07902 -6.36418 0
M  V30 8593 H 785.164 -2.6209 -7.75404 0
M  V30 8594 N 787.827 1.57504 0.0551401 0
M  V30 8595 C 789.074 1.88055 0.751104 0
M  V30 8596 C 789.402 0.812231 1.76729 0
M  V30 8597 O 788.657 -0.189918 1.94776 0
M  V30 8598 C 788.956 3.25311 1.48013 0
M  V30 8599 C 788.622 4.46858 0.602375 0
M  V30 8600 C 787.284 4.79847 0.360536 0
M  V30 8601 C 789.636 5.212 -0.00524047 0
M  V30 8602 C 786.964 5.84582 -0.498127 0
M  V30 8603 C 789.316 6.26844 -0.851453 0
M  V30 8604 C 787.98 6.58324 -1.103 0
M  V30 8605 H 787.25 0.688142 0.274848 0
M  V30 8606 H 789.897 1.91497 0.0114795 0
M  V30 8607 H 788.202 3.17737 2.29239 0
M  V30 8608 H 789.899 3.46189 2.02371 0
M  V30 8609 H 786.489 4.21049 0.801007 0
M  V30 8610 H 790.673 4.96013 0.168682 0
M  V30 8611 H 785.929 6.07361 -0.701594 0
M  V30 8612 H 790.103 6.83603 -1.32893 0
M  V30 8613 H 787.73 7.39304 -1.77011 0
M  V30 8614 N 789.305 -0.326896 1.54172 0
M  V30 8615 C 790.268 -1.38515 1.8261 0
M  V30 8616 C 791.268 -1.44872 0.697771 0
M  V30 8617 O 792.458 -1.44957 0.966078 0
M  V30 8618 C 789.59 -2.77281 1.98313 0
M  V30 8619 H 790.783 -1.14556 2.77159 0
M  V30 8620 H 788.336 -0.562199 1.45839 0
M  V30 8621 H 789.071 -3.065 1.05964 0
M  V30 8622 H 788.856 -2.74061 2.80416 0
M  V30 8623 H 790.346 -3.53845 2.21773 0
M  V30 8624 N 790.784 -1.46188 -0.588786 0
M  V30 8625 C 791.714 -1.59148 -1.70863 0
M  V30 8626 C 792.695 -0.442083 -1.64255 0
M  V30 8627 O 793.88 -0.667575 -1.82365 0
M  V30 8628 C 791.01 -1.5757 -3.09498 0
M  V30 8629 C 789.964 -2.71418 -3.30932 0
M  V30 8630 C 789.29 -2.549 -4.70032 0
M  V30 8631 C 790.59 -4.1329 -3.19356 0
M  V30 8632 H 792.284 -2.52889 -1.60274 0
M  V30 8633 H 789.83 -1.21707 -0.769638 0
M  V30 8634 H 791.783 -1.65231 -3.87655 0
M  V30 8635 H 790.507 -0.603705 -3.20972 0
M  V30 8636 H 789.166 -2.63216 -2.55172 0
M  V30 8637 H 788.814 -1.55797 -4.78264 0
M  V30 8638 H 788.514 -3.31257 -4.85327 0
M  V30 8639 H 790.038 -2.64443 -5.50366 0
M  V30 8640 H 791.452 -4.22636 -3.87365 0
M  V30 8641 H 789.849 -4.90187 -3.46175 0
M  V30 8642 H 790.919 -4.33874 -2.16522 0
M  V30 8643 N 792.262 0.832906 -1.33792 0
M  V30 8644 C 793.678 1.1245 -1.13257 0
M  V30 8645 C 793.878 2.01369 0.0725832 0
M  V30 8646 O 792.934 2.41071 0.751082 0
M  V30 8647 C 794.247 1.78084 -2.42294 0
M  V30 8648 C 795.795 1.90624 -2.48257 0
M  V30 8649 C 796.27 2.59673 -3.77271 0
M  V30 8650 N 797.761 2.67181 -3.78376 0
M  V30 8651 C 798.496 3.21313 -4.74916 0
M  V30 8652 N 797.992 3.76086 -5.81835 0
M  V30 8653 N 799.785 3.19621 -4.62384 0
M  V30 8654 H 791.936 0.241244 -2.11026 0
M  V30 8655 H 794.199 0.169557 -0.932713 0
M  V30 8656 H 793.905 1.20209 -3.30519 0
M  V30 8657 H 793.779 2.78049 -2.5489 0
M  V30 8658 H 796.166 2.4765 -1.60478 0
M  V30 8659 H 796.247 0.89591 -2.39598 0
M  V30 8660 H 795.891 2.03304 -4.65435 0
M  V30 8661 H 795.821 3.61189 -3.8321 0
M  V30 8662 H 798.312 2.28346 -3.01108 0
M  V30 8663 H 798.625 4.15612 -6.51526 0
M  V30 8664 H 796.97 3.74357 -5.85561 0
M  V30 8665 H 800.161 2.76091 -3.7801 0
M  V30 8666 H 800.334 3.61504 -5.37791 0
M  V30 8667 N 793.74 1.17359 1.05189 0
M  V30 8668 C 794.672 0.848078 2.12933 0
M  V30 8669 C 795.685 -0.149521 1.62112 0
M  V30 8670 O 796.874 0.0767797 1.78335 0
M  V30 8671 C 793.974 0.243889 3.38021 0
M  V30 8672 C 793.147 1.28436 4.18118 0
M  V30 8673 C 792.206 0.697926 5.21551 0
M  V30 8674 O 791.232 1.36973 5.52473 0
M  V30 8675 N 792.434 -0.510024 5.78255 0
M  V30 8676 H 795.199 1.7754 2.41453 0
M  V30 8677 H 792.76 1.07244 1.21286 0
M  V30 8678 H 794.752 -0.161727 4.04377 0
M  V30 8679 H 793.322 -0.58722 3.07035 0
M  V30 8680 H 792.542 1.86573 3.47252 0
M  V30 8681 H 793.83 1.98617 4.68432 0
M  V30 8682 H 793.228 -1.07378 5.55416 0
M  V30 8683 H 791.785 -0.857705 6.46132 0
M  V30 8684 N 795.218 -1.23913 0.973828 0
M  V30 8685 C 796.181 -2.23367 0.51378 0
M  V30 8686 C 797.181 -1.55923 -0.39302 0
M  V30 8687 O 798.371 -1.73187 -0.187626 0
M  V30 8688 C 795.503 -3.39944 -0.255152 0
M  V30 8689 H 796.696 -2.65581 1.39307 0
M  V30 8690 H 794.249 -1.36632 0.759039 0
M  V30 8691 H 794.984 -3.03177 -1.15127 0
M  V30 8692 H 794.769 -3.90098 0.395673 0
M  V30 8693 H 796.259 -4.13749 -0.565842 0
M  V30 8694 N 796.696 -0.74468 -1.38897 0
M  V30 8695 C 797.646 -0.0869375 -2.27834 0
M  V30 8696 C 798.63 0.702553 -1.44751 0
M  V30 8697 O 799.822 0.569972 -1.67572 0
M  V30 8698 C 796.951 0.812232 -3.33553 0
M  V30 8699 C 796.037 0.0163713 -4.24097 0
M  V30 8700 N 796.428 -1.01547 -4.95502 0
M  V30 8701 C 794.726 0.244554 -4.45329 0
M  V30 8702 C 795.427 -1.49622 -5.62128 0
M  V30 8703 N 794.403 -0.813097 -5.37485 0
M  V30 8704 H 798.205 -0.877345 -2.80499 0
M  V30 8705 H 795.719 -0.579898 -1.51694 0
M  V30 8706 H 797.716 1.299 -3.96146 0
M  V30 8707 H 796.376 1.60169 -2.82446 0
M  V30 8708 H 797.387 -1.39707 -4.98701 0
M  V30 8709 H 794.064 1.00806 -4.05147 0
M  V30 8710 H 795.454 -2.35523 -6.29268 0
M  V30 8711 N 798.174 1.49689 -0.493057 0
M  V30 8712 C 799.121 2.28976 0.28959 0
M  V30 8713 C 800.091 1.35011 0.967536 0
M  V30 8714 O 801.276 1.63964 0.975736 0
M  V30 8715 C 798.416 3.1748 1.35279 0
M  V30 8716 C 797.529 4.26496 0.687418 0
M  V30 8717 C 796.664 5.02226 1.73038 0
M  V30 8718 C 795.703 6.03089 1.04645 0
M  V30 8719 N 794.84 6.72014 2.03325 0
M  V30 8720 H 799.68 2.954 -0.392798 0
M  V30 8721 H 797.217 1.45657 -0.205554 0
M  V30 8722 H 799.175 3.67162 1.98111 0
M  V30 8723 H 797.805 2.53057 2.00405 0
M  V30 8724 H 796.857 3.80362 -0.0540001 0
M  V30 8725 H 798.169 4.98578 0.14864 0
M  V30 8726 H 797.323 5.55737 2.43395 0
M  V30 8727 H 796.062 4.29899 2.303 0
M  V30 8728 H 795.067 5.48817 0.328606 0
M  V30 8729 H 796.292 6.77398 0.480428 0
M  V30 8730 H 794.238 6.02464 2.59564 0
M  V30 8731 H 794.155 7.40046 1.54492 0
M  V30 8732 H 795.423 7.30133 2.72995 0
M  V30 8733 N 799.652 0.226554 1.55963 0
M  V30 8734 C 800.882 -0.407915 2.02533 0
M  V30 8735 C 801.29 -1.53539 1.10554 0
M  V30 8736 O 800.633 -1.8338 0.108409 0
M  V30 8737 C 800.695 -0.996081 3.45425 0
M  V30 8738 C 800.359 -0.00341651 4.57 0
M  V30 8739 C 801.356 0.798782 5.13727 0
M  V30 8740 C 799.041 0.116786 5.02164 0
M  V30 8741 C 801.035 1.70784 6.14094 0
M  V30 8742 C 798.722 1.02937 6.02368 0
M  V30 8743 C 799.72 1.82344 6.5821 0
M  V30 8744 O 799.408 2.72067 7.56462 0
M  V30 8745 H 799.14 -0.103524 0.668026 0
M  V30 8746 H 801.694 0.341937 2.02534 0
M  V30 8747 H 799.924 -1.79512 3.42509 0
M  V30 8748 H 801.613 -1.53848 3.75614 0
M  V30 8749 H 802.379 0.716393 4.7968 0
M  V30 8750 H 798.258 -0.491172 4.58376 0
M  V30 8751 H 801.802 2.32807 6.57607 0
M  V30 8752 H 797.699 1.11276 6.35836 0
M  V30 8753 H 798.467 2.66199 7.74003 0
M  V30 8754 N 801.13 -1.57531 -0.0467866 0
M  V30 8755 C 802.077 -2.05387 -1.05285 0
M  V30 8756 C 803.047 -0.939385 -1.36985 0
M  V30 8757 O 804.232 -1.20877 -1.47626 0
M  V30 8758 C 801.372 -2.52343 -2.35408 0
M  V30 8759 C 800.485 -3.77512 -2.10022 0
M  V30 8760 C 799.62 -4.1315 -3.33887 0
M  V30 8761 C 798.659 -5.31286 -3.03976 0
M  V30 8762 N 797.796 -5.62441 -4.20243 0
M  V30 8763 H 802.636 -2.91095 -0.637788 0
M  V30 8764 H 800.173 -1.43939 -0.303322 0
M  V30 8765 H 802.131 -2.77628 -3.11413 0
M  V30 8766 H 800.761 -1.69577 -2.7467 0
M  V30 8767 H 799.813 -3.59417 -1.24594 0
M  V30 8768 H 801.125 -4.63644 -1.83945 0
M  V30 8769 H 800.279 -4.39469 -4.18273 0
M  V30 8770 H 799.018 -3.25634 -3.63062 0
M  V30 8771 H 798.023 -5.04738 -2.17991 0
M  V30 8772 H 799.248 -6.20441 -2.76098 0
M  V30 8773 H 797.194 -4.77885 -4.49402 0
M  V30 8774 H 797.111 -6.43046 -3.97528 0
M  V30 8775 H 798.379 -5.93327 -5.05553 0
M  V30 8776 N 802.608 0.318715 -1.54344 0
M  V30 8777 C 803.857 1.05363 -1.71993 0
M  V30 8778 C 804.17 1.89018 -0.503155 0
M  V30 8779 O 805.376 2.65639 -0.561085 0
M  V30 8780 C 803.832 1.92281 -3.0423 0
M  V30 8781 C 803.44 1.13715 -4.33328 0
M  V30 8782 C 805.184 2.65479 -3.31242 0
M  V30 8783 C 803.091 1.99806 -5.56625 0
M  V30 8784 H 802.021 0.397081 -0.64097 0
M  V30 8785 H 804.672 0.311598 -1.80835 0
M  V30 8786 H 803.054 2.70402 -2.89307 0
M  V30 8787 H 804.228 0.403305 -4.59032 0
M  V30 8788 H 802.543 0.521769 -4.13118 0
M  V30 8789 H 805.14 3.30209 -4.20555 0
M  V30 8790 H 805.483 3.33374 -2.49334 0
M  V30 8791 H 806.016 1.94417 -3.47054 0
M  V30 8792 H 802.755 1.36411 -6.41149 0
M  V30 8793 H 802.275 2.70911 -5.35133 0
M  V30 8794 H 803.954 2.58277 -5.93213 0
M  V30 8795 N 804.086 1.46499 0.581025 0
M  V30 8796 C 805.034 1.57562 1.71105 0
M  V30 8797 C 806.028 0.44403 1.63477 0
M  V30 8798 O 807.234 0.620964 1.6895 0
M  V30 8799 H 803.609 0.495415 0.565746 0
M  V30 8800 H 805.58 2.5257 1.58905 0
M  V30 8801 C 804.329 1.58465 3.0949 0
M  V30 8802 H 803.652 2.44877 3.16031 0
M  V30 8803 H 805.092 1.70261 3.88313 0
M  V30 8804 C 803.551 0.313596 3.35437 0
M  V30 8805 O 804.081 -0.595456 3.97262 0
M  V30 8806 N 802.287 0.200986 2.89904 0
M  V30 8807 H 801.834 0.941643 2.39773 0
M  V30 8808 H 801.792 -0.648577 3.07638 0
M  V30 8809 N 805.565 -0.825799 1.34232 0
M  V30 8810 C 806.512 -1.93651 1.2557 0
M  V30 8811 C 807.482 -1.65578 0.131536 0
M  V30 8812 O 808.667 -1.88231 0.312027 0
M  V30 8813 C 805.807 -3.29862 1.01415 0
M  V30 8814 C 804.92 -3.70247 2.22579 0
M  V30 8815 C 804.055 -4.95392 1.91731 0
M  V30 8816 C 803.094 -5.28349 3.09053 0
M  V30 8817 N 802.231 -6.44671 2.78107 0
M  V30 8818 H 807.071 -2.00392 2.20561 0
M  V30 8819 H 804.608 -0.980441 1.09662 0
M  V30 8820 H 806.566 -4.08356 0.854485 0
M  V30 8821 H 805.196 -3.22642 0.100936 0
M  V30 8822 H 804.248 -2.87169 2.49476 0
M  V30 8823 H 805.56 -3.90575 3.10246 0
M  V30 8824 H 804.714 -5.81665 1.72484 0
M  V30 8825 H 803.453 -4.77059 1.0132 0
M  V30 8826 H 802.458 -4.40574 3.289 0
M  V30 8827 H 803.683 -5.48622 4.00239 0
M  V30 8828 H 801.629 -6.278 1.9027 0
M  V30 8829 H 801.546 -6.65158 3.59306 0
M  V30 8830 H 802.814 -7.34022 2.62358 0
M  V30 8831 N 807.043 -1.17915 -1.04565 0
M  V30 8832 C 808.29 -0.971424 -1.77678 0
M  V30 8833 C 808.618 0.499401 -1.87979 0
M  V30 8834 O 807.873 1.38695 -1.38066 0
M  V30 8835 C 808.172 -1.56528 -3.213 0
M  V30 8836 C 807.838 -3.06138 -3.31044 0
M  V30 8837 C 806.5 -3.46974 -3.33411 0
M  V30 8838 C 808.852 -4.02151 -3.31548 0
M  V30 8839 C 806.18 -4.82406 -3.33918 0
M  V30 8840 C 808.532 -5.37492 -3.33595 0
M  V30 8841 C 807.196 -5.77782 -3.34251 0
M  V30 8842 H 806.466 -0.355469 -0.650171 0
M  V30 8843 H 809.113 -1.46902 -1.22849 0
M  V30 8844 H 807.418 -0.98955 -3.79098 0
M  V30 8845 H 809.115 -1.38003 -3.76505 0
M  V30 8846 H 805.705 -2.73589 -3.29919 0
M  V30 8847 H 809.889 -3.71656 -3.28916 0
M  V30 8848 H 805.145 -5.12927 -3.3274 0
M  V30 8849 H 809.319 -6.1166 -3.32934 0
M  V30 8850 H 806.946 -6.82702 -3.34397 0
M  V30 8851 N 808.521 1.23394 -0.980386 0
M  V30 8852 C 809.451 2.2717 -0.540024 0
M  V30 8853 C 810.432 1.64659 0.426787 0
M  V30 8854 O 811.617 1.91543 0.320153 0
M  V30 8855 C 808.747 3.46939 0.15836 0
M  V30 8856 C 807.701 4.21802 -0.725732 0
M  V30 8857 C 807.027 5.34597 0.104866 0
M  V30 8858 C 808.327 4.81802 -2.01654 0
M  V30 8859 H 810.021 2.64257 -1.40743 0
M  V30 8860 H 807.567 1.2703 -0.678193 0
M  V30 8861 H 809.52 4.18683 0.477737 0
M  V30 8862 H 808.244 3.08912 1.06022 0
M  V30 8863 H 806.903 3.51875 -1.02857 0
M  V30 8864 H 806.551 4.92812 1.00726 0
M  V30 8865 H 806.251 5.85607 -0.483557 0
M  V30 8866 H 807.775 6.09163 0.418624 0
M  V30 8867 H 809.189 5.45554 -1.76193 0
M  V30 8868 H 807.586 5.43098 -2.55273 0
M  V30 8869 H 808.656 4.02549 -2.70338 0
M  V30 8870 N 809.999 0.752036 1.385 0
M  V30 8871 C 811.224 0.316993 2.04963 0
M  V30 8872 C 811.649 -1.04582 1.56346 0
M  V30 8873 O 811.007 -1.66616 0.714755 0
M  V30 8874 C 811.055 0.347235 3.58924 0
M  V30 8875 O 810.159 -0.659296 4.07096 0
M  V30 8876 H 809.5 0.140652 0.648932 0
M  V30 8877 H 812.03 1.02272 1.77205 0
M  V30 8878 H 812.04 0.19757 4.07521 0
M  V30 8879 H 810.715 1.34157 3.93668 0
M  V30 8880 H 809.292 -0.474371 3.6987 0
M  V30 8881 N 811.477 -1.49425 0.500989 0
M  V30 8882 C 812.702 -2.07356 -0.0425154 0
M  V30 8883 C 813.127 -1.35887 -1.30063 0
M  V30 8884 O 812.485 -0.41561 -1.76472 0
M  V30 8885 C 812.533 -3.59518 -0.279188 0
M  V30 8886 O 811.637 -3.89542 -1.3539 0
M  V30 8887 H 810.978 -0.663482 0.0262207 0
M  V30 8888 H 813.508 -1.92231 0.700607 0
M  V30 8889 H 813.518 -4.04791 -0.5107 0
M  V30 8890 H 812.193 -4.10946 0.640009 0
M  V30 8891 H 810.77 -3.56079 -1.10734 0
M  V30 8892 N 812.955 -0.234822 -1.55841 0
M  V30 8893 C 814.18 0.400741 -2.03492 0
M  V30 8894 C 814.605 1.51618 -1.11327 0
M  V30 8895 O 813.963 1.81002 -0.103922 0
M  V30 8896 C 814.011 0.897184 -3.49261 0
M  V30 8897 O 813.115 2.00764 -3.60233 0
M  V30 8898 H 812.456 0.0890023 -0.658008 0
M  V30 8899 H 814.986 -0.357345 -2.01455 0
M  V30 8900 H 814.996 1.20356 -3.89844 0
M  V30 8901 H 813.671 0.0808639 -4.15821 0
M  V30 8902 H 812.248 1.70689 -3.31541 0
M  V30 8903 N 814.433 1.57553 0.0384317 0
M  V30 8904 C 815.363 2.0898 1.04161 0
M  V30 8905 C 816.344 0.99029 1.38301 0
M  V30 8906 O 817.529 1.26499 1.47349 0
M  V30 8907 C 814.659 2.56145 2.34536 0
M  V30 8908 C 813.613 3.70275 2.14663 0
M  V30 8909 C 812.939 4.03612 3.50715 0
M  V30 8910 C 814.239 4.99067 1.54045 0
M  V30 8911 H 815.933 2.93046 0.613548 0
M  V30 8912 H 813.479 1.40973 0.293684 0
M  V30 8913 H 815.432 2.90741 3.05037 0
M  V30 8914 H 814.156 1.6915 2.79385 0
M  V30 8915 H 812.815 3.36013 1.46597 0
M  V30 8916 H 812.463 3.13698 3.93195 0
M  V30 8917 H 812.163 4.80482 3.38247 0
M  V30 8918 H 813.687 4.40735 4.22593 0
M  V30 8919 H 815.101 5.3168 2.14451 0
M  V30 8920 H 813.498 5.80484 1.52178 0
M  V30 8921 H 814.568 4.8226 0.505259 0
M  V30 8922 N 815.911 -0.310526 1.54511 0
M  V30 8923 C 817.141 -1.06456 1.77061 0
M  V30 8924 C 817.549 -1.81755 0.525528 0
M  V30 8925 O 816.892 -1.76365 -0.513904 0
M  V30 8926 C 816.954 -2.09856 2.91892 0
M  V30 8927 C 816.618 -1.53838 4.30329 0
M  V30 8928 C 817.615 -0.973358 5.10707 0
M  V30 8929 C 815.3 -1.57688 4.76906 0
M  V30 8930 C 817.294 -0.454283 6.35779 0
M  V30 8931 C 814.981 -1.05393 6.01943 0
M  V30 8932 C 815.979 -0.493595 6.81214 0
M  V30 8933 O 815.667 0.0214506 8.03897 0
M  V30 8934 H 815.399 -0.321913 0.594431 0
M  V30 8935 H 817.953 -0.358289 2.02251 0
M  V30 8936 H 816.183 -2.84137 2.62304 0
M  V30 8937 H 817.872 -2.71085 3.02106 0
M  V30 8938 H 818.638 -0.936588 4.75871 0
M  V30 8939 H 814.517 -2.00242 4.1524 0
M  V30 8940 H 818.061 -0.0162657 6.97598 0
M  V30 8941 H 813.958 -1.08782 6.36268 0
M  V30 8942 H 814.726 -0.0927478 8.18447 0
M  V30 8943 N 817.389 -1.46805 -0.573248 0
M  V30 8944 C 818.617 -1.56191 -1.3569 0
M  V30 8945 C 819.032 -0.206362 -1.87669 0
M  V30 8946 O 818.389 0.797883 -1.64134 0
M  V30 8947 C 818.44 -2.57433 -2.53792 0
M  V30 8948 O 818.161 -3.87724 -2.03965 0
M  V30 8949 C 819.662 -2.76851 -3.4622 0
M  V30 8950 H 816.882 -0.527907 -0.414192 0
M  V30 8951 H 819.426 -1.92292 -0.695989 0
M  V30 8952 H 817.581 -2.24311 -3.15854 0
M  V30 8953 H 817.995 -4.42909 -2.80948 0
M  V30 8954 H 819.469 -3.5159 -4.25545 0
M  V30 8955 H 819.946 -1.84095 -3.98755 0
M  V30 8956 H 820.552 -3.11107 -2.89987 0
M  V30 8957 N 818.867 0.818669 -1.34668 0
M  V30 8958 C 819.83 1.9114 -1.26483 0
M  V30 8959 C 820.83 1.598 -0.179044 0
M  V30 8960 O 822.02 1.6876 -0.431952 0
M  V30 8961 C 819.152 3.27285 -0.95381 0
M  V30 8962 H 820.345 1.9982 -2.23634 0
M  V30 8963 H 817.898 1.01314 -1.19018 0
M  V30 8964 H 818.633 3.24297 0.0143428 0
M  V30 8965 H 818.418 3.51416 -1.73924 0
M  V30 8966 H 819.908 4.07299 -0.921827 0
M  V30 8967 N 820.346 1.18468 1.03938 0
M  V30 8968 C 821.276 0.936389 2.13902 0
M  V30 8969 C 822.257 -0.126381 1.6963 0
M  V30 8970 O 823.442 0.0264757 1.94182 0
M  V30 8971 C 820.572 0.462729 3.44204 0
M  V30 8972 C 819.526 1.46613 4.02105 0
M  V30 8973 C 818.852 0.84994 5.27902 0
M  V30 8974 C 820.152 2.84323 4.3813 0
M  V30 8975 H 821.846 1.85602 2.3493 0
M  V30 8976 H 819.392 0.893806 1.12903 0
M  V30 8977 H 821.345 0.276382 4.20493 0
M  V30 8978 H 820.069 -0.492477 3.22866 0
M  V30 8979 H 818.728 1.63944 3.27899 0
M  V30 8980 H 818.376 -0.112493 5.02874 0
M  V30 8981 H 818.076 1.51988 5.67603 0
M  V30 8982 H 819.6 0.674152 6.06867 0
M  V30 8983 H 821.014 2.70636 5.054 0
M  V30 8984 H 819.411 3.48012 4.88884 0
M  V30 8985 H 820.481 3.37776 3.47901 0
M  V30 8986 N 821.824 -1.22873 0.986916 0
M  V30 8987 C 823.052 -1.95487 0.677663 0
M  V30 8988 C 823.467 -1.72978 -0.756572 0
M  V30 8989 O 822.824 -1.02517 -1.50985 0
M  V30 8990 C 822.875 -3.48337 0.966638 0
M  V30 8991 O 822.596 -3.70087 2.34451 0
M  V30 8992 C 824.097 -4.38142 0.674248 0
M  V30 8993 H 821.317 -0.622211 0.251185 0
M  V30 8994 H 823.861 -1.56187 1.32007 0
M  V30 8995 H 822.016 -3.85628 0.370137 0
M  V30 8996 H 822.43 -4.64332 2.43918 0
M  V30 8997 H 823.904 -5.44165 0.926759 0
M  V30 8998 H 824.381 -4.3745 -0.391728 0
M  V30 8999 H 824.987 -4.06469 1.25152 0
M  V30 9000 N 823.302 -0.75937 -1.38099 0
M  V30 9001 C 824.212 -0.13774 -2.34195 0
M  V30 9002 C 825.228 0.693985 -1.59561 0
M  V30 9003 O 826.404 0.616792 -1.91723 0
M  V30 9004 C 823.469 0.740535 -3.38699 0
M  V30 9005 C 822.53 -0.106225 -4.29169 0
M  V30 9006 C 821.763 0.730225 -5.28681 0
M  V30 9007 O 821.986 1.96796 -5.35376 0
M  V30 9008 O 820.92 0.145969 -6.01723 0
M  V30 9009 H 824.746 -0.931512 -2.89061 0
M  V30 9010 H 822.331 -0.520345 -1.40046 0
M  V30 9011 H 824.213 1.24232 -4.02672 0
M  V30 9012 H 822.888 1.51271 -2.8618 0
M  V30 9013 H 821.795 -0.654088 -3.68337 0
M  V30 9014 H 823.128 -0.841186 -4.84959 0
M  V30 9015 N 824.78 1.49157 -0.508906 0
M  V30 9016 C 825.743 2.27784 0.25434 0
M  V30 9017 C 826.743 1.34132 0.88686 0
M  V30 9018 O 827.933 1.5722 0.750168 0
M  V30 9019 C 825.065 3.12347 1.36573 0
M  V30 9020 H 826.258 2.96718 -0.435714 0
M  V30 9021 H 823.811 1.54052 -0.264128 0
M  V30 9022 H 824.546 2.47997 2.08969 0
M  V30 9023 H 824.331 3.81213 0.917543 0
M  V30 9024 H 825.821 3.71712 1.90315 0
M  V30 9025 N 826.258 0.243083 1.55714 0
M  V30 9026 C 827.674 -0.111853 1.59208 0
M  V30 9027 C 827.874 -1.5723 1.2602 0
M  V30 9028 O 826.93 -2.31608 1.00569 0
M  V30 9029 C 828.243 0.233885 2.99789 0
M  V30 9030 C 829.791 0.177873 3.12494 0
M  V30 9031 C 830.266 0.49759 4.55289 0
M  V30 9032 N 831.757 0.447949 4.61029 0
M  V30 9033 C 832.492 0.668545 5.69489 0
M  V30 9034 N 831.988 0.952064 6.86227 0
M  V30 9035 N 833.781 0.599512 5.58894 0
M  V30 9036 H 825.932 1.19554 1.75558 0
M  V30 9037 H 828.195 0.480765 0.817049 0
M  V30 9038 H 827.901 1.24835 3.28799 0
M  V30 9039 H 827.775 -0.440846 3.74615 0
M  V30 9040 H 830.162 -0.827263 2.83267 0
M  V30 9041 H 830.243 0.886399 2.39951 0
M  V30 9042 H 829.887 1.50026 4.85237 0
M  V30 9043 H 829.817 -0.232371 5.26087 0
M  V30 9044 H 832.308 0.237388 3.77154 0
M  V30 9045 H 832.621 1.10791 7.64817 0
M  V30 9046 H 830.966 0.989496 6.8792 0
M  V30 9047 H 834.157 0.378088 4.66571 0
M  V30 9048 H 834.33 0.774828 6.43351 0
M  V30 9049 N 827.736 -1.57571 -0.0300757 0
M  V30 9050 C 829.152 -1.54869 -0.385703 0
M  V30 9051 C 829.352 -0.969068 -1.76667 0
M  V30 9052 O 828.408 -0.589676 -2.45518 0
M  V30 9053 C 829.721 -2.99313 -0.288482 0
M  V30 9054 C 831.269 -3.10857 -0.365638 0
M  V30 9055 C 831.744 -4.5703 -0.297878 0
M  V30 9056 N 833.235 -4.61825 -0.356703 0
M  V30 9057 C 833.97 -5.72466 -0.327146 0
M  V30 9058 N 833.466 -6.92349 -0.249941 0
M  V30 9059 N 835.259 -5.60836 -0.376801 0
M  V30 9060 H 827.41 -1.936 0.87367 0
M  V30 9061 H 829.673 -0.887924 0.332106 0
M  V30 9062 H 829.379 -3.45443 0.66047 0
M  V30 9063 H 829.253 -3.61332 -1.08253 0
M  V30 9064 H 831.64 -2.64676 -1.30502 0
M  V30 9065 H 831.721 -2.51671 0.457744 0
M  V30 9066 H 831.365 -5.03879 0.637835 0
M  V30 9067 H 831.295 -5.14127 -1.13935 0
M  V30 9068 H 833.786 -3.75571 -0.418926 0
M  V30 9069 H 834.099 -7.7245 -0.23246 0
M  V30 9070 H 832.444 -6.94664 -0.216004 0
M  V30 9071 H 835.635 -4.66073 -0.435101 0
M  V30 9072 H 835.808 -6.47052 -0.350298 0
M  V30 9073 N 829.214 0.302327 -1.54673 0
M  V30 9074 C 830.162 1.39286 -1.86285 0
M  V30 9075 C 831.156 1.52553 -0.736478 0
M  V30 9076 O 832.362 1.54686 -0.92045 0
M  V30 9077 H 828.737 0.465228 -0.590819 0
M  V30 9078 H 830.708 1.09859 -2.77441 0
M  V30 9079 C 829.457 2.75155 -2.12567 0
M  V30 9080 H 828.78 2.65728 -2.98712 0
M  V30 9081 H 830.22 3.50476 -2.38627 0
M  V30 9082 C 828.679 3.23987 -0.923813 0
M  V30 9083 O 829.209 4.01443 -0.143649 0
M  V30 9084 N 827.415 2.81293 -0.72956 0
M  V30 9085 H 826.962 2.18421 -1.36565 0
M  V30 9086 H 826.92 3.14315 0.0730351 0
M  V30 9087 N 830.692 1.47107 0.565454 0
M  V30 9088 C 831.622 1.61846 1.68309 0
M  V30 9089 C 832.603 0.468159 1.63531 0
M  V30 9090 O 833.788 0.696504 1.8128 0
M  V30 9091 C 830.918 1.62474 3.06952 0
M  V30 9092 C 829.872 2.76649 3.26572 0
M  V30 9093 C 829.198 2.62345 4.65917 0
M  V30 9094 C 830.498 4.18319 3.12741 0
M  V30 9095 H 832.192 2.55407 1.5623 0
M  V30 9096 H 829.738 1.22916 0.750179 0
M  V30 9097 H 831.691 1.71378 3.84977 0
M  V30 9098 H 830.415 0.654692 3.19971 0
M  V30 9099 H 829.074 2.67242 2.50952 0
M  V30 9100 H 828.722 1.63386 4.75725 0
M  V30 9101 H 828.422 3.38936 4.79996 0
M  V30 9102 H 829.946 2.73165 5.46089 0
M  V30 9103 H 831.36 4.28745 3.80593 0
M  V30 9104 H 829.757 4.95632 3.38333 0
M  V30 9105 H 830.827 4.37263 2.09592 0
M  V30 9106 N 832.17 -0.811516 1.35101 0
M  V30 9107 C 833.418 -1.56525 1.27845 0
M  V30 9108 C 833.739 -1.94435 -0.14829 0
M  V30 9109 O 833.009 -1.63203 -1.08359 0
M  V30 9110 H 831.589 -0.580433 0.47022 0
M  V30 9111 H 834.251 -0.968277 1.69146 0
M  V30 9112 H 833.347 -2.48291 1.89097 0
M  V30 9113 N 833.648 -1.19017 -1.03309 0
M  V30 9114 C 834.578 -0.94772 -2.13402 0
M  V30 9115 C 835.559 0.117383 -1.69694 0
M  V30 9116 O 836.744 -0.0367733 -1.94165 0
M  V30 9117 C 833.874 -0.480977 -3.43953 0
M  V30 9118 C 832.828 -1.48743 -4.01322 0
M  V30 9119 C 832.154 -0.877924 -5.27443 0
M  V30 9120 C 833.454 -2.86642 -4.36616 0
M  V30 9121 H 835.148 -1.86846 -2.33942 0
M  V30 9122 H 832.694 -0.899781 -1.12427 0
M  V30 9123 H 834.647 -0.298677 -4.2034 0
M  V30 9124 H 833.371 0.475348 -3.23122 0
M  V30 9125 H 832.03 -1.65681 -3.27025 0
M  V30 9126 H 831.678 0.0858232 -5.02927 0
M  V30 9127 H 831.378 -1.54996 -5.66789 0
M  V30 9128 H 832.902 -0.706326 -6.06501 0
M  V30 9129 H 834.316 -2.73312 -5.03958 0
M  V30 9130 H 832.713 -3.50599 -4.87032 0
M  V30 9131 H 833.783 -3.39617 -3.46105 0
M  V30 9132 N 835.127 1.22348 -0.993418 0
M  V30 9133 C 836.374 1.9111 -0.669568 0
M  V30 9134 C 836.702 1.77357 0.79843 0
M  V30 9135 O 835.957 1.13675 1.593 0
M  V30 9136 C 836.256 3.42477 -1.02197 0
M  V30 9137 C 835.922 3.7642 -2.48232 0
M  V30 9138 C 834.584 3.85395 -2.88139 0
M  V30 9139 C 836.936 3.9253 -3.42884 0
M  V30 9140 C 834.264 4.07918 -4.21687 0
M  V30 9141 C 836.616 4.16557 -4.76091 0
M  V30 9142 C 835.28 4.23757 -5.15739 0
M  V30 9143 H 834.55 0.699321 -0.245012 0
M  V30 9144 H 837.197 1.45102 -1.2497 0
M  V30 9145 H 835.502 3.90143 -0.359921 0
M  V30 9146 H 837.199 3.93935 -0.74942 0
M  V30 9147 H 833.789 3.70017 -2.16299 0
M  V30 9148 H 837.973 3.84974 -3.13224 0
M  V30 9149 H 833.229 4.11719 -4.51993 0
M  V30 9150 H 837.403 4.27966 -5.4938 0
M  V30 9151 H 835.03 4.40962 -6.19239 0
M  V30 9152 N 836.605 0.766683 1.37694 0
M  V30 9153 C 837.537 0.107798 2.28946 0
M  V30 9154 C 838.55 -0.669701 1.48387 0
M  V30 9155 O 839.739 -0.508629 1.711 0
M  V30 9156 C 836.839 -0.871084 3.27514 0
M  V30 9157 C 836.012 -0.148471 4.37148 0
M  V30 9158 C 835.071 -1.03998 5.1582 0
M  V30 9159 O 834.097 -0.505639 5.6695 0
M  V30 9160 N 835.299 -2.36679 5.3006 0
M  V30 9161 H 838.064 0.89154 2.86132 0
M  V30 9162 H 835.625 0.618593 1.49616 0
M  V30 9163 H 837.617 -1.47081 3.77027 0
M  V30 9164 H 836.187 -1.55582 2.71133 0
M  V30 9165 H 835.407 0.632117 3.89099 0
M  V30 9166 H 836.695 0.351045 5.07588 0
M  V30 9167 H 836.093 -2.82532 4.90094 0
M  V30 9168 H 834.65 -2.9167 5.82899 0
M  V30 9169 N 838.083 -1.48885 0.516809 0
M  V30 9170 C 839.033 -2.26363 -0.272704 0
M  V30 9171 C 840.017 -1.31891 -0.921604 0
M  V30 9172 O 841.209 -1.56514 -0.826589 0
M  V30 9173 C 838.338 -3.16614 -1.32705 0
M  V30 9174 C 837.424 -4.18554 -0.683598 0
M  V30 9175 N 837.815 -5.05308 0.223015 0
M  V30 9176 C 836.113 -4.35931 -0.942351 0
M  V30 9177 C 836.814 -5.7867 0.592918 0
M  V30 9178 N 835.79 -5.43583 -0.042912 0
M  V30 9179 H 839.592 -2.90811 0.424971 0
M  V30 9180 H 837.106 -1.5893 0.333941 0
M  V30 9181 H 839.103 -3.70766 -1.90625 0
M  V30 9182 H 837.763 -2.5372 -2.02624 0
M  V30 9183 H 838.774 -5.14473 0.594818 0
M  V30 9184 H 835.451 -3.84234 -1.6331 0
M  V30 9185 H 836.841 -6.58493 1.33556 0
M  V30 9186 N 839.561 -0.251338 -1.55583 0
M  V30 9187 C 840.511 0.660351 -2.18228 0
M  V30 9188 C 841.495 1.13596 -1.13951 0
M  V30 9189 O 842.687 1.08499 -1.39846 0
M  V30 9190 C 839.816 1.85498 -2.88869 0
M  V30 9191 C 838.902 1.39767 -4.00407 0
M  V30 9192 N 839.293 0.654876 -5.01543 0
M  V30 9193 C 837.591 1.68259 -4.13044 0
M  V30 9194 C 838.292 0.417521 -5.802 0
M  V30 9195 N 837.268 0.983032 -5.34638 0
M  V30 9196 H 841.07 0.0847425 -2.93778 0
M  V30 9197 H 838.584 -0.0538456 -1.62311 0
M  V30 9198 H 840.581 2.51916 -3.3218 0
M  V30 9199 H 839.241 2.43477 -2.14823 0
M  V30 9200 H 840.252 0.304545 -5.17004 0
M  V30 9201 H 836.929 2.27344 -3.50172 0
M  V30 9202 H 838.319 -0.175764 -6.7167 0
M  V30 9203 N 841.039 1.57585 0.0217189 0
M  V30 9204 C 842.316 1.80779 0.74687 0
M  V30 9205 C 842.696 0.851163 1.9318 0
M  V30 9206 O 842.044 -0.105039 2.28258 0
M  V30 9207 C 842.254 3.28696 1.17302 0
M  V30 9208 C 843.602 3.93871 1.58589 0
M  V30 9209 O 844.626 3.3289 1.2674 0
M  V30 9210 O 843.485 5.01254 2.1773 0
M  V30 9211 H 840.579 0.743666 0.361786 0
M  V30 9212 H 843.125 1.697 -0.00206785 0
M  V30 9213 H 841.897 3.89927 0.327453 0
M  V30 9214 H 841.52 3.44692 1.98174 0
M  V30 9215 N 842.517 -0.29412 1.54831 0
M  V30 9216 C 843.48 -1.3461 1.85507 0
M  V30 9217 C 844.48 -1.43359 0.728343 0
M  V30 9218 O 845.67 -1.42875 0.996609 0
M  V30 9219 C 842.802 -2.73012 2.0415 0
M  V30 9220 H 843.995 -1.08651 2.79526 0
M  V30 9221 H 841.548 -0.531138 1.46999 0
M  V30 9222 H 842.283 -3.04183 1.12441 0
M  V30 9223 H 842.068 -2.68051 2.86166 0
M  V30 9224 H 843.558 -3.49061 2.29229 0
M  V30 9225 N 843.995 -1.47404 -0.557645 0
M  V30 9226 C 845.244 -1.53268 -1.31118 0
M  V30 9227 C 845.557 -0.199414 -1.94581 0
M  V30 9228 O 846.763 -0.136039 -2.71159 0
M  V30 9229 C 845.219 -2.70178 -2.37764 0
M  V30 9230 C 844.827 -4.10032 -1.80493 0
M  V30 9231 C 846.571 -2.85334 -3.14301 0
M  V30 9232 C 844.478 -5.18244 -2.84916 0
M  V30 9233 H 843.408 -0.570491 -0.493007 0
M  V30 9234 H 846.059 -1.73678 -0.592308 0
M  V30 9235 H 844.441 -2.43147 -3.12563 0
M  V30 9236 H 845.615 -4.46964 -1.12069 0
M  V30 9237 H 843.93 -3.99759 -1.16542 0
M  V30 9238 H 846.527 -3.63347 -3.92279 0
M  V30 9239 H 846.87 -1.93761 -3.68459 0
M  V30 9240 H 847.403 -3.12133 -2.46613 0
M  V30 9241 H 844.142 -6.11691 -2.35614 0
M  V30 9242 H 843.662 -4.85829 -3.51753 0
M  V30 9243 H 845.341 -5.45174 -3.48417 0
M  V30 9244 N 845.473 0.80434 -1.35529 0
M  V30 9245 C 846.701 1.59283 -1.32048 0
M  V30 9246 C 847.116 1.88527 0.101556 0
M  V30 9247 O 846.473 1.48975 1.05417 0
M  V30 9248 C 846.524 2.92276 -2.12737 0
M  V30 9249 O 846.245 2.64299 -3.49396 0
M  V30 9250 C 847.746 3.86631 -2.16867 0
M  V30 9251 H 844.966 0.494523 -0.453528 0
M  V30 9252 H 847.51 0.999415 -1.78415 0
M  V30 9253 H 845.665 3.48125 -1.69964 0
M  V30 9254 H 846.079 3.4923 -3.91329 0
M  V30 9255 H 847.553 4.77053 -2.77712 0
M  V30 9256 H 848.03 4.23384 -1.16803 0
M  V30 9257 H 848.636 3.36717 -2.59811 0
M  V30 9258 N 846.951 1.19563 1.02676 0
M  V30 9259 C 848.199 0.997593 1.75763 0
M  V30 9260 C 848.52 -0.47253 1.89188 0
M  V30 9261 O 847.79 -1.34214 1.42701 0
M  V30 9262 H 846.37 0.366128 0.651122 0
M  V30 9263 H 849.032 1.50495 1.23844 0
M  V30 9264 H 848.128 1.44741 2.76508 0
M  V30 9265 N 848.429 -1.21819 0.999893 0
M  V30 9266 C 849.657 -1.94758 0.698359 0
M  V30 9267 C 850.072 -1.73771 -0.738183 0
M  V30 9268 O 849.429 -1.04113 -1.49889 0
M  V30 9269 C 849.48 -3.47292 1.00353 0
M  V30 9270 O 849.201 -3.67579 2.38363 0
M  V30 9271 C 850.702 -4.37403 0.72068 0
M  V30 9272 H 847.922 -0.619512 0.257771 0
M  V30 9273 H 850.466 -1.54778 1.33656 0
M  V30 9274 H 848.621 -3.85213 0.411018 0
M  V30 9275 H 849.035 -4.61719 2.48829 0
M  V30 9276 H 850.509 -5.43151 0.984422 0
M  V30 9277 H 850.986 -4.3784 -0.345309 0
M  V30 9278 H 851.592 -4.05119 1.29456 0
M  V30 9279 N 849.908 -0.773975 -1.37286 0
M  V30 9280 C 850.871 -0.167974 -2.28584 0
M  V30 9281 C 851.871 0.625662 -1.48129 0
M  V30 9282 O 853.061 0.448924 -1.68316 0
M  V30 9283 C 850.193 0.769364 -3.32105 0
M  V30 9284 H 851.386 -0.972806 -2.83684 0
M  V30 9285 H 848.939 -0.542335 -1.46589 0
M  V30 9286 H 849.674 1.59912 -2.82132 0
M  V30 9287 H 849.459 0.202419 -3.91577 0
M  V30 9288 H 850.949 1.18872 -4.00324 0
M  V30 9289 N 851.386 1.48609 -0.524698 0
M  V30 9290 C 852.333 2.29539 0.240956 0
M  V30 9291 C 853.303 1.37033 0.938681 0
M  V30 9292 O 854.488 1.65996 0.940737 0
M  V30 9293 C 851.628 3.20278 1.28514 0
M  V30 9294 C 850.741 4.27858 0.596798 0
M  V30 9295 C 849.876 5.05784 1.62346 0
M  V30 9296 C 848.915 6.05173 0.918287 0
M  V30 9297 N 848.052 6.76176 1.89025 0
M  V30 9298 H 852.892 2.945 -0.455368 0
M  V30 9299 H 850.429 1.45188 -0.236403 0
M  V30 9300 H 852.387 3.71281 1.90279 0
M  V30 9301 H 851.017 2.57251 1.94992 0
M  V30 9302 H 850.069 3.80162 -0.134668 0
M  V30 9303 H 851.381 4.98782 0.0428506 0
M  V30 9304 H 850.535 5.60775 2.31553 0
M  V30 9305 H 849.274 4.34687 2.2113 0
M  V30 9306 H 848.279 5.49391 0.21212 0
M  V30 9307 H 849.504 6.78265 0.336633 0
M  V30 9308 H 847.45 6.07834 2.46726 0
M  V30 9309 H 847.367 7.43157 1.3876 0
M  V30 9310 H 848.635 7.35759 2.57446 0
M  V30 9311 N 852.864 0.259585 1.55447 0
M  V30 9312 C 854.141 -0.412595 1.91199 0
M  V30 9313 C 854.521 -1.74909 1.18194 0
M  V30 9314 O 853.869 -2.26474 0.303603 0
M  V30 9315 C 854.079 -0.568195 3.44344 0
M  V30 9316 C 855.427 -0.858253 4.15836 0
M  V30 9317 O 856.451 -0.653588 3.50152 0
M  V30 9318 O 855.31 -1.24874 5.32042 0
M  V30 9319 H 852.404 -0.223403 0.796254 0
M  V30 9320 H 854.95 0.30459 1.66944 0
M  V30 9321 H 853.722 0.372989 3.89518 0
M  V30 9322 H 853.345 -1.33544 3.74502 0
M  V30 9323 N 854.342 -1.57594 -0.0133615 0
M  V30 9324 C 855.588 -1.91105 -0.696457 0
M  V30 9325 C 855.943 -0.859872 -1.72116 0
M  V30 9326 O 855.236 0.129579 -1.91161 0
M  V30 9327 C 855.43 -3.29121 -1.39336 0
M  V30 9328 C 855.259 -4.47565 -0.437666 0
M  V30 9329 C 854.029 -5.05272 -0.0529454 0
M  V30 9330 C 856.227 -5.13479 0.290537 0
M  V30 9331 N 854.209 -6.07232 0.902355 0
M  V30 9332 C 855.58 -6.10147 1.10097 0
M  V30 9333 C 857.635 -4.96627 0.355804 0
M  V30 9334 C 856.338 -6.91778 1.97069 0
M  V30 9335 C 858.364 -5.78833 1.21271 0
M  V30 9336 C 857.726 -6.75083 2.01102 0
M  V30 9337 H 853.825 -0.747882 -0.228464 0
M  V30 9338 H 856.409 -1.94651 0.0438462 0
M  V30 9339 H 854.58 -3.26474 -2.10403 0
M  V30 9340 H 856.312 -3.501 -2.03008 0
M  V30 9341 H 853.067 -4.71747 -0.418486 0
M  V30 9342 H 853.491 -6.6289 1.37498 0
M  V30 9343 H 858.133 -4.22077 -0.247105 0
M  V30 9344 H 855.851 -7.65662 2.58433 0
M  V30 9345 H 859.437 -5.67838 1.26694 0
M  V30 9346 H 858.317 -7.37587 2.66337 0
M  V30 9347 N 855.82 0.285905 -1.54985 0
M  V30 9348 C 857.066 1.02071 -1.75241 0
M  V30 9349 C 857.399 1.864 -0.544842 0
M  V30 9350 O 856.674 1.89034 0.457844 0
M  V30 9351 C 856.957 1.91409 -3.05016 0
M  V30 9352 C 856.81 1.10158 -4.36102 0
M  V30 9353 C 858.129 2.90335 -3.30747 0
M  V30 9354 H 855.248 0.369663 -0.637588 0
M  V30 9355 H 857.89 0.294114 -1.8771 0
M  V30 9356 H 856.04 2.53362 -2.94517 0
M  V30 9357 H 857.712 0.503756 -4.58541 0
M  V30 9358 H 855.955 0.404675 -4.31908 0
M  V30 9359 H 856.626 1.75956 -5.23205 0
M  V30 9360 H 859.102 2.38514 -3.40955 0
M  V30 9361 H 857.978 3.49997 -4.2284 0
M  V30 9362 H 858.239 3.64787 -2.49765 0
M  V30 9363 N 857.298 1.47698 0.54982 0
M  V30 9364 C 858.544 1.54931 1.30859 0
M  V30 9365 C 858.877 0.214021 1.93017 0
M  V30 9366 O 858.152 -0.778093 1.78258 0
M  V30 9367 C 858.435 2.67286 2.41309 0
M  V30 9368 C 858.288 4.10457 1.83971 0
M  V30 9369 C 859.607 2.75509 3.43195 0
M  V30 9370 H 856.726 0.56399 0.474431 0
M  V30 9371 H 859.368 1.79787 0.614541 0
M  V30 9372 H 857.518 2.46224 3.0051 0
M  V30 9373 H 859.19 4.42903 1.28974 0
M  V30 9374 H 857.433 4.18387 1.14606 0
M  V30 9375 H 858.104 4.84857 2.63851 0
M  V30 9376 H 860.58 2.94531 2.93923 0
M  V30 9377 H 859.456 3.55886 4.17895 0
M  V30 9378 H 859.717 1.82863 4.02509 0
M  V30 9379 N 858.776 -0.797141 1.35954 0
M  V30 9380 C 860.022 -1.55698 1.29946 0
M  V30 9381 C 860.355 -1.93808 -0.123259 0
M  V30 9382 O 859.63 -1.62102 -1.07486 0
M  V30 9383 C 859.913 -2.83926 2.2149 0
M  V30 9384 C 859.766 -2.52232 3.72423 0
M  V30 9385 C 861.085 -3.85698 2.11955 0
M  V30 9386 H 858.204 -0.56488 0.47337 0
M  V30 9387 H 860.846 -0.916421 1.66438 0
M  V30 9388 H 858.996 -3.38588 1.905 0
M  V30 9389 H 860.668 -2.0368 4.13899 0
M  V30 9390 H 858.911 -1.85286 3.92239 0
M  V30 9391 H 859.582 -3.43782 4.31877 0
M  V30 9392 H 862.058 -3.40462 2.39218 0
M  V30 9393 H 860.934 -4.73182 2.78191 0
M  V30 9394 H 861.195 -4.28083 1.10442 0
M  V30 9395 N 860.254 -1.20106 -1.0204 0
M  V30 9396 C 861.531 -0.918029 -1.72718 0
M  V30 9397 C 861.911 0.574163 -2.03142 0
M  V30 9398 O 861.259 1.53476 -1.69285 0
M  V30 9399 C 861.469 -1.78698 -2.9978 0
M  V30 9400 C 862.817 -2.02648 -3.7312 0
M  V30 9401 O 863.841 -1.75919 -3.09727 0
M  V30 9402 O 862.7 -2.47767 -4.87107 0
M  V30 9403 H 859.794 -0.342904 -0.752559 0
M  V30 9404 H 862.34 -1.30961 -1.07923 0
M  V30 9405 H 861.112 -2.79757 -2.7359 0
M  V30 9406 H 860.735 -1.39522 -3.72316 0
M  V30 9407 N 861.732 1.21287 -1.00634 0
M  V30 9408 C 862.962 1.94103 -0.70765 0
M  V30 9409 C 863.37 1.74382 0.733991 0
M  V30 9410 O 862.713 1.04843 1.50843 0
M  V30 9411 C 862.775 3.46705 -0.950581 0
M  V30 9412 C 862.439 3.90176 -2.37932 0
M  V30 9413 C 863.436 3.96769 -3.35961 0
M  V30 9414 C 861.121 4.22453 -2.71733 0
M  V30 9415 C 863.115 4.35034 -4.65858 0
M  V30 9416 C 860.802 4.60394 -4.01846 0
M  V30 9417 C 861.8 4.66656 -4.9872 0
M  V30 9418 O 861.488 5.03732 -6.26505 0
M  V30 9419 H 861.22 0.62405 -0.259881 0
M  V30 9420 H 863.774 1.55015 -1.34757 0
M  V30 9421 H 862.004 3.85868 -0.253492 0
M  V30 9422 H 863.693 4.00741 -0.645069 0
M  V30 9423 H 864.459 3.72009 -3.11182 0
M  V30 9424 H 860.338 4.16776 -1.97025 0
M  V30 9425 H 863.882 4.39836 -5.4147 0
M  V30 9426 H 859.779 4.84609 -4.26409 0
M  V30 9427 H 860.547 5.21761 -6.30641 0
M  V30 9428 N 863.21 0.781244 1.36873 0
M  V30 9429 C 864.458 0.349198 1.9906 0
M  V30 9430 C 864.779 -1.0806 1.62321 0
M  V30 9431 O 864.049 -1.74351 0.893229 0
M  V30 9432 H 862.629 0.126126 0.736275 0
M  V30 9433 H 865.291 1.00148 1.67202 0
M  V30 9434 H 864.387 0.434451 3.09061 0
M  V30 9435 N 864.689 -1.48329 0.532571 0
M  V30 9436 C 865.917 -2.069 0.00354299 0
M  V30 9437 C 866.332 -1.38876 -1.27902 0
M  V30 9438 O 865.689 -0.477119 -1.76153 0
M  V30 9439 C 865.74 -3.60821 -0.221416 0
M  V30 9440 O 865.461 -4.26291 1.01034 0
M  V30 9441 C 866.962 -4.36194 -0.790531 0
M  V30 9442 H 864.182 -0.670103 0.0346836 0
M  V30 9443 H 866.726 -1.90682 0.738955 0
M  V30 9444 H 864.881 -3.76636 -0.906884 0
M  V30 9445 H 865.295 -5.18475 0.792683 0
M  V30 9446 H 866.769 -5.44657 -0.897347 0
M  V30 9447 H 867.246 -4.00798 -1.79605 0
M  V30 9448 H 867.852 -4.25064 -0.141546 0
M  V30 9449 N 866.167 -0.267825 -1.55308 0
M  V30 9450 C 867.583 0.0865107 -1.59365 0
M  V30 9451 C 867.783 1.55205 -1.28505 0
M  V30 9452 O 866.839 2.29978 -1.04241 0
M  V30 9453 C 868.152 -0.28155 -2.99379 0
M  V30 9454 C 869.7 -0.227565 -3.12172 0
M  V30 9455 C 870.175 -0.569959 -4.5444 0
M  V30 9456 N 871.666 -0.521238 -4.60258 0
M  V30 9457 C 872.401 -0.759061 -5.68354 0
M  V30 9458 N 871.897 -1.06112 -6.84626 0
M  V30 9459 N 873.69 -0.688351 -5.57869 0
M  V30 9460 H 865.841 -1.22332 -1.73633 0
M  V30 9461 H 868.104 -0.493703 -0.809297 0
M  V30 9462 H 867.81 -1.3005 -3.26772 0
M  V30 9463 H 867.684 0.381192 -3.75269 0
M  V30 9464 H 870.071 0.782093 -2.84548 0
M  V30 9465 H 870.152 -0.924461 -2.38511 0
M  V30 9466 H 869.796 -1.57727 -4.82788 0
M  V30 9467 H 869.726 0.148646 -5.2639 0
M  V30 9468 H 872.217 -0.297359 -3.76728 0
M  V30 9469 H 872.53 -1.22945 -7.62958 0
M  V30 9470 H 870.875 -1.09881 -6.86259 0
M  V30 9471 H 874.066 -0.452268 -4.6591 0
M  V30 9472 H 874.239 -0.877081 -6.42037 0
M  V30 9473 N 867.645 1.57599 0.00500368 0
M  V30 9474 C 868.575 2.11143 0.99705 0
M  V30 9475 C 869.556 1.0194 1.3617 0
M  V30 9476 O 870.741 1.29596 1.44632 0
M  V30 9477 C 867.871 2.61062 2.2905 0
M  V30 9478 C 866.825 3.74745 2.0676 0
M  V30 9479 C 866.151 4.10961 3.42075 0
M  V30 9480 C 867.451 5.02222 1.43424 0
M  V30 9481 H 869.145 2.94281 0.551251 0
M  V30 9482 H 866.691 1.41565 0.263715 0
M  V30 9483 H 868.644 2.97146 2.98801 0
M  V30 9484 H 867.368 1.75038 2.75734 0
M  V30 9485 H 866.027 3.39047 1.39436 0
M  V30 9486 H 865.675 3.21968 3.86453 0
M  V30 9487 H 865.375 4.87549 3.27979 0
M  V30 9488 H 866.899 4.49599 4.1315 0
M  V30 9489 H 868.313 5.36109 2.03125 0
M  V30 9490 H 866.71 5.83581 1.39831 0
M  V30 9491 H 867.78 4.83224 0.40285 0
M  V30 9492 N 869.123 -0.277682 1.55134 0
M  V30 9493 C 870.37 -1.0099 1.7552 0
M  V30 9494 C 870.698 -1.86452 0.553712 0
M  V30 9495 O 869.953 -1.90122 -0.463896 0
M  V30 9496 C 870.252 -1.92599 3.01065 0
M  V30 9497 C 869.918 -1.22926 4.3382 0
M  V30 9498 C 868.58 -1.03659 4.69902 0
M  V30 9499 C 870.932 -0.733071 5.16019 0
M  V30 9500 C 868.26 -0.334933 5.85743 0
M  V30 9501 C 870.612 -0.0450319 6.32584 0
M  V30 9502 C 869.276 0.159393 6.6731 0
M  V30 9503 H 868.546 -0.36955 0.642273 0
M  V30 9504 H 871.193 -0.282611 1.89403 0
M  V30 9505 H 869.498 -2.71934 2.82062 0
M  V30 9506 H 871.195 -2.49367 3.14034 0
M  V30 9507 H 867.785 -1.38933 4.05457 0
M  V30 9508 H 871.969 -0.869565 4.88623 0
M  V30 9509 H 867.225 -0.165783 6.11175 0
M  V30 9510 H 871.399 0.34723 6.95534 0
M  V30 9511 H 869.026 0.70507 7.56923 0
M  V30 9512 N 870.601 -1.47988 -0.541979 0
M  V30 9513 C 871.551 -1.58019 -1.64359 0
M  V30 9514 C 872.535 -0.438056 -1.54822 0
M  V30 9515 O 873.727 -0.688837 -1.63046 0
M  V30 9516 C 870.856 -1.61182 -3.03109 0
M  V30 9517 C 869.942 -2.80834 -3.17794 0
M  V30 9518 N 870.333 -4.05379 -3.02492 0
M  V30 9519 C 868.631 -2.77914 -3.48826 0
M  V30 9520 C 869.332 -4.85592 -3.20274 0
M  V30 9521 N 868.308 -4.18188 -3.47304 0
M  V30 9522 H 872.11 -2.52071 -1.5112 0
M  V30 9523 H 869.624 -1.44193 -0.747137 0
M  V30 9524 H 871.621 -1.66461 -3.82226 0
M  V30 9525 H 870.281 -0.682375 -3.17449 0
M  V30 9526 H 871.292 -4.36003 -2.79503 0
M  V30 9527 H 867.969 -1.94174 -3.69598 0
M  V30 9528 H 869.359 -5.94394 -3.13282 0
M  V30 9529 N 872.079 0.78992 -1.36375 0
M  V30 9530 C 873.304 1.58389 -1.33895 0
M  V30 9531 C 873.729 1.8794 0.0774934 0
M  V30 9532 O 873.087 1.4785 1.0493 0
M  V30 9533 C 873.135 2.88201 -2.16732 0
M  V30 9534 O 872.239 3.81778 -1.55946 0
M  V30 9535 H 871.58 0.480471 -0.458305 0
M  V30 9536 H 874.11 0.979119 -1.79651 0
M  V30 9537 H 874.12 3.37475 -2.29292 0
M  V30 9538 H 872.795 2.66019 -3.19698 0
M  V30 9539 H 871.372 3.40371 -1.52323 0
M  V30 9540 N 873.557 1.20646 1.01402 0
M  V30 9541 C 874.487 0.98155 2.11867 0
M  V30 9542 C 875.468 -0.0903712 1.6986 0
M  V30 9543 O 876.653 0.0676586 1.94082 0
M  V30 9544 C 873.783 0.535636 3.43145 0
M  V30 9545 C 872.737 1.55109 3.98905 0
M  V30 9546 C 872.063 0.961725 5.2598 0
M  V30 9547 C 873.363 2.93552 4.32001 0
M  V30 9548 H 875.057 1.90544 2.3094 0
M  V30 9549 H 872.603 0.917554 1.10982 0
M  V30 9550 H 874.556 0.365512 4.19812 0
M  V30 9551 H 873.28 -0.423882 3.23838 0
M  V30 9552 H 871.939 1.70862 3.24348 0
M  V30 9553 H 871.587 -0.00580108 5.03 0
M  V30 9554 H 871.287 1.63993 5.64252 0
M  V30 9555 H 872.811 0.802726 6.053 0
M  V30 9556 H 874.225 2.81295 4.99546 0
M  V30 9557 H 872.622 3.58303 4.81393 0
M  V30 9558 H 873.692 3.4508 3.40658 0
M  V30 9559 N 875.035 -1.20752 1.01276 0
M  V30 9560 C 875.968 -2.22091 0.524472 0
M  V30 9561 C 876.946 -1.5692 -0.426017 0
M  V30 9562 O 878.13 -1.8528 -0.346919 0
M  V30 9563 C 875.257 -3.37868 -0.237224 0
M  V30 9564 C 874.303 -4.21327 0.662236 0
M  V30 9565 S 875.136 -4.91352 2.12916 0
M  V30 9566 C 876.292 -6.10553 1.37752 0
M  V30 9567 H 876.525 -2.63166 1.38315 0
M  V30 9568 H 874.058 -1.30742 0.821332 0
M  V30 9569 H 876.016 -4.04985 -0.670599 0
M  V30 9570 H 874.677 -2.95261 -1.07143 0
M  V30 9571 H 873.87 -5.03944 0.0751085 0
M  V30 9572 H 873.472 -3.59445 1.03322 0
M  V30 9573 H 875.764 -6.74322 0.655491 0
M  V30 9574 H 876.707 -6.73717 2.17969 0
M  V30 9575 H 877.115 -5.57566 0.882088 0
M  V30 9576 N 876.513 -0.788492 -1.36457 0
M  V30 9577 C 877.759 -0.360995 -1.99561 0
M  V30 9578 C 878.092 1.06433 -1.62437 0
M  V30 9579 O 877.367 1.7352 -0.878705 0
M  V30 9580 C 877.65 -0.523735 -3.56271 0
M  V30 9581 C 877.503 -1.99268 -4.03252 0
M  V30 9582 C 878.822 0.0617908 -4.40057 0
M  V30 9583 H 875.941 -0.13264 -0.724966 0
M  V30 9584 H 878.583 -0.994659 -1.61884 0
M  V30 9585 H 876.733 0.0156979 -3.88497 0
M  V30 9586 H 878.405 -2.59311 -3.81518 0
M  V30 9587 H 876.648 -2.49561 -3.54826 0
M  V30 9588 H 877.319 -2.05752 -5.12221 0
M  V30 9589 H 879.795 -0.398674 -4.14186 0
M  V30 9590 H 878.671 -0.0821089 -5.48839 0
M  V30 9591 H 878.932 1.15381 -4.26778 0
M  V30 9592 N 877.991 1.48044 -0.54043 0
M  V30 9593 C 878.921 2.32597 0.205178 0
M  V30 9594 C 879.902 1.42748 0.925041 0
M  V30 9595 O 881.087 1.71624 0.908784 0
M  V30 9596 C 878.217 3.24175 1.24612 0
M  V30 9597 C 877.171 4.23131 0.64376 0
M  V30 9598 C 876.497 5.03915 1.78812 0
M  V30 9599 C 877.797 5.20831 -0.39144 0
M  V30 9600 H 879.491 2.95184 -0.500676 0
M  V30 9601 H 877.037 1.41948 -0.242225 0
M  V30 9602 H 878.99 3.82158 1.77576 0
M  V30 9603 H 877.714 2.59608 1.98169 0
M  V30 9604 H 876.373 3.66349 0.135554 0
M  V30 9605 H 876.021 4.35765 2.51232 0
M  V30 9606 H 875.721 5.709 1.39094 0
M  V30 9607 H 877.245 5.64753 2.32134 0
M  V30 9608 H 878.659 5.73277 0.0515064 0
M  V30 9609 H 877.056 5.95926 -0.706569 0
M  V30 9610 H 878.126 4.6733 -1.29345 0
M  V30 9611 N 879.47 0.276058 1.55163 0
M  V30 9612 C 880.38 -0.621066 2.2623 0
M  V30 9613 C 881.396 -1.16931 1.28853 0
M  V30 9614 O 882.572 -1.1994 1.61791 0
M  V30 9615 C 879.637 -1.78824 2.97023 0
M  V30 9616 C 878.698 -1.27657 4.09881 0
M  V30 9617 C 877.931 -2.38812 4.77289 0
M  V30 9618 O 878.154 -3.58188 4.43912 0
M  V30 9619 O 877.088 -2.06915 5.65217 0
M  V30 9620 H 880.914 -0.0453346 3.03666 0
M  V30 9621 H 878.499 0.0434275 1.49337 0
M  V30 9622 H 880.381 -2.46877 3.41511 0
M  V30 9623 H 879.056 -2.35104 2.22503 0
M  V30 9624 H 877.963 -0.56248 3.69847 0
M  V30 9625 H 879.296 -0.759509 4.86305 0
M  V30 9626 N 880.948 -1.576 0.00335426 0
M  V30 9627 C 881.895 -2.08632 -0.986975 0
M  V30 9628 C 882.865 -0.982491 -1.33927 0
M  V30 9629 O 884.05 -1.25513 -1.43705 0
M  V30 9630 C 881.19 -2.59705 -2.27261 0
M  V30 9631 C 880.303 -3.84002 -1.97905 0
M  V30 9632 C 879.438 -4.23563 -3.20574 0
M  V30 9633 C 878.477 -5.40688 -2.8692 0
M  V30 9634 N 877.614 -5.75526 -4.02136 0
M  V30 9635 H 882.454 -2.92977 -0.544855 0
M  V30 9636 H 879.991 -1.44831 -0.257376 0
M  V30 9637 H 881.949 -2.87395 -3.02423 0
M  V30 9638 H 880.579 -1.7823 -2.69136 0
M  V30 9639 H 879.631 -3.63199 -1.13096 0
M  V30 9640 H 880.943 -4.69261 -1.69102 0
M  V30 9641 H 880.097 -4.52554 -4.04079 0
M  V30 9642 H 878.836 -3.37019 -3.52518 0
M  V30 9643 H 877.841 -5.11417 -2.01822 0
M  V30 9644 H 879.066 -6.2891 -2.5622 0
M  V30 9645 H 877.012 -4.9194 -4.33971 0
M  V30 9646 H 876.929 -6.55367 -3.76869 0
M  V30 9647 H 878.197 -6.0911 -4.8642 0
M  V30 9648 N 882.426 0.269451 -1.5528 0
M  V30 9649 C 883.675 0.998381 -1.75258 0
M  V30 9650 C 883.988 1.87321 -0.563034 0
M  V30 9651 O 885.194 2.63719 -0.645313 0
M  V30 9652 C 883.65 1.82505 -3.10193 0
M  V30 9653 C 883.258 0.99871 -4.36726 0
M  V30 9654 C 885.002 2.54807 -3.3952 0
M  V30 9655 C 882.909 1.81997 -5.627 0
M  V30 9656 H 881.839 0.376488 -0.653278 0
M  V30 9657 H 884.49 0.253909 -1.81735 0
M  V30 9658 H 882.872 2.61061 -2.97763 0
M  V30 9659 H 884.046 0.257064 -4.60082 0
M  V30 9660 H 882.361 0.390074 -4.14569 0
M  V30 9661 H 884.958 3.16662 -4.30847 0
M  V30 9662 H 885.301 3.25273 -2.59813 0
M  V30 9663 H 885.834 1.83278 -3.53064 0
M  V30 9664 H 882.573 1.15945 -6.45164 0
M  V30 9665 H 882.093 2.53749 -5.43481 0
M  V30 9666 H 883.772 2.39274 -6.0113 0
M  V30 9667 N 883.904 1.48273 0.534124 0
M  V30 9668 C 885.153 1.55334 1.28663 0
M  V30 9669 C 885.466 0.230345 1.94239 0
M  V30 9670 O 886.672 0.179161 2.70908 0
M  V30 9671 C 885.128 2.73927 2.33435 0
M  V30 9672 C 884.736 4.12852 1.73947 0
M  V30 9673 C 886.48 2.90298 3.09722 0
M  V30 9674 C 884.387 5.22711 2.76636 0
M  V30 9675 H 883.317 0.578262 0.483869 0
M  V30 9676 H 885.968 1.74598 0.564602 0
M  V30 9677 H 884.35 2.48089 3.08655 0
M  V30 9678 H 885.524 4.48691 1.04944 0
M  V30 9679 H 883.839 4.01562 1.10167 0
M  V30 9680 H 886.436 3.69542 3.86449 0
M  V30 9681 H 886.779 1.99598 3.6533 0
M  V30 9682 H 887.312 3.16017 2.41616 0
M  V30 9683 H 884.051 6.15362 2.25852 0
M  V30 9684 H 883.571 4.91364 3.43979 0
M  V30 9685 H 885.25 5.50648 3.39699 0
M  V30 9686 N 885.382 -0.782676 1.36792 0
M  V30 9687 C 886.63 -1.53778 1.31136 0
M  V30 9688 C 886.951 -1.94706 -0.107014 0
M  V30 9689 O 886.221 -1.65465 -1.04872 0
M  V30 9690 H 884.801 -0.570328 0.482426 0
M  V30 9691 H 887.463 -0.932181 1.71162 0
M  V30 9692 H 886.559 -2.44224 1.94321 0
M  V30 9693 N 886.86 -1.21182 -1.00761 0
M  V30 9694 C 887.808 -0.965728 -2.11604 0
M  V30 9695 C 888.802 0.0861028 -1.69181 0
M  V30 9696 O 890.008 -0.0650558 -1.79882 0
M  V30 9697 H 886.383 -0.295023 -0.691712 0
M  V30 9698 H 888.354 -1.90667 -2.2954 0
M  V30 9699 C 887.103 -0.544164 -3.43415 0
M  V30 9700 H 886.426 -1.34515 -3.76491 0
M  V30 9701 H 887.866 -0.411268 -4.22001 0
M  V30 9702 C 886.325 0.744583 -3.28569 0
M  V30 9703 O 886.855 1.80078 -3.59075 0
M  V30 9704 N 885.061 0.710083 -2.81791 0
M  V30 9705 H 884.608 -0.14971 -2.57165 0
M  V30 9706 H 884.566 1.57268 -2.72239 0
M  V30 9707 N 888.338 1.20213 -1.01915 0
M  V30 9708 C 889.563 1.94163 -0.729076 0
M  V30 9709 C 889.988 1.74416 0.704323 0
M  V30 9710 O 889.346 1.0401 1.48498 0
M  V30 9711 C 889.394 3.44258 -1.07324 0
M  V30 9712 O 888.498 4.11979 -0.186367 0
M  V30 9713 H 887.839 0.606506 -0.270272 0
M  V30 9714 H 890.369 1.52571 -1.3632 0
M  V30 9715 H 890.379 3.94888 -1.02603 0
M  V30 9716 H 889.054 3.57954 -2.11759 0
M  V30 9717 H 887.631 3.7176 -0.291334 0
M  V30 9718 N 889.816 0.795718 1.36037 0
M  V30 9719 C 890.779 0.204318 2.28287 0
M  V30 9720 C 891.779 -0.602017 1.49105 0
M  V30 9721 O 892.969 -0.422089 1.69009 0
M  V30 9722 C 890.101 -0.716431 3.33287 0
M  V30 9723 H 891.294 1.01781 2.821 0
M  V30 9724 H 888.847 0.565588 1.45708 0
M  V30 9725 H 889.582 -1.55403 2.84641 0
M  V30 9726 H 889.367 -0.140096 3.9185 0
M  V30 9727 H 890.857 -1.12488 4.02164 0
M  V30 9728 N 891.294 -1.47756 0.548274 0
M  V30 9729 C 892.541 -2.02489 0.0208955 0
M  V30 9730 C 892.869 -1.42356 -1.32533 0
M  V30 9731 O 892.124 -0.565448 -1.87353 0
M  V30 9732 C 892.423 -3.5716 -0.131069 0
M  V30 9733 C 892.089 -4.36169 1.14313 0
M  V30 9734 C 890.751 -4.57476 1.4923 0
M  V30 9735 C 893.103 -4.81801 1.9879 0
M  V30 9736 C 890.431 -5.21662 2.68487 0
M  V30 9737 C 892.783 -5.47303 3.17242 0
M  V30 9738 C 891.447 -5.66844 3.52483 0
M  V30 9739 H 890.717 -0.740961 0.00764621 0
M  V30 9740 H 893.364 -1.77531 0.717987 0
M  V30 9741 H 891.669 -3.8106 -0.911063 0
M  V30 9742 H 893.366 -3.9715 -0.55433 0
M  V30 9743 H 889.956 -4.19858 0.861235 0
M  V30 9744 H 894.14 -4.65126 1.73123 0
M  V30 9745 H 889.396 -5.34987 2.95971 0
M  V30 9746 H 893.57 -5.81626 3.82994 0
M  V30 9747 H 891.197 -6.16352 4.44988 0
M  V30 9748 N 892.772 -0.284283 -1.55015 0
M  V30 9749 C 893.702 0.592663 -2.25853 0
M  V30 9750 C 894.683 1.15151 -1.25197 0
M  V30 9751 O 895.868 1.18395 -1.53936 0
M  V30 9752 C 892.998 1.77254 -2.98661 0
M  V30 9753 C 891.952 1.34482 -4.06323 0
M  V30 9754 C 891.278 2.60853 -4.66754 0
M  V30 9755 C 892.578 0.488288 -5.20013 0
M  V30 9756 H 894.272 0.00187041 -2.994 0
M  V30 9757 H 891.818 -0.000540402 -1.44 0
M  V30 9758 H 893.771 2.39199 -3.46932 0
M  V30 9759 H 892.495 2.38931 -2.22664 0
M  V30 9760 H 891.154 0.748519 -3.58877 0
M  V30 9761 H 890.802 3.20808 -3.87416 0
M  V30 9762 H 890.502 2.32942 -5.39455 0
M  V30 9763 H 892.026 3.23631 -5.1778 0
M  V30 9764 H 893.44 1.01298 -5.6428 0
M  V30 9765 H 891.837 0.303669 -5.99331 0
M  V30 9766 H 892.907 -0.490727 -4.8241 0
M  V30 9767 N 894.251 1.57596 -0.0117121 0
M  V30 9768 C 895.181 2.12188 0.9746 0
M  V30 9769 C 896.162 1.03379 1.35081 0
M  V30 9770 O 897.347 1.31123 1.4325 0
M  V30 9771 C 894.477 2.63477 2.26268 0
M  V30 9772 C 893.431 3.76917 2.02774 0
M  V30 9773 C 892.757 4.14566 3.37697 0
M  V30 9774 C 894.057 5.03715 1.38089 0
M  V30 9775 H 895.751 2.9485 0.520007 0
M  V30 9776 H 893.297 1.41836 0.248685 0
M  V30 9777 H 895.25 3.00299 2.95633 0
M  V30 9778 H 893.974 1.77953 2.73862 0
M  V30 9779 H 892.633 3.40507 1.35832 0
M  V30 9780 H 892.281 3.26048 3.83016 0
M  V30 9781 H 891.981 4.91 3.22789 0
M  V30 9782 H 893.505 4.53956 4.08358 0
M  V30 9783 H 894.919 5.38233 1.97428 0
M  V30 9784 H 893.316 5.85032 1.33634 0
M  V30 9785 H 894.386 4.83624 0.351575 0
M  V30 9786 N 895.729 -0.261212 1.5542 0
M  V30 9787 C 896.978 -0.989072 1.75785 0
M  V30 9788 C 897.291 -1.8702 0.572961 0
M  V30 9789 O 898.497 -2.63374 0.659289 0
M  V30 9790 C 896.953 -1.80857 3.11157 0
M  V30 9791 C 896.561 -0.975535 4.3725 0
M  V30 9792 C 898.305 -2.53003 3.40866 0
M  V30 9793 C 896.212 -1.7901 5.63657 0
M  V30 9794 H 895.142 -0.373019 0.655266 0
M  V30 9795 H 897.793 -0.244267 1.81867 0
M  V30 9796 H 896.175 -2.59479 2.99144 0
M  V30 9797 H 897.349 -0.232661 4.60212 0
M  V30 9798 H 895.664 -0.368083 4.1477 0
M  V30 9799 H 898.261 -3.14372 4.32521 0
M  V30 9800 H 898.604 -3.23891 2.61535 0
M  V30 9801 H 899.137 -1.81403 3.54031 0
M  V30 9802 H 895.876 -1.12522 6.4577 0
M  V30 9803 H 895.396 -2.50863 5.44819 0
M  V30 9804 H 897.075 -2.36082 6.0239 0
M  V30 9805 N 897.207 -1.48554 -0.526253 0
M  V30 9806 C 898.137 -1.66252 -1.63959 0
M  V30 9807 C 899.118 -0.511351 -1.62232 0
M  V30 9808 O 900.303 -0.744322 -1.7937 0
M  V30 9809 C 897.433 -1.70556 -3.02536 0
M  V30 9810 C 896.387 -2.8521 -3.19123 0
M  V30 9811 C 895.713 -2.74606 -4.58798 0
M  V30 9812 C 897.013 -4.26463 -3.0154 0
M  V30 9813 H 898.707 -2.59459 -1.49404 0
M  V30 9814 H 896.253 -1.24862 -0.717326 0
M  V30 9815 H 898.206 -1.81524 -3.80298 0
M  V30 9816 H 896.93 -0.739297 -3.18123 0
M  V30 9817 H 895.589 -2.73802 -2.43779 0
M  V30 9818 H 895.237 -1.75941 -4.71226 0
M  V30 9819 H 894.937 -3.51544 -4.70841 0
M  V30 9820 H 896.461 -2.87548 -5.38655 0
M  V30 9821 H 897.875 -4.38685 -3.69091 0
M  V30 9822 H 896.272 -5.04428 -3.25073 0
M  V30 9823 H 897.342 -4.42667 -1.97925 0
M  V30 9824 N 898.685 0.775411 -1.37205 0
M  V30 9825 C 899.632 1.88857 -1.32671 0
M  V30 9826 C 900.602 1.64976 -0.192899 0
M  V30 9827 O 901.787 1.86944 -0.381673 0
M  V30 9828 C 898.927 3.25871 -1.13588 0
M  V30 9829 C 898.04 3.61731 -2.36167 0
M  V30 9830 C 897.175 4.87934 -2.09985 0
M  V30 9831 C 896.214 5.16514 -3.2845 0
M  V30 9832 N 895.351 6.33905 -3.01842 0
M  V30 9833 H 900.191 1.92068 -2.27846 0
M  V30 9834 H 897.728 0.939066 -1.13225 0
M  V30 9835 H 899.686 4.04903 -1.00546 0
M  V30 9836 H 898.316 3.22045 -0.220613 0
M  V30 9837 H 897.368 2.77712 -2.59962 0
M  V30 9838 H 898.68 3.78792 -3.24528 0
M  V30 9839 H 897.834 5.74863 -1.93953 0
M  V30 9840 H 896.573 4.7297 -1.18956 0
M  V30 9841 H 895.578 4.28063 -3.45025 0
M  V30 9842 H 896.803 5.33389 -4.20325 0
M  V30 9843 H 894.749 6.20306 -2.13439 0
M  V30 9844 H 894.666 6.51364 -3.83746 0
M  V30 9845 H 895.934 7.23779 -2.8942 0
M  V30 9846 N 900.163 1.21714 1.00117 0
M  V30 9847 C 901.44 0.945391 1.71236 0
M  V30 9848 C 901.82 -0.541772 2.0403 0
M  V30 9849 O 901.168 -1.50763 1.71705 0
M  V30 9850 C 901.378 1.83444 2.96899 0
M  V30 9851 C 902.726 2.08558 3.69849 0
M  V30 9852 O 903.75 1.80824 3.06889 0
M  V30 9853 O 902.609 2.55485 4.83104 0
M  V30 9854 H 899.703 0.354834 0.747009 0
M  V30 9855 H 902.249 1.32661 1.05825 0
M  V30 9856 H 901.021 2.84075 2.69105 0
M  V30 9857 H 900.644 1.45428 3.70049 0
M  V30 9858 N 901.641 -1.19671 1.02551 0
M  V30 9859 C 902.588 -2.22773 0.603394 0
M  V30 9860 C 903.558 -1.61669 -0.381081 0
M  V30 9861 O 904.743 -1.88756 -0.278505 0
M  V30 9862 C 901.883 -3.45073 -0.0431034 0
M  V30 9863 C 900.996 -4.20574 0.987006 0
M  V30 9864 C 900.131 -5.30291 0.310626 0
M  V30 9865 C 899.17 -5.97545 1.32688 0
M  V30 9866 N 898.307 -6.98833 0.676542 0
M  V30 9867 H 903.147 -2.58238 1.48719 0
M  V30 9868 H 900.684 -1.26881 0.744286 0
M  V30 9869 H 902.642 -4.14925 -0.435141 0
M  V30 9870 H 901.272 -3.10274 -0.890495 0
M  V30 9871 H 900.324 -3.497 1.49713 0
M  V30 9872 H 901.636 -4.66736 1.75952 0
M  V30 9873 H 900.79 -6.06547 -0.136438 0
M  V30 9874 H 899.529 -4.8519 -0.49412 0
M  V30 9875 H 898.534 -5.20043 1.78424 0
M  V30 9876 H 899.759 -6.4473 2.13306 0
M  V30 9877 H 897.705 -6.55911 -0.108172 0
M  V30 9878 H 897.622 -7.43168 1.38699 0
M  V30 9879 H 898.89 -7.79088 0.253367 0
M  V30 9880 N 903.119 -0.802921 -1.35613 0
M  V30 9881 C 904.049 -0.225131 -2.32412 0
M  V30 9882 C 905.03 0.647383 -1.57299 0
M  V30 9883 O 906.215 0.578414 -1.85386 0
M  V30 9884 C 903.345 0.630085 -3.41537 0
M  V30 9885 C 902.299 -0.143635 -4.27759 0
M  V30 9886 C 901.625 0.833046 -5.28171 0
M  V30 9887 C 902.925 -1.34054 -5.04804 0
M  V30 9888 H 904.619 -1.03385 -2.80984 0
M  V30 9889 H 902.165 -0.498593 -1.35093 0
M  V30 9890 H 904.118 1.04433 -4.08254 0
M  V30 9891 H 902.842 1.47165 -2.91565 0
M  V30 9892 H 901.501 -0.539015 -3.62616 0
M  V30 9893 H 901.149 1.67001 -4.74468 0
M  V30 9894 H 900.849 0.319697 -5.8673 0
M  V30 9895 H 902.373 1.24558 -5.97761 0
M  V30 9896 H 903.787 -1.00136 -5.64487 0
M  V30 9897 H 902.184 -1.78812 -5.72841 0
M  V30 9898 H 903.254 -2.12906 -4.35659 0
M  V30 9899 N 904.597 1.47463 -0.556102 0
M  V30 9900 C 905.825 2.06868 -0.0364585 0
M  V30 9901 C 906.24 1.40893 1.25677 0
M  V30 9902 O 905.597 0.505083 1.75371 0
M  V30 9903 C 905.648 3.61128 0.163984 0
M  V30 9904 O 905.369 4.24629 -1.07803 0
M  V30 9905 C 906.87 4.37397 0.721036 0
M  V30 9906 H 904.09 0.669466 -0.0453399 0
M  V30 9907 H 906.634 1.89482 -0.769198 0
M  V30 9908 H 904.789 3.78031 0.84685 0
M  V30 9909 H 905.203 5.17149 -0.875067 0
M  V30 9910 H 906.677 5.46016 0.810584 0
M  V30 9911 H 907.154 4.03604 1.73206 0
M  V30 9912 H 907.76 4.25236 0.073904 0
M  V30 9913 N 906.075 0.2925 1.54862 0
M  V30 9914 C 907.305 -0.321646 2.04081 0
M  V30 9915 C 907.713 -1.48712 1.16967 0
M  V30 9916 O 907.056 -1.82755 0.18609 0
M  V30 9917 C 907.118 -0.848678 3.49339 0
M  V30 9918 C 906.782 0.190416 4.56603 0
M  V30 9919 C 907.779 1.01595 5.09877 0
M  V30 9920 C 905.464 0.329666 5.01217 0
M  V30 9921 C 907.458 1.96676 6.06298 0
M  V30 9922 C 905.145 1.28393 5.9746 0
M  V30 9923 C 906.143 2.10097 6.49883 0
M  V30 9924 O 905.831 3.03907 7.44242 0
M  V30 9925 H 905.563 -0.075098 0.671816 0
M  V30 9926 H 908.117 0.427531 2.00901 0
M  V30 9927 H 906.347 -1.64823 3.49815 0
M  V30 9928 H 908.036 -1.37779 3.81801 0
M  V30 9929 H 908.802 0.919197 4.7621 0
M  V30 9930 H 904.681 -0.296317 4.60047 0
M  V30 9931 H 908.225 2.60488 6.47141 0
M  V30 9932 H 904.122 1.38144 6.30545 0
M  V30 9933 H 904.89 2.98787 7.62016 0
M  V30 9934 N 907.553 -1.57587 0.0200696 0
M  V30 9935 C 908.83 -1.82696 -0.698677 0
M  V30 9936 C 909.21 -0.902082 -1.90855 0
M  V30 9937 O 908.558 0.0444834 -2.28457 0
M  V30 9938 C 908.768 -3.31691 -1.08546 0
M  V30 9939 C 910.116 -3.97938 -1.4809 0
M  V30 9940 O 911.14 -3.36133 -1.17869 0
M  V30 9941 O 909.999 -5.06851 -2.04364 0
M  V30 9942 H 907.093 -0.752997 -0.341942 0
M  V30 9943 H 909.639 -1.69635 0.04706 0
M  V30 9944 H 908.411 -3.90659 -0.223956 0
M  V30 9945 H 908.034 -3.49825 -1.88965 0
M  V30 9946 N 909.032 0.252966 -1.55557 0
M  V30 9947 C 910.257 1.0038 -1.8149 0
M  V30 9948 C 910.682 1.78397 -0.596318 0
M  V30 9949 O 910.04 1.7551 0.454535 0
M  V30 9950 C 910.088 1.9222 -3.05096 0
M  V30 9951 O 909.192 3.01302 -2.81587 0
M  V30 9952 H 908.533 0.285949 -0.599274 0
M  V30 9953 H 911.063 0.275795 -2.02733 0
M  V30 9954 H 911.073 2.338 -3.34368 0
M  V30 9955 H 909.748 1.34852 -3.93431 0
M  V30 9956 H 908.325 2.63894 -2.63466 0
M  V30 9957 N 910.51 1.48831 0.518367 0
M  V30 9958 C 911.74 1.60886 1.29612 0
M  V30 9959 C 912.148 0.272713 1.87224 0
M  V30 9960 O 911.491 -0.749653 1.67708 0
M  V30 9961 C 911.553 2.60541 2.47707 0
M  V30 9962 C 911.217 4.05324 2.11095 0
M  V30 9963 C 912.214 4.92658 1.66084 0
M  V30 9964 C 909.899 4.50942 2.21262 0
M  V30 9965 C 911.893 6.23641 1.3172 0
M  V30 9966 C 909.58 5.81943 1.8651 0
M  V30 9967 C 910.578 6.68116 1.41812 0
M  V30 9968 O 910.266 7.96677 1.07522 0
M  V30 9969 H 909.998 0.544968 0.399982 0
M  V30 9970 H 912.552 1.95474 0.630799 0
M  V30 9971 H 910.782 2.21098 3.17258 0
M  V30 9972 H 912.471 2.62308 3.09757 0
M  V30 9973 H 913.237 4.58649 1.5769 0
M  V30 9974 H 909.116 3.84048 2.55007 0
M  V30 9975 H 912.66 6.90857 0.967598 0
M  V30 9976 H 908.557 6.15484 1.94549 0
M  V30 9977 H 909.325 8.09534 1.2082 0
M  V30 9978 N 911.988 -0.768124 1.37614 0
M  V30 9979 C 913.213 -1.56239 1.36397 0
M  V30 9980 C 913.638 -1.8804 -0.0475839 0
M  V30 9981 O 912.996 -1.495 -1.02564 0
M  V30 9982 C 913.044 -2.84716 2.21289 0
M  V30 9983 O 912.148 -3.79249 1.62001 0
M  V30 9984 H 911.489 -0.473119 0.465891 0
M  V30 9985 H 914.019 -0.950415 1.81186 0
M  V30 9986 H 914.029 -3.33784 2.34632 0
M  V30 9987 H 912.704 -2.60899 3.2389 0
M  V30 9988 H 911.281 -3.37904 1.57719 0
M  V30 9989 N 913.466 -1.22244 -0.994698 0
M  V30 9990 C 914.877 -1.043 -1.5485 0
M  V30 9991 C 915.228 0.394102 -1.92201 0
M  V30 9992 O 914.353 1.27883 -1.74571 0
M  V30 9993 C 914.948 -1.88708 -2.8138 0
M  V30 9994 C 913.507 -1.75067 -3.3321 0
M  V30 9995 C 912.654 -1.85286 -2.06312 0
M  V30 9996 H 915.605 -1.36115 -0.815988 0
M  V30 9997 H 915.626 -1.40342 -3.53673 0
M  V30 9998 H 915.138 -2.93296 -2.54164 0
M  V30 9999 H 913.239 -0.732047 -3.65338 0
M  V30 10000 H 913.352 -2.57632 -4.03934 0
M  V30 10001 H 911.716 -1.28706 -2.19788 0
M  V30 10002 H 912.499 -2.91401 -1.81494 0
M  V30 10003 N 914.944 1.19125 -1.03184 0
M  V30 10004 C 916.221 1.84674 -0.644574 0
M  V30 10005 C 916.601 1.92042 0.876534 0
M  V30 10006 O 915.949 1.43965 1.77444 0
M  V30 10007 C 916.159 3.23477 -1.3101 0
M  V30 10008 C 917.507 3.99608 -1.43524 0
M  V30 10009 O 918.531 3.32886 -1.2675 0
M  V30 10010 O 917.39 5.19132 -1.70776 0
M  V30 10011 H 914.484 0.795968 -0.22442 0
M  V30 10012 H 917.03 1.2659 -1.13018 0
M  V30 10013 H 915.802 3.12967 -2.34878 0
M  V30 10014 H 915.425 3.89209 -0.812547 0
M  V30 10015 N 916.422 0.810101 1.35185 0
M  V30 10016 C 917.65 0.404696 2.02903 0
M  V30 10017 C 918.065 -0.985434 1.61042 0
M  V30 10018 O 917.422 -1.63557 0.809658 0
M  V30 10019 C 917.473 0.482493 3.58266 0
M  V30 10020 O 917.194 1.81782 3.98606 0
M  V30 10021 C 918.695 0.070345 4.43244 0
M  V30 10022 H 915.915 0.163972 0.650657 0
M  V30 10023 H 918.459 1.0947 1.72733 0
M  V30 10024 H 916.614 -0.159296 3.87072 0
M  V30 10025 H 917.028 1.78306 4.93262 0
M  V30 10026 H 918.502 0.175888 5.5172 0
M  V30 10027 H 918.979 -0.984724 4.28018 0
M  V30 10028 H 919.585 0.685427 4.1974 0
M  V30 10029 N 917.9 -1.47166 0.563914 0
M  V30 10030 C 919.147 -2.02456 0.042371 0
M  V30 10031 C 919.475 -1.43753 -1.31016 0
M  V30 10032 O 918.73 -0.585287 -1.86743 0
M  V30 10033 C 919.029 -3.57279 -0.0931797 0
M  V30 10034 C 918.695 -4.34932 1.18933 0
M  V30 10035 C 917.357 -4.55867 1.54073 0
M  V30 10036 C 919.709 -4.79665 2.03889 0
M  V30 10037 C 917.037 -5.18785 2.74005 0
M  V30 10038 C 919.389 -5.43907 3.23029 0
M  V30 10039 C 918.053 -5.63074 3.58475 0
M  V30 10040 H 917.323 -0.740838 0.0155047 0
M  V30 10041 H 919.97 -1.76759 0.736776 0
M  V30 10042 H 918.275 -3.82005 -0.870596 0
M  V30 10043 H 919.972 -3.97716 -0.512176 0
M  V30 10044 H 916.562 -4.18921 0.905718 0
M  V30 10045 H 920.746 -4.63264 1.78046 0
M  V30 10046 H 916.002 -5.31818 3.01628 0
M  V30 10047 H 920.176 -5.77531 3.89141 0
M  V30 10048 H 917.803 -6.11598 4.515 0
M  V30 10049 N 919.378 -0.300708 -1.54705 0
M  V30 10050 C 920.308 0.568675 -2.26469 0
M  V30 10051 C 921.289 1.13817 -1.26411 0
M  V30 10052 O 922.474 1.16756 -1.55183 0
M  V30 10053 C 919.604 1.74077 -3.00524 0
M  V30 10054 C 918.558 1.30165 -4.07727 0
M  V30 10055 C 917.884 2.55888 -4.69495 0
M  V30 10056 C 919.184 0.433106 -5.20501 0
M  V30 10057 H 920.878 -0.0298851 -2.99385 0
M  V30 10058 H 918.424 -0.0158135 -1.43991 0
M  V30 10059 H 920.377 2.35506 -3.49449 0
M  V30 10060 H 919.101 2.36556 -2.25186 0
M  V30 10061 H 917.76 0.710414 -3.59651 0
M  V30 10062 H 917.408 3.16681 -3.90797 0
M  V30 10063 H 917.108 2.27207 -5.41895 0
M  V30 10064 H 918.632 3.18121 -5.21183 0
M  V30 10065 H 920.046 0.95307 -5.65322 0
M  V30 10066 H 918.443 0.240085 -5.9962 0
M  V30 10067 H 919.513 -0.541866 -4.81863 0
M  V30 10068 N 920.856 1.57574 -0.0284266 0
M  V30 10069 C 921.766 2.13637 0.96936 0
M  V30 10070 C 922.782 1.08845 1.35752 0
M  V30 10071 O 923.958 1.40899 1.43908 0
M  V30 10072 C 921.023 2.65179 2.2334 0
M  V30 10073 C 920.084 3.84683 1.90572 0
M  V30 10074 C 919.317 4.33758 3.1095 0
M  V30 10075 O 919.54 3.82009 4.23586 0
M  V30 10076 O 918.474 5.2561 2.93288 0
M  V30 10077 H 922.3 2.99169 0.52267 0
M  V30 10078 H 919.885 1.48159 0.192135 0
M  V30 10079 H 921.767 2.98402 2.97547 0
M  V30 10080 H 920.442 1.82731 2.67191 0
M  V30 10081 H 919.349 3.56386 1.13753 0
M  V30 10082 H 920.682 4.68292 1.51538 0
M  V30 10083 N 922.334 -0.244713 1.55689 0
M  V30 10084 C 923.267 -1.32946 1.85474 0
M  V30 10085 C 924.245 -1.46279 0.710021 0
M  V30 10086 O 925.429 -1.62459 0.956004 0
M  V30 10087 C 922.556 -2.7027 2.04137 0
M  V30 10088 C 921.602 -2.74075 3.2678 0
M  V30 10089 S 922.435 -2.30465 4.8337 0
M  V30 10090 C 923.591 -3.69709 5.05041 0
M  V30 10091 H 923.824 -1.07482 2.77191 0
M  V30 10092 H 921.357 -0.445807 1.47824 0
M  V30 10093 H 923.315 -3.4934 2.15574 0
M  V30 10094 H 921.976 -2.9297 1.13259 0
M  V30 10095 H 921.169 -3.74932 3.36812 0
M  V30 10096 H 920.771 -2.03051 3.1408 0
M  V30 10097 H 923.063 -4.65222 4.92518 0
M  V30 10098 H 924.006 -3.6461 6.07014 0
M  V30 10099 H 924.414 -3.62323 4.32877 0
M  V30 10100 N 923.813 -1.49104 -0.510467 0
M  V30 10101 C 925.09 -1.48609 -1.27179 0
M  V30 10102 C 925.47 -0.208537 -2.10067 0
M  V30 10103 O 924.818 0.809335 -2.13687 0
M  V30 10104 C 925.028 -2.75953 -2.1366 0
M  V30 10105 C 926.376 -3.25067 -2.73161 0
M  V30 10106 O 927.4 -2.77005 -2.23934 0
M  V30 10107 O 926.259 -4.08747 -3.62751 0
M  V30 10108 H 923.353 -0.594374 -0.57502 0
M  V30 10109 H 925.899 -1.61358 -0.525515 0
M  V30 10110 H 924.671 -3.60434 -1.52325 0
M  V30 10111 H 924.294 -2.66019 -2.95499 0
M  V30 10112 N 925.291 0.760815 -1.38019 0
M  V30 10113 C 926.221 1.88811 -1.37377 0
M  V30 10114 C 927.202 1.68388 -0.240737 0
M  V30 10115 O 928.387 1.89086 -0.442739 0
M  V30 10116 C 925.517 3.26244 -1.1909 0
M  V30 10117 C 924.471 3.61254 -2.29521 0
M  V30 10118 C 923.797 4.97346 -1.96345 0
M  V30 10119 C 925.097 3.66874 -3.71753 0
M  V30 10120 H 926.791 1.89606 -2.31711 0
M  V30 10121 H 924.337 0.910818 -1.11535 0
M  V30 10122 H 926.29 4.04755 -1.17267 0
M  V30 10123 H 925.014 3.2591 -0.212152 0
M  V30 10124 H 923.673 2.85057 -2.30517 0
M  V30 10125 H 923.321 4.93564 -0.969728 0
M  V30 10126 H 923.021 5.21739 -2.703 0
M  V30 10127 H 924.545 5.78244 -1.96129 0
M  V30 10128 H 925.959 4.35514 -3.72828 0
M  V30 10129 H 924.356 4.02772 -4.44853 0
M  V30 10130 H 925.426 2.67273 -4.0459 0
M  V30 10131 N 926.769 1.22769 0.988202 0
M  V30 10132 C 927.716 1.00195 2.07917 0
M  V30 10133 C 928.686 -0.0779391 1.65917 0
M  V30 10134 O 929.871 0.0726005 1.90662 0
M  V30 10135 C 927.011 0.590853 3.40004 0
M  V30 10136 C 926.124 1.74202 3.9532 0
M  V30 10137 C 925.259 1.27846 5.15586 0
M  V30 10138 C 924.298 2.40087 5.63049 0
M  V30 10139 N 923.435 1.94744 6.74551 0
M  V30 10140 H 928.275 1.93581 2.26562 0
M  V30 10141 H 925.812 0.96448 1.11068 0
M  V30 10142 H 927.77 0.333653 4.15864 0
M  V30 10143 H 926.4 -0.306007 3.21346 0
M  V30 10144 H 925.452 2.11342 3.16289 0
M  V30 10145 H 926.764 2.58612 4.26522 0
M  V30 10146 H 925.918 0.978919 5.9875 0
M  V30 10147 H 924.657 0.404617 4.86019 0
M  V30 10148 H 923.662 2.70824 4.78471 0
M  V30 10149 H 924.887 3.27995 5.9464 0
M  V30 10150 H 922.833 1.09729 6.46758 0
M  V30 10151 H 922.75 2.72718 7.05096 0
M  V30 10152 H 924.018 1.67873 7.61209 0
M  V30 10153 N 928.247 -1.18576 1.03814 0
M  V30 10154 C 929.179 -2.21607 0.585055 0
M  V30 10155 C 930.192 -1.59125 -0.343963 0
M  V30 10156 O 931.381 -1.77959 -0.138882 0
M  V30 10157 C 928.481 -3.38495 -0.165602 0
M  V30 10158 C 927.654 -4.30557 0.770662 0
M  V30 10159 C 926.713 -5.26161 0.0637534 0
M  V30 10160 O 925.739 -5.64961 0.693359 0
M  V30 10161 N 926.941 -5.67882 -1.20377 0
M  V30 10162 H 929.706 -2.61104 1.47121 0
M  V30 10163 H 927.267 -1.33336 0.918316 0
M  V30 10164 H 929.259 -3.99474 -0.648292 0
M  V30 10165 H 927.829 -2.97711 -0.953268 0
M  V30 10166 H 927.049 -3.67221 1.43326 0
M  V30 10167 H 928.337 -4.88969 1.40667 0
M  V30 10168 H 927.735 -5.38409 -1.73586 0
M  V30 10169 H 926.292 -6.31069 -1.63079 0
M  V30 10170 N 929.725 -0.817259 -1.34754 0
M  V30 10171 C 930.672 -0.233108 -2.2962 0
M  V30 10172 C 931.642 0.638902 -1.53321 0
M  V30 10173 O 932.827 0.581739 -1.81715 0
M  V30 10174 C 929.967 0.603659 -3.39779 0
M  V30 10175 C 929.08 -0.289967 -4.31026 0
M  V30 10176 C 928.215 0.555825 -5.28284 0
M  V30 10177 C 927.254 -0.337539 -6.11169 0
M  V30 10178 N 926.391 0.468847 -7.00533 0
M  V30 10179 H 931.231 -1.04747 -2.78984 0
M  V30 10180 H 928.768 -0.528056 -1.37295 0
M  V30 10181 H 930.726 1.10407 -4.02326 0
M  V30 10182 H 929.356 1.38319 -2.91664 0
M  V30 10183 H 928.408 -0.908552 -3.69391 0
M  V30 10184 H 929.72 -0.977136 -4.89135 0
M  V30 10185 H 928.874 1.12094 -5.96255 0
M  V30 10186 H 927.613 1.27652 -4.70698 0
M  V30 10187 H 926.618 -0.914839 -5.42135 0
M  V30 10188 H 927.843 -1.05626 -6.70835 0
M  V30 10189 H 925.789 1.17332 -6.45422 0
M  V30 10190 H 925.706 -0.160052 -7.55831 0
M  V30 10191 H 926.974 1.01689 -7.72839 0
M  V30 10192 N 931.203 1.46865 -0.571711 0
M  V30 10193 C 932.428 2.07323 -0.0564655 0
M  V30 10194 C 932.853 1.41938 1.23431 0
M  V30 10195 O 932.211 0.499334 1.74288 0
M  V30 10196 C 932.259 3.6044 0.107339 0
M  V30 10197 O 931.363 3.95558 1.1665 0
M  V30 10198 H 930.704 0.661475 -0.0578465 0
M  V30 10199 H 933.234 1.88669 -0.791524 0
M  V30 10200 H 933.244 4.06767 0.316987 0
M  V30 10201 H 931.919 4.07425 -0.835348 0
M  V30 10202 H 930.496 3.60957 0.936189 0
M  V30 10203 N 932.681 0.308908 1.54543 0
M  V30 10204 C 933.613 -0.597453 2.21276 0
M  V30 10205 C 934.626 -1.09137 1.20801 0
M  V30 10206 O 935.815 -1.00747 1.47351 0
M  V30 10207 C 932.915 -1.83085 2.85189 0
M  V30 10208 C 932.088 -1.4781 4.11669 0
M  V30 10209 C 931.147 -2.56748 4.59311 0
M  V30 10210 O 930.173 -2.21507 5.24331 0
M  V30 10211 N 931.375 -3.87427 4.32297 0
M  V30 10212 H 934.14 -0.0261183 2.99689 0
M  V30 10213 H 931.701 0.131456 1.61365 0
M  V30 10214 H 933.693 -2.55326 3.13992 0
M  V30 10215 H 932.263 -2.31039 2.1057 0
M  V30 10216 H 931.483 -0.587974 3.8979 0
M  V30 10217 H 932.771 -1.2179 4.94009 0
M  V30 10218 H 932.169 -4.18863 3.80224 0
M  V30 10219 H 930.726 -4.55942 4.6579 0
M  V30 10220 N 934.159 -1.57557 0.0367827 0
M  V30 10221 C 935.436 -1.83427 -0.679261 0
M  V30 10222 C 935.816 -0.922274 -1.89888 0
M  V30 10223 O 935.164 0.02025 -2.28491 0
M  V30 10224 C 935.374 -3.32823 -1.05022 0
M  V30 10225 C 936.722 -3.99486 -1.43861 0
M  V30 10226 O 937.746 -3.37364 -1.14297 0
M  V30 10227 O 936.605 -5.0899 -1.98977 0
M  V30 10228 H 933.699 -0.756581 -0.333936 0
M  V30 10229 H 936.245 -1.69575 0.0650494 0
M  V30 10230 H 935.017 -3.90874 -0.182509 0
M  V30 10231 H 934.64 -3.5181 -1.85244 0
M  V30 10232 N 935.637 0.236453 -1.55816 0
M  V30 10233 C 936.862 0.98449 -1.82545 0
M  V30 10234 C 937.287 1.77755 -0.615206 0
M  V30 10235 O 936.645 1.75982 0.435895 0
M  V30 10236 C 936.693 1.88973 -3.07118 0
M  V30 10237 O 935.797 2.98298 -2.84766 0
M  V30 10238 H 935.138 0.279577 -0.602273 0
M  V30 10239 H 937.668 0.254277 -2.03014 0
M  V30 10240 H 937.678 2.3024 -3.36829 0
M  V30 10241 H 936.353 1.30671 -3.94839 0
M  V30 10242 H 934.93 2.61085 -2.6625 0
M  V30 10243 N 937.115 1.49373 0.502552 0
M  V30 10244 C 938.045 1.68839 1.61294 0
M  V30 10245 C 939.026 0.537096 1.61398 0
M  V30 10246 O 940.211 0.772764 1.78163 0
M  V30 10247 C 937.341 1.75347 2.99784 0
M  V30 10248 C 936.295 2.90251 3.14545 0
M  V30 10249 C 935.621 2.8187 4.54371 0
M  V30 10250 C 936.921 4.31207 2.94717 0
M  V30 10251 H 938.615 2.61803 1.45257 0
M  V30 10252 H 936.161 1.25987 0.697371 0
M  V30 10253 H 938.114 1.87552 3.77362 0
M  V30 10254 H 936.838 0.789814 3.16906 0
M  V30 10255 H 935.497 2.77646 2.39392 0
M  V30 10256 H 935.145 1.83416 4.68367 0
M  V30 10257 H 934.845 3.5899 4.65188 0
M  V30 10258 H 936.369 2.96081 5.34012 0
M  V30 10259 H 937.783 4.44501 3.62065 0
M  V30 10260 H 936.18 5.09536 3.17007 0
M  V30 10261 H 937.25 4.45759 1.90857 0
M  V30 10262 N 938.594 -0.753485 1.38421 0
M  V30 10263 C 940.005 -1.33081 1.30944 0
M  V30 10264 C 940.356 -1.96169 -0.0347124 0
M  V30 10265 O 939.481 -1.95073 -0.936768 0
M  V30 10266 C 940.076 -2.41973 2.37138 0
M  V30 10267 C 938.635 -2.95426 2.33239 0
M  V30 10268 C 937.782 -1.68808 2.19998 0
M  V30 10269 H 940.733 -0.552354 1.48777 0
M  V30 10270 H 940.754 -3.21913 2.02859 0
M  V30 10271 H 940.266 -1.96027 3.34956 0
M  V30 10272 H 938.367 -3.45701 1.39003 0
M  V30 10273 H 938.48 -3.49798 3.27381 0
M  V30 10274 H 936.844 -1.92438 1.66852 0
M  V30 10275 H 937.627 -1.24939 3.19758 0
M  V30 10276 N 940.072 -1.23292 -0.981677 0
M  V30 10277 C 941.004 -0.970782 -2.07626 0
M  V30 10278 C 942.017 0.0547506 -1.62708 0
M  V30 10279 O 943.206 -0.180623 -1.77584 0
M  V30 10280 C 940.306 -0.44055 -3.36024 0
M  V30 10281 C 939.479 -1.52595 -4.09919 0
M  V30 10282 C 938.538 -1.00082 -5.16595 0
M  V30 10283 O 937.564 -1.68951 -5.43548 0
M  V30 10284 N 938.766 0.172017 -5.80245 0
M  V30 10285 H 941.531 -1.91316 -2.30691 0
M  V30 10286 H 939.092 -1.14133 -1.14828 0
M  V30 10287 H 941.084 -0.0743111 -4.04632 0
M  V30 10288 H 939.654 0.407211 -3.09936 0
M  V30 10289 H 938.874 -2.06501 -3.35784 0
M  V30 10290 H 940.162 -2.2559 -4.56055 0
M  V30 10291 H 939.56 0.748129 -5.60731 0
M  V30 10292 H 938.117 0.479532 -6.50034 0
M  V30 10293 N 941.55 1.18024 -1.04442 0
M  V30 10294 C 942.497 2.21785 -0.638759 0
M  V30 10295 C 943.467 1.62255 0.355312 0
M  V30 10296 O 944.652 1.89176 0.24844 0
M  V30 10297 C 941.792 3.45098 -0.0118002 0
M  V30 10298 C 940.905 4.1895 -1.05379 0
M  V30 10299 C 940.04 5.2973 -0.394951 0
M  V30 10300 C 939.079 5.95359 -1.42178 0
M  V30 10301 N 938.216 6.97668 -0.787635 0
M  V30 10302 H 943.056 2.55839 -1.52808 0
M  V30 10303 H 940.593 1.25681 -0.764378 0
M  V30 10304 H 942.551 4.15564 0.369075 0
M  V30 10305 H 941.181 3.11652 0.84102 0
M  V30 10306 H 940.233 3.47274 -1.55258 0
M  V30 10307 H 941.545 4.63877 -1.83355 0
M  V30 10308 H 940.699 6.06687 0.0399244 0
M  V30 10309 H 939.438 4.85915 0.416867 0
M  V30 10310 H 938.443 5.17139 -1.86675 0
M  V30 10311 H 939.668 6.41255 -2.23536 0
M  V30 10312 H 937.614 6.56 0.00380893 0
M  V30 10313 H 937.531 7.40867 -1.50505 0
M  V30 10314 H 938.799 7.78586 -0.377282 0
M  V30 10315 N 943.028 0.824394 1.34319 0
M  V30 10316 C 943.976 0.235628 2.31403 0
M  V30 10317 C 944.97 -0.624443 1.57471 0
M  V30 10318 O 946.176 -0.515618 1.72457 0
M  V30 10319 H 942.551 0.0574537 0.749802 0
M  V30 10320 H 944.522 1.06925 2.78585 0
M  V30 10321 C 943.271 -0.586617 3.42716 0
M  V30 10322 H 942.594 0.0658669 3.99746 0
M  V30 10323 H 944.034 -0.964661 4.1288 0
M  V30 10324 C 942.493 -1.75957 2.87299 0
M  V30 10325 O 943.023 -2.8578 2.82299 0
M  V30 10326 N 941.229 -1.57678 2.44102 0
M  V30 10327 H 940.776 -0.683436 2.48369 0
M  V30 10328 H 940.734 -2.36311 2.07375 0
M  V30 10329 N 944.506 -1.46559 0.579492 0
M  V30 10330 C 945.755 -2.01606 0.0615735 0
M  V30 10331 C 946.068 -1.45695 -1.30508 0
M  V30 10332 O 947.274 -1.92541 -1.91416 0
M  V30 10333 C 945.73 -3.59851 0.059496 0
M  V30 10334 C 945.338 -4.24757 1.42427 0
M  V30 10335 C 947.082 -4.22567 -0.404646 0
M  V30 10336 C 944.989 -5.75072 1.38009 0
M  V30 10337 H 943.919 -0.753754 0.0192491 0
M  V30 10338 H 946.57 -1.68326 0.73066 0
M  V30 10339 H 944.952 -3.90193 -0.675691 0
M  V30 10340 H 946.126 -4.06029 2.17893 0
M  V30 10341 H 944.441 -3.74121 1.82817 0
M  V30 10342 H 947.038 -5.32748 -0.456441 0
M  V30 10343 H 947.381 -3.91279 -1.42149 0
M  V30 10344 H 947.914 -3.96839 0.276376 0
M  V30 10345 H 944.653 -6.11014 2.37364 0
M  V30 10346 H 944.173 -5.96073 0.667583 0
M  V30 10347 H 945.852 -6.37724 1.09163 0
M  V30 10348 N 945.984 -0.3171 -1.54377 0
M  V30 10349 C 947.233 0.288271 -1.99629 0
M  V30 10350 C 947.546 1.53754 -1.2091 0
M  V30 10351 O 948.752 2.2185 -1.56508 0
M  V30 10352 C 947.208 0.564188 -3.5545 0
M  V30 10353 C 946.816 -0.667659 -4.42997 0
M  V30 10354 C 948.56 1.12987 -4.09187 0
M  V30 10355 C 946.467 -0.364003 -5.90279 0
M  V30 10356 H 945.397 0.111492 -0.745711 0
M  V30 10357 H 948.048 -0.428317 -1.78431 0
M  V30 10358 H 946.43 1.34079 -3.72611 0
M  V30 10359 H 947.604 -1.44335 -4.37612 0
M  V30 10360 H 945.919 -1.1531 -4.00116 0
M  V30 10361 H 948.516 1.37157 -5.1681 0
M  V30 10362 H 948.859 2.07722 -3.60773 0
M  V30 10363 H 949.392 0.414595 -3.95634 0
M  V30 10364 H 946.131 -1.28035 -6.42874 0
M  V30 10365 H 945.651 0.374102 -5.98632 0
M  V30 10366 H 947.33 0.0285433 -6.46994 0
M  V30 10367 N 947.462 1.57535 -0.0451378 0
M  V30 10368 C 948.878 1.56533 0.311373 0
M  V30 10369 C 949.078 1.05225 1.71843 0
M  V30 10370 O 948.134 0.706144 2.42425 0
M  V30 10371 C 949.447 3.00349 0.145348 0
M  V30 10372 C 950.995 3.12248 0.216908 0
M  V30 10373 C 951.47 4.57931 0.0794834 0
M  V30 10374 N 952.961 4.63 0.135954 0
M  V30 10375 C 953.696 5.73375 0.0536426 0
M  V30 10376 N 953.192 6.92753 -0.0806725 0
M  V30 10377 N 954.985 5.61995 0.108789 0
M  V30 10378 H 947.136 1.89211 -0.965044 0
M  V30 10379 H 949.399 0.871068 -0.374091 0
M  V30 10380 H 949.105 3.41898 -0.824533 0
M  V30 10381 H 948.979 3.66086 0.908903 0
M  V30 10382 H 951.366 2.70601 1.17726 0
M  V30 10383 H 951.447 2.49201 -0.577299 0
M  V30 10384 H 951.091 5.00262 -0.877516 0
M  V30 10385 H 951.021 5.18977 0.892758 0
M  V30 10386 H 953.512 3.77142 0.23926 0
M  V30 10387 H 953.825 7.7268 -0.136351 0
M  V30 10388 H 952.17 6.94904 -0.115675 0
M  V30 10389 H 955.361 4.67619 0.212235 0
M  V30 10390 H 955.534 6.47987 0.0411822 0
M  V30 10391 N 948.94 -0.228186 1.55939 0
M  V30 10392 C 949.87 -1.28607 1.94891 0
M  V30 10393 C 950.851 -1.49236 0.816245 0
M  V30 10394 O 952.036 -1.61531 1.07803 0
M  V30 10395 C 949.166 -2.63719 2.25986 0
M  V30 10396 C 948.12 -2.57757 3.4168 0
M  V30 10397 C 947.446 -3.96837 3.58364 0
M  V30 10398 C 948.746 -2.13116 4.76843 0
M  V30 10399 H 950.44 -0.962531 2.83506 0
M  V30 10400 H 947.986 -0.461577 1.36402 0
M  V30 10401 H 949.939 -3.37878 2.51826 0
M  V30 10402 H 948.663 -2.97747 1.34217 0
M  V30 10403 H 947.322 -1.86055 3.15878 0
M  V30 10404 H 946.97 -4.28162 2.63982 0
M  V30 10405 H 946.67 -3.93731 4.36176 0
M  V30 10406 H 948.194 -4.72668 3.86545 0
M  V30 10407 H 949.608 -2.77015 5.01932 0
M  V30 10408 H 948.005 -2.21083 5.57891 0
M  V30 10409 H 949.075 -1.08326 4.72645 0
M  V30 10410 N 950.418 -1.49637 -0.494624 0
M  V30 10411 C 951.643 -1.63431 -1.27691 0
M  V30 10412 C 952.068 -0.30813 -1.85559 0
M  V30 10413 O 951.426 0.725083 -1.66169 0
M  V30 10414 C 951.474 -2.71043 -2.3784 0
M  V30 10415 O 950.578 -2.3066 -3.41862 0
M  V30 10416 H 949.919 -0.546804 -0.376698 0
M  V30 10417 H 952.449 -1.95866 -0.591413 0
M  V30 10418 H 952.459 -2.93406 -2.83508 0
M  V30 10419 H 951.134 -3.67306 -1.95088 0
M  V30 10420 H 949.711 -2.18652 -3.02069 0
M  V30 10421 N 951.896 0.746133 -1.38819 0
M  V30 10422 C 952.859 1.84167 -1.36437 0
M  V30 10423 C 953.859 1.58626 -0.263499 0
M  V30 10424 O 955.049 1.66233 -0.520801 0
M  V30 10425 C 952.181 3.21769 -1.12596 0
M  V30 10426 H 953.374 1.87684 -2.33912 0
M  V30 10427 H 950.927 0.948625 -1.24221 0
M  V30 10428 H 951.662 3.23917 -0.15758 0
M  V30 10429 H 951.447 3.41702 -1.92307 0
M  V30 10430 H 952.937 4.0184 -1.13643 0
M  V30 10431 N 953.375 1.23811 0.975125 0
M  V30 10432 C 954.285 1.0408 2.10249 0
M  V30 10433 C 955.301 -0.0162404 1.73992 0
M  V30 10434 O 956.477 0.180346 2.00591 0
M  V30 10435 C 953.542 0.640013 3.40741 0
M  V30 10436 C 952.603 1.7727 3.90991 0
M  V30 10437 C 951.836 1.39094 5.15256 0
M  V30 10438 O 952.059 0.277483 5.69725 0
M  V30 10439 O 950.993 2.21392 5.59704 0
M  V30 10440 H 954.819 1.98575 2.29786 0
M  V30 10441 H 952.404 1.02563 1.08633 0
M  V30 10442 H 954.286 0.427684 4.19224 0
M  V30 10443 H 952.961 -0.27589 3.22522 0
M  V30 10444 H 951.868 2.03971 3.13602 0
M  V30 10445 H 953.201 2.66711 4.13674 0
M  V30 10446 N 954.853 -1.17469 1.05066 0
M  V30 10447 C 956.264 -1.69334 0.786304 0
M  V30 10448 C 956.615 -1.83604 -0.691671 0
M  V30 10449 O 955.74 -1.52269 -1.53763 0
M  V30 10450 C 956.335 -3.07572 1.42074 0
M  V30 10451 C 954.894 -3.56609 1.20446 0
M  V30 10452 C 954.041 -2.329 1.50508 0
M  V30 10453 H 956.992 -1.02003 1.21577 0
M  V30 10454 H 957.013 -3.71352 0.829334 0
M  V30 10455 H 956.525 -2.97154 2.49642 0
M  V30 10456 H 954.626 -3.72306 0.147968 0
M  V30 10457 H 954.739 -4.39446 1.90852 0
M  V30 10458 H 953.103 -2.37305 0.925124 0
M  V30 10459 H 953.886 -2.25093 2.59207 0
M  V30 10460 N 956.331 -0.831506 -1.3388 0
M  V30 10461 C 957.747 -0.518349 -1.50948 0
M  V30 10462 C 957.947 0.955807 -1.77388 0
M  V30 10463 O 957.003 1.73993 -1.82983 0
M  V30 10464 C 958.316 -1.38531 -2.66889 0
M  V30 10465 C 959.864 -1.38332 -2.80772 0
M  V30 10466 C 960.339 -2.23497 -3.99766 0
M  V30 10467 N 961.83 -2.21167 -4.06988 0
M  V30 10468 C 962.565 -2.83805 -4.98239 0
M  V30 10469 N 962.061 -3.55468 -5.94655 0
M  V30 10470 N 963.854 -2.73314 -4.91178 0
M  V30 10471 H 956.005 -1.78588 -1.14978 0
M  V30 10472 H 958.268 -0.761508 -0.564633 0
M  V30 10473 H 957.974 -2.43255 -2.54007 0
M  V30 10474 H 957.848 -1.05611 -3.62114 0
M  V30 10475 H 960.235 -0.343832 -2.9309 0
M  V30 10476 H 960.316 -1.75256 -1.86331 0
M  V30 10477 H 959.96 -3.27501 -3.88208 0
M  V30 10478 H 959.89 -1.83919 -4.93438 0
M  V30 10479 H 962.381 -1.69046 -3.37982 0
M  V30 10480 H 962.694 -4.00487 -6.60931 0
M  V30 10481 H 961.039 -3.59575 -5.94753 0
M  V30 10482 H 964.23 -2.16897 -4.14817 0
M  V30 10483 H 964.403 -3.22416 -5.62096 0
M  V30 10484 N 957.809 1.4625 -0.587256 0
M  V30 10485 C 959.039 2.06444 -0.0802135 0
M  V30 10486 C 959.447 1.43585 1.23207 0
M  V30 10487 O 958.79 0.536956 1.75677 0
M  V30 10488 C 958.852 3.59165 0.155129 0
M  V30 10489 C 958.516 4.44243 -1.07225 0
M  V30 10490 C 959.513 4.80497 -1.98542 0
M  V30 10491 C 957.198 4.8531 -1.29537 0
M  V30 10492 C 959.192 5.56649 -3.10516 0
M  V30 10493 C 956.879 5.61221 -2.41815 0
M  V30 10494 C 957.877 5.96805 -3.32134 0
M  V30 10495 O 957.565 6.71181 -4.42461 0
M  V30 10496 H 957.297 0.673626 -0.0566063 0
M  V30 10497 H 959.851 1.88797 -0.809004 0
M  V30 10498 H 958.081 3.75137 0.938583 0
M  V30 10499 H 959.77 4.01271 0.611243 0
M  V30 10500 H 960.536 4.49345 -1.82522 0
M  V30 10501 H 956.415 4.5706 -0.601431 0
M  V30 10502 H 959.959 5.84343 -3.81037 0
M  V30 10503 H 955.856 5.91786 -2.57797 0
M  V30 10504 H 956.624 6.8961 -4.40886 0
M  V30 10505 N 959.287 0.325282 1.54207 0
M  V30 10506 C 960.217 -0.532574 2.27345 0
M  V30 10507 C 961.198 -1.11791 1.28206 0
M  V30 10508 O 962.383 -1.14272 1.57021 0
M  V30 10509 C 959.513 -1.69274 3.03255 0
M  V30 10510 C 958.467 -1.23662 4.09746 0
M  V30 10511 C 957.793 -2.48386 4.73506 0
M  V30 10512 C 959.093 -0.350244 5.21124 0
M  V30 10513 H 960.787 0.0775108 2.993 0
M  V30 10514 H 958.333 0.0387193 1.43948 0
M  V30 10515 H 960.286 -2.29917 3.53152 0
M  V30 10516 H 959.01 -2.32944 2.28921 0
M  V30 10517 H 957.669 -0.653106 3.60735 0
M  V30 10518 H 957.317 -3.10424 3.95786 0
M  V30 10519 H 957.017 -2.18558 5.45441 0
M  V30 10520 H 958.541 -3.09789 5.26178 0
M  V30 10521 H 959.955 -0.863011 5.66767 0
M  V30 10522 H 958.352 -0.14466 5.99926 0
M  V30 10523 H 959.422 0.618457 4.8094 0
M  V30 10524 N 960.765 -1.57509 0.0534917 0
M  V30 10525 C 962.011 -1.93068 -0.62069 0
M  V30 10526 C 962.344 -0.932313 -1.70357 0
M  V30 10527 O 961.619 0.0413393 -1.94456 0
M  V30 10528 C 961.902 -3.38997 -1.21463 0
M  V30 10529 C 961.755 -4.49583 -0.13965 0
M  V30 10530 C 963.074 -3.85366 -2.12558 0
M  V30 10531 H 960.193 -0.702083 -0.224163 0
M  V30 10532 H 962.835 -1.89647 0.115729 0
M  V30 10533 H 960.985 -3.42043 -1.84226 0
M  V30 10534 H 962.657 -4.58664 0.492411 0
M  V30 10535 H 960.9 -4.30525 0.532006 0
M  V30 10536 H 961.571 -5.48781 -0.595287 0
M  V30 10537 H 964.047 -3.8421 -1.59755 0
M  V30 10538 H 962.923 -4.8812 -2.51058 0
M  V30 10539 H 963.184 -3.22256 -3.02661 0
M  V30 10540 N 962.243 0.219913 -1.56058 0
M  V30 10541 C 963.489 0.945463 -1.79412 0
M  V30 10542 C 963.822 1.83922 -0.62341 0
M  V30 10543 O 963.097 1.90806 0.377256 0
M  V30 10544 C 963.38 1.783 -3.1286 0
M  V30 10545 C 963.233 0.915626 -4.40382 0
M  V30 10546 C 964.552 2.76045 -3.42764 0
M  V30 10547 H 961.671 0.342288 -0.652693 0
M  V30 10548 H 964.313 0.214235 -1.88788 0
M  V30 10549 H 962.463 2.40642 -3.04998 0
M  V30 10550 H 964.135 0.30882 -4.60265 0
M  V30 10551 H 962.378 0.221124 -4.33236 0
M  V30 10552 H 963.049 1.53607 -5.30197 0
M  V30 10553 H 965.525 2.23838 -3.50764 0
M  V30 10554 H 964.401 3.31748 -4.37304 0
M  V30 10555 H 964.662 3.53866 -2.65012 0
M  V30 10556 N 963.721 1.49897 0.486681 0
M  V30 10557 C 964.951 1.63599 1.2617 0
M  V30 10558 C 965.359 0.312365 1.86604 0
M  V30 10559 O 964.702 -0.713911 1.6926 0
M  V30 10560 C 964.764 2.65736 2.42125 0
M  V30 10561 C 964.428 4.09711 2.0245 0
M  V30 10562 C 965.425 4.9607 1.55596 0
M  V30 10563 C 963.11 4.55534 2.11647 0
M  V30 10564 C 965.104 6.26295 1.18462 0
M  V30 10565 C 962.791 5.85768 1.74124 0
M  V30 10566 C 963.789 6.70973 1.27608 0
M  V30 10567 O 963.477 7.98778 0.905991 0
M  V30 10568 H 963.209 0.55333 0.388332 0
M  V30 10569 H 965.763 1.96768 0.589195 0
M  V30 10570 H 963.993 2.27778 3.12497 0
M  V30 10571 H 965.682 2.68819 3.04123 0
M  V30 10572 H 966.448 4.61891 1.47925 0
M  V30 10573 H 962.327 3.8937 2.46803 0
M  V30 10574 H 965.871 6.92754 0.820839 0
M  V30 10575 H 961.768 6.19473 1.8145 0
M  V30 10576 H 962.536 8.11914 1.03621 0
M  V30 10577 N 965.199 -0.738761 1.39212 0
M  V30 10578 C 966.147 -1.8741 1.3777 0
M  V30 10579 C 967.141 -1.67371 0.261375 0
M  V30 10580 O 968.347 -1.74759 0.431209 0
M  V30 10581 H 964.722 -0.616843 0.430126 0
M  V30 10582 H 966.693 -1.85742 2.33543 0
M  V30 10583 C 965.442 -3.25053 1.23433 0
M  V30 10584 H 964.765 -3.41066 2.086 0
M  V30 10585 H 966.205 -4.04696 1.2648 0
M  V30 10586 C 964.664 -3.36851 -0.0575624 0
M  V30 10587 O 965.194 -3.88293 -1.02915 0
M  V30 10588 N 963.4 -2.90355 -0.119364 0
M  V30 10589 H 962.947 -2.48681 0.671976 0
M  V30 10590 H 962.905 -2.98628 -0.983286 0
M  V30 10591 N 966.677 -1.24326 -0.968545 0
M  V30 10592 C 968.088 -1.07561 -1.52603 0
M  V30 10593 C 968.439 0.353245 -1.92994 0
M  V30 10594 O 967.564 1.24151 -1.77244 0
M  V30 10595 C 968.159 -1.94634 -2.77314 0
M  V30 10596 C 966.718 -1.82095 -3.29421 0
M  V30 10597 C 965.865 -1.8962 -2.02335 0
M  V30 10598 H 968.816 -1.37815 -0.786932 0
M  V30 10599 H 968.837 -1.47812 -3.50616 0
M  V30 10600 H 968.349 -2.98621 -2.47885 0
M  V30 10601 H 966.45 -0.809376 -3.63703 0
M  V30 10602 H 966.563 -2.66142 -3.98378 0
M  V30 10603 H 964.927 -1.33339 -2.17009 0
M  V30 10604 H 965.71 -2.95185 -1.75273 0
M  V30 10605 N 968.156 1.1691 -1.05688 0
M  V30 10606 C 969.086 2.23275 -0.683402 0
M  V30 10607 C 970.067 1.6704 0.321206 0
M  V30 10608 O 971.252 1.93191 0.197691 0
M  V30 10609 C 968.382 3.47244 -0.0626006 0
M  V30 10610 C 967.336 4.16333 -0.992513 0
M  V30 10611 C 966.662 5.34182 -0.23533 0
M  V30 10612 C 967.962 4.68002 -2.31886 0
M  V30 10613 H 969.656 2.54771 -1.57264 0
M  V30 10614 H 967.202 1.2246 -0.757606 0
M  V30 10615 H 969.155 4.20874 0.210503 0
M  V30 10616 H 967.879 3.1503 0.861616 0
M  V30 10617 H 966.538 3.44622 -1.25026 0
M  V30 10618 H 966.186 4.9822 0.69181 0
M  V30 10619 H 965.886 5.81346 -0.855002 0
M  V30 10620 H 967.41 6.10592 0.0303717 0
M  V30 10621 H 968.824 5.33244 -2.10531 0
M  V30 10622 H 967.221 5.25764 -2.89296 0
M  V30 10623 H 968.291 3.84541 -2.95391 0
M  V30 10624 N 969.634 0.838594 1.33437 0
M  V30 10625 C 970.544 0.274048 2.32994 0
M  V30 10626 C 971.56 -0.599776 1.63336 0
M  V30 10627 O 972.736 -0.503963 1.94993 0
M  V30 10628 C 969.801 -0.541804 3.4244 0
M  V30 10629 C 968.862 0.356262 4.27819 0
M  V30 10630 C 968.095 -0.420747 5.32039 0
M  V30 10631 O 968.318 -1.65247 5.45939 0
M  V30 10632 O 967.252 0.205101 6.0155 0
M  V30 10633 H 971.078 1.09846 2.83139 0
M  V30 10634 H 968.663 0.601111 1.36774 0
M  V30 10635 H 970.545 -1.00544 4.0923 0
M  V30 10636 H 969.22 -1.34328 2.94513 0
M  V30 10637 H 968.127 0.867726 3.63897 0
M  V30 10638 H 969.46 1.1225 4.79229 0
M  V30 10639 N 971.112 -1.45937 0.595003 0
M  V30 10640 C 972.044 -2.28575 -0.169137 0
M  V30 10641 C 973.057 -1.39226 -0.843792 0
M  V30 10642 O 974.246 -1.63716 -0.711291 0
M  V30 10643 C 971.346 -3.14616 -1.25976 0
M  V30 10644 C 970.519 -4.32166 -0.67466 0
M  V30 10645 C 969.578 -4.99511 -1.65456 0
M  V30 10646 O 968.604 -5.56712 -1.18578 0
M  V30 10647 N 969.806 -4.97643 -2.98885 0
M  V30 10648 H 972.571 -2.94797 0.539908 0
M  V30 10649 H 970.132 -1.55985 0.433614 0
M  V30 10650 H 972.124 -3.56534 -1.91483 0
M  V30 10651 H 970.694 -2.50387 -1.8715 0
M  V30 10652 H 969.914 -3.93882 0.158184 0
M  V30 10653 H 971.202 -5.08116 -0.263753 0
M  V30 10654 H 970.6 -4.52438 -3.39583 0
M  V30 10655 H 969.157 -5.43463 -3.59848 0
M  V30 10656 N 972.59 -0.333456 -1.54032 0
M  V30 10657 C 973.867 0.320902 -1.9295 0
M  V30 10658 C 974.247 1.69071 -1.26405 0
M  V30 10659 O 973.595 2.24768 -0.411311 0
M  V30 10660 C 973.805 0.403257 -3.46662 0
M  V30 10661 C 975.153 0.658875 -4.19457 0
M  V30 10662 O 976.177 0.485781 -3.52872 0
M  V30 10663 O 975.036 0.993475 -5.37394 0
M  V30 10664 H 972.13 0.185158 -0.806006 0
M  V30 10665 H 974.676 -0.383895 -1.65301 0
M  V30 10666 H 973.448 -0.558409 -3.87295 0
M  V30 10667 H 973.071 1.15524 -3.80447 0
M  V30 10668 N 974.068 1.57479 -0.061844 0
M  V30 10669 C 975.484 1.56855 0.294753 0
M  V30 10670 C 975.684 1.07042 1.70717 0
M  V30 10671 O 974.74 0.731817 2.41662 0
M  V30 10672 C 976.053 3.00486 0.113484 0
M  V30 10673 C 977.601 3.1246 0.183778 0
M  V30 10674 C 978.076 4.5799 0.0309092 0
M  V30 10675 N 979.567 4.63119 0.0868393 0
M  V30 10676 C 980.302 5.734 -0.00717446 0
M  V30 10677 N 979.798 6.92628 -0.154144 0
M  V30 10678 N 981.591 5.62078 0.0491763 0
M  V30 10679 H 973.742 1.88176 -0.985058 0
M  V30 10680 H 976.005 0.867051 -0.383309 0
M  V30 10681 H 975.711 3.41004 -0.86075 0
M  V30 10682 H 975.585 3.67029 0.870023 0
M  V30 10683 H 977.972 2.71834 1.14849 0
M  V30 10684 H 978.053 2.48574 -0.603697 0
M  V30 10685 H 977.697 4.99303 -0.930526 0
M  V30 10686 H 977.627 5.19895 0.837664 0
M  V30 10687 H 980.118 3.77374 0.199245 0
M  V30 10688 H 980.431 7.72492 -0.218296 0
M  V30 10689 H 978.776 6.94742 -0.189372 0
M  V30 10690 H 981.967 4.67817 0.162626 0
M  V30 10691 H 982.14 6.47994 -0.0275478 0
M  V30 10692 N 975.546 -0.211634 1.56173 0
M  V30 10693 C 976.795 -0.932647 1.78842 0
M  V30 10694 C 977.108 -1.85103 0.63217 0
M  V30 10695 O 978.314 -2.61143 0.742746 0
M  V30 10696 C 976.77 -1.70866 3.16753 0
M  V30 10697 C 976.378 -0.835934 4.40132 0
M  V30 10698 C 978.122 -2.4203 3.48743 0
M  V30 10699 C 976.029 -1.60987 5.69067 0
M  V30 10700 H 974.959 -0.351983 0.666801 0
M  V30 10701 H 977.61 -0.186284 1.82552 0
M  V30 10702 H 975.992 -2.4983 3.07247 0
M  V30 10703 H 977.166 -0.0861298 4.60719 0
M  V30 10704 H 975.481 -0.235941 4.15731 0
M  V30 10705 H 978.078 -3.00453 4.42303 0
M  V30 10706 H 978.421 -3.15406 2.71707 0
M  V30 10707 H 978.954 -1.70048 3.59623 0
M  V30 10708 H 975.693 -0.9192 6.49023 0
M  V30 10709 H 975.213 -2.33403 5.52524 0
M  V30 10710 H 976.892 -2.16798 6.09596 0
M  V30 10711 N 977.024 -1.50153 -0.478725 0
M  V30 10712 C 978.249 -1.64776 -1.2595 0
M  V30 10713 C 978.674 -0.327794 -1.85222 0
M  V30 10714 O 978.032 0.707418 -1.66929 0
M  V30 10715 C 978.08 -2.73551 -2.34952 0
M  V30 10716 O 977.184 -2.34273 -3.39397 0
M  V30 10717 H 976.525 -0.550769 -0.370877 0
M  V30 10718 H 979.055 -1.96482 -0.570605 0
M  V30 10719 H 979.065 -2.96397 -2.8038 0
M  V30 10720 H 977.74 -3.69354 -1.91181 0
M  V30 10721 H 976.317 -2.21844 -2.99733 0
M  V30 10722 N 978.502 0.731368 -1.39602 0
M  V30 10723 C 979.432 1.85855 -1.41351 0
M  V30 10724 C 980.413 1.67839 -0.2764 0
M  V30 10725 O 981.598 1.88104 -0.482747 0
M  V30 10726 C 978.728 3.23644 -1.25983 0
M  V30 10727 C 977.682 3.56304 -2.37132 0
M  V30 10728 C 977.008 4.93069 -2.0685 0
M  V30 10729 C 978.308 3.58906 -3.79452 0
M  V30 10730 H 980.002 1.84648 -2.3568 0
M  V30 10731 H 977.548 0.886955 -1.13442 0
M  V30 10732 H 979.501 4.02176 -1.25826 0
M  V30 10733 H 978.225 3.25387 -0.281234 0
M  V30 10734 H 976.884 2.80104 -2.36511 0
M  V30 10735 H 976.532 4.91396 -1.0742 0
M  V30 10736 H 976.232 5.15888 -2.81306 0
M  V30 10737 H 977.756 5.73953 -2.0835 0
M  V30 10738 H 979.17 4.27508 -3.81982 0
M  V30 10739 H 977.567 3.93246 -4.53297 0
M  V30 10740 H 978.637 2.58631 -4.10168 0
M  V30 10741 N 979.98 1.24838 0.961938 0
M  V30 10742 C 981.226 1.09313 1.70817 0
M  V30 10743 C 981.559 -0.366244 1.90715 0
M  V30 10744 O 980.834 -1.27036 1.47282 0
M  V30 10745 C 981.117 1.83988 3.09549 0
M  V30 10746 C 980.97 3.3771 2.97106 0
M  V30 10747 C 982.289 1.61718 4.09311 0
M  V30 10748 H 979.408 0.398498 0.619974 0
M  V30 10749 H 982.05 1.53579 1.11864 0
M  V30 10750 H 980.2 1.46363 3.59875 0
M  V30 10751 H 981.872 3.84967 2.54161 0
M  V30 10752 H 980.115 3.65795 2.33187 0
M  V30 10753 H 980.786 3.85166 3.95412 0
M  V30 10754 H 983.262 1.94458 3.67866 0
M  V30 10755 H 982.138 2.16415 5.04436 0
M  V30 10756 H 982.399 0.55677 4.3858 0
M  V30 10757 N 981.458 -1.16348 1.06306 0
M  V30 10758 C 982.683 -1.91323 0.800636 0
M  V30 10759 C 983.108 -1.7691 -0.639105 0
M  V30 10760 O 982.466 -1.0945 -1.44535 0
M  V30 10761 C 982.514 -3.40038 1.20027 0
M  V30 10762 O 981.618 -4.11003 0.339142 0
M  V30 10763 H 980.959 -0.596057 0.292595 0
M  V30 10764 H 983.489 -1.47406 1.41889 0
M  V30 10765 H 983.499 -3.90808 1.17188 0
M  V30 10766 H 982.174 -3.49848 2.24898 0
M  V30 10767 H 980.751 -3.70423 0.42911 0
M  V30 10768 N 982.937 -0.845659 -1.3299 0
M  V30 10769 C 984.183 -0.445311 -1.9785 0
M  V30 10770 C 984.516 0.994476 -1.66805 0
M  V30 10771 O 983.791 1.69636 -0.95151 0
M  V30 10772 C 984.074 -0.674371 -3.53729 0
M  V30 10773 C 983.927 -2.16192 -3.94437 0
M  V30 10774 C 985.246 -0.124908 -4.39923 0
M  V30 10775 H 982.365 -0.163269 -0.718688 0
M  V30 10776 H 985.007 -1.06242 -1.5752 0
M  V30 10777 H 983.157 -0.149091 -3.88214 0
M  V30 10778 H 984.829 -2.75259 -3.70176 0
M  V30 10779 H 983.072 -2.64386 -3.43922 0
M  V30 10780 H 983.743 -2.27292 -5.03033 0
M  V30 10781 H 986.219 -0.573986 -4.12122 0
M  V30 10782 H 985.095 -0.314816 -5.47996 0
M  V30 10783 H 985.356 0.971758 -4.31288 0
M  V30 10784 N 984.415 1.45619 -0.602734 0
M  V30 10785 C 985.645 2.06348 -0.102105 0
M  V30 10786 C 986.053 1.44884 1.21677 0
M  V30 10787 O 985.396 0.555559 1.75098 0
M  V30 10788 C 985.458 3.59309 0.117026 0
M  V30 10789 C 985.122 4.43081 -1.11931 0
M  V30 10790 C 986.119 4.78364 -2.03627 0
M  V30 10791 C 983.804 4.83908 -1.34677 0
M  V30 10792 C 985.798 5.53325 -3.16403 0
M  V30 10793 C 983.485 5.58624 -2.47754 0
M  V30 10794 C 984.483 5.93249 -3.38445 0
M  V30 10795 O 984.171 6.6645 -4.49555 0
M  V30 10796 H 983.903 0.672988 -0.0637478 0
M  V30 10797 H 986.457 1.87928 -0.828983 0
M  V30 10798 H 984.687 3.76111 0.898742 0
M  V30 10799 H 986.376 4.01897 0.568649 0
M  V30 10800 H 987.142 4.47384 -1.87277 0
M  V30 10801 H 983.021 4.56396 -0.649875 0
M  V30 10802 H 986.565 5.80268 -3.87214 0
M  V30 10803 H 982.462 5.89019 -2.64059 0
M  V30 10804 H 983.23 6.84895 -4.48175 0
M  V30 10805 N 985.893 0.34162 1.53853 0
M  V30 10806 C 987.139 -0.255862 2.01179 0
M  V30 10807 C 987.472 -1.50356 1.22909 0
M  V30 10808 O 986.747 -1.91913 0.316198 0
M  V30 10809 C 987.03 -0.571934 3.55529 0
M  V30 10810 C 986.883 0.687727 4.44511 0
M  V30 10811 C 988.202 -1.38233 4.17827 0
M  V30 10812 H 985.321 -0.091521 0.731295 0
M  V30 10813 H 987.963 0.461775 1.84303 0
M  V30 10814 H 986.113 -1.18331 3.70041 0
M  V30 10815 H 987.785 1.32572 4.4184 0
M  V30 10816 H 986.028 1.313 4.13452 0
M  V30 10817 H 986.699 0.421858 5.50386 0
M  V30 10818 H 989.175 -0.865374 4.07002 0
M  V30 10819 H 988.051 -1.57223 5.25901 0
M  V30 10820 H 988.312 -2.38386 3.72323 0
M  V30 10821 N 987.371 -1.57444 0.0701946 0
M  V30 10822 C 988.596 -1.98171 -0.61181 0
M  V30 10823 C 989.021 -0.94823 -1.62451 0
M  V30 10824 O 988.379 0.0863553 -1.81094 0
M  V30 10825 C 988.427 -3.37934 -1.2583 0
M  V30 10826 O 987.531 -3.37207 -2.37414 0
M  V30 10827 H 986.872 -0.645056 -0.157477 0
M  V30 10828 H 989.402 -2.04091 0.144235 0
M  V30 10829 H 989.412 -3.75083 -1.60552 0
M  V30 10830 H 988.087 -4.12684 -0.516234 0
M  V30 10831 H 986.664 -3.11826 -2.04497 0
M  V30 10832 N 988.849 0.203349 -1.56283 0
M  V30 10833 C 990.074 0.945548 -1.84592 0
M  V30 10834 C 990.499 1.7641 -0.652772 0
M  V30 10835 O 989.857 1.76867 0.398468 0
M  V30 10836 C 989.905 1.82416 -3.11057 0
M  V30 10837 O 989.009 2.92191 -2.9103 0
M  V30 10838 H 988.35 0.266739 -0.608068 0
M  V30 10839 H 990.88 0.211158 -2.03507 0
M  V30 10840 H 990.89 2.23044 -3.41636 0
M  V30 10841 H 989.565 1.22267 -3.97522 0
M  V30 10842 H 988.142 2.55378 -2.71728 0
M  V30 10843 N 990.327 1.50405 0.470755 0
M  V30 10844 C 991.738 1.54266 1.05162 0
M  V30 10845 C 992.089 0.346359 1.93119 0
M  V30 10846 O 991.214 -0.540699 2.09536 0
M  V30 10847 C 991.809 2.7956 1.91394 0
M  V30 10848 C 990.368 2.86101 2.44588 0
M  V30 10849 C 989.515 2.48557 1.22941 0
M  V30 10850 H 992.466 1.56665 0.253359 0
M  V30 10851 H 992.487 2.61434 2.76464 0
M  V30 10852 H 991.999 3.66611 1.27351 0
M  V30 10853 H 990.1 2.03403 3.12183 0
M  V30 10854 H 990.213 3.88999 2.79672 0
M  V30 10855 H 988.577 2.01003 1.56429 0
M  V30 10856 H 989.36 3.37916 0.605598 0
M  V30 10857 N 991.805 -0.723954 1.39988 0
M  V30 10858 C 993.033 -1.51313 1.4111 0
M  V30 10859 C 993.448 -1.88798 0.00853333 0
M  V30 10860 O 992.805 -1.54868 -0.965516 0
M  V30 10861 C 992.856 -2.79375 2.29416 0
M  V30 10862 O 992.577 -2.43478 3.64211 0
M  V30 10863 C 994.078 -3.7333 2.3904 0
M  V30 10864 H 991.298 -0.46724 0.481589 0
M  V30 10865 H 993.842 -0.893694 1.83938 0
M  V30 10866 H 991.997 -3.37624 1.89971 0
M  V30 10867 H 992.411 -3.25821 4.11024 0
M  V30 10868 H 993.885 -4.60051 3.05053 0
M  V30 10869 H 994.362 -4.15854 1.41289 0
M  V30 10870 H 994.968 -3.20996 2.79001 0
M  V30 10871 N 993.283 -1.25346 -0.955304 0
M  V30 10872 C 994.529 -1.10218 -1.70235 0
M  V30 10873 C 994.862 0.356124 -1.90907 0
M  V30 10874 O 994.137 1.26253 -1.47954 0
M  V30 10875 C 994.42 -1.85627 -3.08569 0
M  V30 10876 C 994.273 -3.39281 -2.95311 0
M  V30 10877 C 995.592 -1.63886 -4.08448 0
M  V30 10878 H 992.711 -0.401781 -0.617852 0
M  V30 10879 H 995.353 -1.5417 -1.11048 0
M  V30 10880 H 993.503 -1.48269 -3.59094 0
M  V30 10881 H 995.175 -3.8631 -2.52116 0
M  V30 10882 H 993.418 -3.67027 -2.31244 0
M  V30 10883 H 994.089 -3.87258 -3.93364 0
M  V30 10884 H 996.565 -1.96406 -3.6683 0
M  V30 10885 H 995.441 -2.19087 -5.03281 0
M  V30 10886 H 995.702 -0.580021 -4.38279 0
M  V30 10887 N 994.761 1.15782 -1.06922 0
M  V30 10888 C 995.693 2.19978 -0.643604 0
M  V30 10889 C 996.706 1.59981 0.301653 0
M  V30 10890 O 997.895 1.78265 0.0916508 0
M  V30 10891 C 994.995 3.38815 0.0757973 0
M  V30 10892 C 994.168 4.28363 -0.884545 0
M  V30 10893 C 993.227 5.25807 -0.203233 0
M  V30 10894 O 992.253 5.62924 -0.842904 0
M  V30 10895 N 993.455 5.70874 1.05279 0
M  V30 10896 H 996.22 2.57112 -1.53992 0
M  V30 10897 H 993.781 1.30855 -0.953344 0
M  V30 10898 H 995.773 4.01052 0.542151 0
M  V30 10899 H 994.343 3.00133 0.874 0
M  V30 10900 H 993.563 3.63292 -1.53012 0
M  V30 10901 H 994.851 4.85067 -1.53581 0
M  V30 10902 H 994.249 5.42822 1.5925 0
M  V30 10903 H 992.806 6.35171 1.46289 0
M  V30 10904 N 996.239 0.8527 1.3254 0
M  V30 10905 C 997.485 0.455798 1.97612 0
M  V30 10906 C 997.818 -0.985616 1.6733 0
M  V30 10907 O 997.093 -1.69129 0.960493 0
M  V30 10908 C 997.376 0.69312 3.53366 0
M  V30 10909 C 997.229 2.18281 3.93285 0
M  V30 10910 C 998.548 0.148236 4.3985 0
M  V30 10911 H 995.667 0.167078 0.717812 0
M  V30 10912 H 998.309 1.07076 1.56954 0
M  V30 10913 H 996.459 0.169677 3.88129 0
M  V30 10914 H 998.131 2.77218 3.68711 0
M  V30 10915 H 996.374 2.66206 3.42515 0
M  V30 10916 H 997.045 2.29957 5.01821 0
M  V30 10917 H 999.521 0.595834 4.11812 0
M  V30 10918 H 998.397 0.343873 5.47822 0
M  V30 10919 H 998.658 -0.948872 4.31797 0
M  V30 10920 N 997.718 -1.45297 0.610449 0
M  V30 10921 C 998.965 -2.02218 0.106759 0
M  V30 10922 C 999.293 -1.47849 -1.26376 0
M  V30 10923 O 998.548 -0.644402 -1.84786 0
M  V30 10924 C 998.847 -3.57394 0.0205329 0
M  V30 10925 C 998.513 -4.30928 1.32709 0
M  V30 10926 C 997.175 -4.50735 1.68498 0
M  V30 10927 C 999.527 -4.72936 2.19046 0
M  V30 10928 C 996.855 -5.09806 2.90371 0
M  V30 10929 C 999.207 -5.33355 3.40169 0
M  V30 10930 C 997.871 -5.51384 3.76207 0
M  V30 10931 H 997.141 -0.739969 0.039066 0
M  V30 10932 H 999.788 -1.74326 0.792638 0
M  V30 10933 H 998.093 -3.84581 -0.748623 0
M  V30 10934 H 999.79 -3.99144 -0.385386 0
M  V30 10935 H 996.38 -4.15827 1.03854 0
M  V30 10936 H 1000.56 -4.57365 1.92695 0
M  V30 10937 H 995.82 -5.21953 3.18395 0
M  V30 10938 H 999.994 -5.64859 4.07318 0
M  V30 10939 H 997.621 -5.96924 4.70729 0
M  V30 10940 N 999.196 -0.349774 -1.5367 0
M  V30 10941 C 1000.42 0.248692 -2.05904 0
M  V30 10942 C 1000.85 1.42942 -1.22267 0
M  V30 10943 O 1000.2 1.79732 -0.237899 0
M  V30 10944 C 1000.25 0.635639 -3.54953 0
M  V30 10945 O 999.356 1.7349 -3.74132 0
M  V30 10946 H 998.697 0.0399477 -0.662797 0
M  V30 10947 H 1001.23 -0.505795 -1.9825 0
M  V30 10948 H 1001.24 0.911064 -3.97698 0
M  V30 10949 H 999.912 -0.227805 -4.15276 0
M  V30 10950 H 998.489 1.45626 -3.43289 0
M  V30 10951 N 1000.67 1.57404 -0.0785433 0
M  V30 10952 C 1001.64 2.11977 0.871693 0
M  V30 10953 C 1002.64 1.04529 1.2219 0
M  V30 10954 O 1003.83 1.30488 1.15406 0
M  V30 10955 C 1000.96 2.6267 2.17296 0
M  V30 10956 H 1002.15 2.97246 0.398115 0
M  V30 10957 H 999.705 1.5537 0.170251 0
M  V30 10958 H 1000.44 1.80873 2.69175 0
M  V30 10959 H 1000.22 3.41214 1.93171 0
M  V30 10960 H 1001.71 3.04943 2.85306 0
M  V30 10961 N 1002.15 -0.195058 1.56388 0
M  V30 10962 C 1003.38 -0.935745 1.85091 0
M  V30 10963 C 1003.8 -1.76061 0.662118 0
M  V30 10964 O 1003.16 -1.77076 -0.389083 0
M  V30 10965 C 1003.21 -1.80764 3.1202 0
M  V30 10966 O 1002.31 -2.90643 2.92575 0
M  V30 10967 H 1001.65 -0.26351 0.609474 0
M  V30 10968 H 1004.18 -0.200362 2.03617 0
M  V30 10969 H 1004.19 -2.21229 3.42815 0
M  V30 10970 H 1002.87 -1.20157 3.98165 0
M  V30 10971 H 1001.44 -2.53934 2.73079 0
M  V30 10972 N 1003.63 -1.50653 -0.462772 0
M  V30 10973 C 1004.88 -1.61737 -1.21184 0
M  V30 10974 C 1005.2 -0.32369 -1.92295 0
M  V30 10975 O 1004.47 0.659269 -1.84473 0
M  V30 10976 H 1003.05 -0.596015 -0.450306 0
M  V30 10977 H 1005.71 -1.87469 -0.533051 0
M  V30 10978 H 1004.81 -2.43262 -1.95525 0
M  V30 10979 N 1005.11 0.71652 -1.4037 0
M  V30 10980 C 1006.06 1.8306 -1.40562 0
M  V30 10981 C 1007.03 1.64009 -0.262697 0
M  V30 10982 O 1008.21 1.85157 -0.460619 0
M  V30 10983 C 1005.35 3.2076 -1.27307 0
M  V30 10984 C 1004.46 3.51389 -2.51296 0
M  V30 10985 C 1003.6 4.78589 -2.30491 0
M  V30 10986 C 1002.64 5.02119 -3.50061 0
M  V30 10987 N 1001.77 6.20533 -3.28457 0
M  V30 10988 H 1006.61 1.82231 -2.35788 0
M  V30 10989 H 1004.15 0.890198 -1.17106 0
M  V30 10990 H 1006.11 4.00274 -1.17628 0
M  V30 10991 H 1004.74 3.2082 -0.357005 0
M  V30 10992 H 1003.79 2.66436 -2.71507 0
M  V30 10993 H 1005.1 3.64686 -3.40302 0
M  V30 10994 H 1004.26 5.66119 -2.1816 0
M  V30 10995 H 1003 4.67499 -1.38909 0
M  V30 10996 H 1002 4.13044 -3.6287 0
M  V30 10997 H 1003.23 5.15082 -4.42569 0
M  V30 10998 H 1001.17 6.10695 -2.39556 0
M  V30 10999 H 1001.09 6.34502 -4.11027 0
M  V30 11000 H 1002.36 7.10853 -3.19857 0
M  V30 11001 N 1006.59 1.25851 0.948643 0
M  V30 11002 C 1008 1.09975 1.50872 0
M  V30 11003 C 1008.35 -0.322497 1.93531 0
M  V30 11004 O 1007.47 -1.21316 1.79197 0
M  V30 11005 C 1008.07 1.99021 2.74182 0
M  V30 11006 C 1006.63 1.87313 3.26483 0
M  V30 11007 C 1005.77 1.92815 1.99293 0
M  V30 11008 H 1008.73 1.3905 0.764908 0
M  V30 11009 H 1008.75 1.53372 3.4822 0
M  V30 11010 H 1008.26 3.02527 2.43103 0
M  V30 11011 H 1006.36 0.867136 3.62369 0
M  V30 11012 H 1006.47 2.72446 3.94094 0
M  V30 11013 H 1004.84 1.36774 2.1486 0
M  V30 11014 H 1005.62 2.97936 1.70554 0
M  V30 11015 N 1008.06 -1.15214 1.07534 0
M  V30 11016 C 1009.31 -1.86319 0.800814 0
M  V30 11017 C 1009.64 -1.82221 -0.671494 0
M  V30 11018 O 1008.92 -1.24664 -1.49295 0
M  V30 11019 C 1009.2 -3.35347 1.31203 0
M  V30 11020 C 1009.05 -3.48067 2.84902 0
M  V30 11021 C 1010.37 -4.3016 0.930064 0
M  V30 11022 H 1007.49 -0.676523 0.292379 0
M  V30 11023 H 1010.13 -1.35349 1.33344 0
M  V30 11024 H 1008.28 -3.78886 0.858949 0
M  V30 11025 H 1009.96 -3.13379 3.38514 0
M  V30 11026 H 1008.2 -2.89566 3.23008 0
M  V30 11027 H 1008.87 -4.52782 3.15741 0
M  V30 11028 H 1011.35 -3.94591 1.3205 0
M  V30 11029 H 1010.22 -5.32914 1.31507 0
M  V30 11030 H 1010.48 -4.41796 -0.163824 0
M  V30 11031 N 1009.54 -0.859717 -1.32086 0
M  V30 11032 C 1010.45 -0.31108 -2.32528 0
M  V30 11033 C 1011.47 0.573714 -1.6427 0
M  V30 11034 O 1012.64 0.472878 -1.9577 0
M  V30 11035 C 1009.71 0.487256 -3.43259 0
M  V30 11036 C 1008.77 -0.424279 -4.27198 0
M  V30 11037 C 1008 0.336051 -5.32641 0
M  V30 11038 O 1008.23 1.56541 -5.48499 0
M  V30 11039 O 1007.16 -0.300777 -6.01148 0
M  V30 11040 H 1010.99 -1.14336 -2.81355 0
M  V30 11041 H 1008.57 -0.622794 -1.358 0
M  V30 11042 H 1010.45 0.940203 -4.10777 0
M  V30 11043 H 1009.13 1.29626 -2.96612 0
M  V30 11044 H 1008.04 -0.925509 -3.62471 0
M  V30 11045 H 1009.37 -1.1986 -4.77383 0
M  V30 11046 N 1011.02 1.44971 -0.618145 0
M  V30 11047 C 1012.27 2.02458 -0.117656 0
M  V30 11048 C 1012.6 1.48413 1.25248 0
M  V30 11049 O 1011.87 0.662997 1.82851 0
M  V30 11050 C 1012.16 3.59987 -0.0901897 0
M  V30 11051 C 1012.01 4.24343 -1.49175 0
M  V30 11052 C 1013.33 4.36099 0.592121 0
M  V30 11053 H 1010.45 0.735672 -0.0442291 0
M  V30 11054 H 1013.09 1.727 -0.792138 0
M  V30 11055 H 1011.24 3.85471 0.484175 0
M  V30 11056 H 1012.91 4.10009 -2.114 0
M  V30 11057 H 1011.16 3.82337 -2.04941 0
M  V30 11058 H 1011.83 5.33298 -1.42468 0
M  V30 11059 H 1014.3 4.1597 0.103813 0
M  V30 11060 H 1013.18 5.45822 0.580481 0
M  V30 11061 H 1013.44 4.09746 1.66015 0
M  V30 11062 N 1012.5 0.357919 1.53482 0
M  V30 11063 C 1013.43 -0.526753 2.23065 0
M  V30 11064 C 1014.44 -1.05239 1.24212 0
M  V30 11065 O 1015.63 -0.960078 1.50482 0
M  V30 11066 C 1012.73 -1.73919 2.9087 0
M  V30 11067 C 1011.91 -1.34638 4.16163 0
M  V30 11068 C 1010.96 -2.42005 4.67247 0
M  V30 11069 O 1009.99 -2.04714 5.31113 0
M  V30 11070 N 1011.19 -3.73478 4.44404 0
M  V30 11071 H 1013.96 0.0692386 2.9962 0
M  V30 11072 H 1011.52 0.182726 1.60866 0
M  V30 11073 H 1013.51 -2.45207 3.21956 0
M  V30 11074 H 1012.08 -2.24223 2.17814 0
M  V30 11075 H 1011.3 -0.463667 3.91464 0
M  V30 11076 H 1012.59 -1.06012 4.97633 0
M  V30 11077 H 1011.99 -4.06555 3.93357 0
M  V30 11078 H 1010.54 -4.40893 4.80059 0
M  V30 11079 N 1013.98 -1.5736 0.0868897 0
M  V30 11080 C 1015.22 -1.94341 -0.579598 0
M  V30 11081 C 1015.56 -0.968238 -1.68341 0
M  V30 11082 O 1014.83 8.29649e-05 -1.945 0
M  V30 11083 C 1015.11 -3.41497 -1.14245 0
M  V30 11084 C 1014.97 -4.49778 -0.044255 0
M  V30 11085 C 1016.29 -3.89788 -2.04336 0
M  V30 11086 H 1013.4 -0.70668 -0.20922 0
M  V30 11087 H 1016.05 -1.89359 0.15593 0
M  V30 11088 H 1014.2 -3.45873 -1.76929 0
M  V30 11089 H 1015.87 -4.57517 0.58959 0
M  V30 11090 H 1014.11 -4.293 0.623207 0
M  V30 11091 H 1014.78 -5.4992 -0.478749 0
M  V30 11092 H 1017.26 -3.87513 -1.51569 0
M  V30 11093 H 1016.13 -4.93335 -2.40648 0
M  V30 11094 H 1016.4 -3.28603 -2.95757 0
M  V30 11095 N 1015.45 0.186762 -1.56489 0
M  V30 11096 C 1016.68 0.925916 -1.85584 0
M  V30 11097 C 1017.1 1.75708 -0.671446 0
M  V30 11098 O 1016.46 1.7728 0.379687 0
M  V30 11099 C 1016.51 1.79107 -3.12975 0
M  V30 11100 O 1015.61 2.89088 -2.94112 0
M  V30 11101 H 1014.96 0.260275 -0.610863 0
M  V30 11102 H 1017.49 0.189561 -2.0372 0
M  V30 11103 H 1017.5 2.19408 -3.43983 0
M  V30 11104 H 1016.17 1.18044 -3.98796 0
M  V30 11105 H 1014.75 2.52482 -2.74422 0
M  V30 11106 N 1016.93 1.50896 0.454776 0
M  V30 11107 C 1017.9 1.70377 1.53312 0
M  V30 11108 C 1018.9 0.57408 1.50203 0
M  V30 11109 O 1020.09 0.841374 1.52534 0
M  V30 11110 C 1017.22 1.74411 2.92905 0
M  V30 11111 H 1018.41 2.66599 1.37349 0
M  V30 11112 H 1015.96 1.40622 0.68228 0
M  V30 11113 H 1016.7 0.799408 3.14293 0
M  V30 11114 H 1016.48 2.56496 2.96568 0
M  V30 11115 H 1017.97 1.91382 3.71164 0
M  V30 11116 N 1018.41 -0.709066 1.40748 0
M  V30 11117 C 1019.66 -1.47119 1.39585 0
M  V30 11118 C 1019.99 -1.942 0.000245323 0
M  V30 11119 O 1019.26 -1.68609 -0.969593 0
M  V30 11120 C 1019.55 -2.69266 2.39099 0
M  V30 11121 C 1019.4 -2.28037 3.8771 0
M  V30 11122 C 1020.72 -3.71438 2.36055 0
M  V30 11123 H 1017.84 -0.533632 0.508336 0
M  V30 11124 H 1020.48 -0.808718 1.7193 0
M  V30 11125 H 1018.63 -3.25788 2.11647 0
M  V30 11126 H 1020.3 -1.76946 4.26014 0
M  V30 11127 H 1018.55 -1.59966 4.03229 0
M  V30 11128 H 1019.22 -3.15621 4.52866 0
M  V30 11129 H 1021.69 -3.24559 2.60385 0
M  V30 11130 H 1020.57 -4.54532 3.07721 0
M  V30 11131 H 1020.83 -4.20193 1.37443 0
M  V30 11132 N 1019.89 -1.26353 -0.941956 0
M  V30 11133 C 1021.14 -1.13026 -1.69106 0
M  V30 11134 C 1021.49 0.323264 -1.89665 0
M  V30 11135 O 1020.78 1.23405 -1.46566 0
M  V30 11136 C 1020.98 -1.83195 -3.06879 0
M  V30 11137 C 1020.81 -3.35221 -2.99762 0
M  V30 11138 C 1019.58 -4.04509 -3.02821 0
M  V30 11139 C 1021.77 -4.31425 -2.79959 0
M  V30 11140 N 1019.76 -5.43212 -2.85995 0
M  V30 11141 C 1021.13 -5.57299 -2.71694 0
M  V30 11142 C 1023.18 -4.21686 -2.64736 0
M  V30 11143 C 1021.89 -6.74546 -2.49761 0
M  V30 11144 C 1023.91 -5.38639 -2.44177 0
M  V30 11145 C 1023.27 -6.6346 -2.36643 0
M  V30 11146 H 1019.37 -0.468375 -0.626218 0
M  V30 11147 H 1021.96 -1.59629 -1.11476 0
M  V30 11148 H 1020.13 -1.39068 -3.62649 0
M  V30 11149 H 1021.86 -1.62498 -3.70644 0
M  V30 11150 H 1018.61 -3.55863 -3.12503 0
M  V30 11151 H 1019.04 -6.16042 -2.80752 0
M  V30 11152 H 1023.68 -3.25918 -2.69328 0
M  V30 11153 H 1021.4 -7.70411 -2.4391 0
M  V30 11154 H 1024.98 -5.32973 -2.33305 0
M  V30 11155 H 1023.86 -7.52431 -2.20945 0
M  V30 11156 N 1021.37 1.14642 -1.08144 0
M  V30 11157 C 1022.64 1.81774 -0.72232 0
M  V30 11158 C 1023.02 1.95587 0.794294 0
M  V30 11159 O 1022.37 1.51361 1.71178 0
M  V30 11160 C 1022.58 3.1763 -1.44611 0
M  V30 11161 C 1023.93 3.93161 -1.60343 0
M  V30 11162 O 1024.95 3.2721 -1.40755 0
M  V30 11163 O 1023.81 5.11422 -1.9264 0
M  V30 11164 H 1020.91 0.785733 -0.257978 0
M  V30 11165 H 1023.45 1.21683 -1.18285 0
M  V30 11166 H 1022.23 3.02723 -2.4794 0
M  V30 11167 H 1021.85 3.85412 -0.976892 0
M  V30 11168 N 1022.85 0.866709 1.31628 0
M  V30 11169 C 1024.07 0.49039 2.01004 0
M  V30 11170 C 1024.49 -0.916244 1.65077 0
M  V30 11171 O 1023.85 -1.59975 0.8783 0
M  V30 11172 C 1023.9 0.634011 3.55897 0
M  V30 11173 O 1023.62 1.98525 3.90537 0
M  V30 11174 C 1025.12 0.258277 4.42547 0
M  V30 11175 H 1022.34 0.191421 0.643117 0
M  V30 11176 H 1024.88 1.16698 1.67934 0
M  V30 11177 H 1023.04 0.00501801 3.874 0
M  V30 11178 H 1023.45 1.99067 4.85255 0
M  V30 11179 H 1024.93 0.409733 5.50477 0
M  V30 11180 H 1025.4 -0.802301 4.3181 0
M  V30 11181 H 1026.01 0.862837 4.16456 0
M  V30 11182 N 1024.32 -1.44642 0.625825 0
M  V30 11183 C 1025.29 -2.29085 -0.072526 0
M  V30 11184 C 1026.29 -1.40755 -0.777467 0
M  V30 11185 O 1027.48 -1.62684 -0.622861 0
M  V30 11186 C 1024.61 -3.22212 -1.1132 0
M  V30 11187 H 1025.8 -2.92317 0.670124 0
M  V30 11188 H 1023.35 -1.51466 0.38571 0
M  V30 11189 H 1024.09 -2.63819 -1.88601 0
M  V30 11190 H 1023.87 -3.87299 -0.611709 0
M  V30 11191 H 1025.36 -3.8566 -1.60175 0
M  V30 11192 N 1025.8 -0.366053 -1.5329 0
M  V30 11193 C 1026.75 0.495319 -2.27265 0
M  V30 11194 C 1027.74 1.08298 -1.30261 0
M  V30 11195 O 1028.95 1.02613 -1.47887 0
M  V30 11196 H 1025.32 0.178454 -0.730519 0
M  V30 11197 H 1027.3 -0.150354 -2.98021 0
M  V30 11198 C 1026.04 1.62283 -3.07505 0
M  V30 11199 H 1025.37 1.17993 -3.81992 0
M  V30 11200 H 1026.81 2.20024 -3.62444 0
M  V30 11201 C 1025.27 2.56542 -2.18375 0
M  V30 11202 O 1025.8 3.59371 -1.79486 0
M  V30 11203 N 1024 2.25742 -1.82999 0
M  V30 11204 H 1023.55 1.42159 -2.14822 0
M  V30 11205 H 1023.51 2.89064 -1.2365 0
M  V30 11206 N 1027.28 1.57312 -0.0952337 0
M  V30 11207 C 1028.51 1.98697 0.57682 0
M  V30 11208 C 1028.92 0.974347 1.61716 0
M  V30 11209 O 1028.28 -0.036022 1.82464 0
M  V30 11210 C 1028.33 3.40133 1.2244 0
M  V30 11211 O 1028.05 4.37518 0.225678 0
M  V30 11212 C 1029.55 3.96522 1.98205 0
M  V30 11213 H 1026.77 0.65294 0.154629 0
M  V30 11214 H 1029.32 2.03754 -0.174562 0
M  V30 11215 H 1027.47 3.3609 1.92671 0
M  V30 11216 H 1027.89 5.199 0.693116 0
M  V30 11217 H 1029.36 4.97637 2.38875 0
M  V30 11218 H 1029.84 3.34347 2.84796 0
M  V30 11219 H 1030.44 4.04038 1.3279 0
M  V30 11220 N 1028.76 -0.17846 1.56586 0
M  V30 11221 C 1030.01 -0.894502 1.8078 0
M  V30 11222 C 1030.32 -1.8372 0.67129 0
M  V30 11223 O 1031.53 -2.59509 0.797971 0
M  V30 11224 C 1029.98 -1.64109 3.20306 0
M  V30 11225 C 1029.59 -0.742387 4.41806 0
M  V30 11226 C 1031.33 -2.34578 3.53798 0
M  V30 11227 C 1029.24 -1.4888 5.72354 0
M  V30 11228 H 1028.17 -0.33776 0.674117 0
M  V30 11229 H 1030.82 -0.14752 1.82906 0
M  V30 11230 H 1029.2 -2.43257 3.12477 0
M  V30 11231 H 1030.38 0.011615 4.60799 0
M  V30 11232 H 1028.69 -0.147705 4.16138 0
M  V30 11233 H 1031.29 -2.91004 4.48577 0
M  V30 11234 H 1031.63 -3.09572 2.78336 0
M  V30 11235 H 1032.17 -1.62381 3.63149 0
M  V30 11236 H 1028.9 -0.781325 6.50827 0
M  V30 11237 H 1028.42 -2.21631 5.57351 0
M  V30 11238 H 1030.1 -2.03819 6.14058 0
M  V30 11239 N 1030.24 -1.51135 -0.446768 0
M  V30 11240 C 1031.46 -1.67411 -1.22427 0
M  V30 11241 C 1031.89 -0.367009 -1.84485 0
M  V30 11242 O 1031.24 0.67185 -1.68392 0
M  V30 11243 C 1031.29 -2.78473 -2.29096 0
M  V30 11244 O 1030.4 -2.41419 -3.34351 0
M  V30 11245 H 1029.74 -0.558512 -0.359111 0
M  V30 11246 H 1032.27 -1.97648 -0.5288 0
M  V30 11247 H 1032.28 -3.02277 -2.7403 0
M  V30 11248 H 1030.95 -3.73326 -1.83304 0
M  V30 11249 H 1029.53 -2.28152 -2.9496 0
M  V30 11250 N 1031.71 0.701592 -1.41122 0
M  V30 11251 C 1032.62 1.84548 -1.44841 0
M  V30 11252 C 1033.64 1.70654 -0.339594 0
M  V30 11253 O 1034.82 1.92675 -0.586378 0
M  V30 11254 C 1031.88 3.20477 -1.3227 0
M  V30 11255 C 1030.94 3.46524 -2.53415 0
M  V30 11256 C 1030.17 4.75968 -2.41434 0
M  V30 11257 O 1030.4 5.52037 -1.43566 0
M  V30 11258 O 1029.33 5.02664 -3.31078 0
M  V30 11259 H 1033.16 1.84367 -2.41335 0
M  V30 11260 H 1030.74 0.853863 -1.22595 0
M  V30 11261 H 1032.62 4.01642 -1.2752 0
M  V30 11262 H 1031.3 3.21355 -0.388889 0
M  V30 11263 H 1030.21 2.65313 -2.63742 0
M  V30 11264 H 1031.54 3.50455 -3.45604 0
M  V30 11265 N 1033.19 1.2685 0.935242 0
M  V30 11266 C 1034.42 1.15538 1.71635 0
M  V30 11267 C 1034.83 -0.288698 1.8658 0
M  V30 11268 O 1034.19 -1.19721 1.37743 0
M  V30 11269 C 1034.24 1.8259 3.11999 0
M  V30 11270 O 1033.96 3.21355 2.97763 0
M  V30 11271 C 1035.46 1.77307 4.06297 0
M  V30 11272 H 1032.68 0.402055 0.537208 0
M  V30 11273 H 1035.23 1.67582 1.17203 0
M  V30 11274 H 1033.38 1.3447 3.63313 0
M  V30 11275 H 1033.8 3.54626 3.86446 0
M  V30 11276 H 1035.27 2.28851 5.02326 0
M  V30 11277 H 1035.75 0.740823 4.32907 0
M  V30 11278 H 1036.35 2.25007 3.60904 0
M  V30 11279 N 1034.67 -1.14067 1.0875 0
M  V30 11280 C 1035.63 -2.17453 0.724341 0
M  V30 11281 C 1036.63 -1.58959 -0.242614 0
M  V30 11282 O 1037.82 -1.74186 -0.0217008 0
M  V30 11283 C 1034.96 -3.40828 0.0700236 0
M  V30 11284 H 1036.15 -2.51094 1.63987 0
M  V30 11285 H 1033.7 -1.28775 0.885813 0
M  V30 11286 H 1034.44 -3.1277 -0.857061 0
M  V30 11287 H 1034.22 -3.84551 0.76569 0
M  V30 11288 H 1035.71 -4.17258 -0.168905 0
M  V30 11289 N 1036.15 -0.873678 -1.31166 0
M  V30 11290 C 1037.38 -0.500317 -2.0045 0
M  V30 11291 C 1037.79 0.912716 -1.65729 0
M  V30 11292 O 1037.13 1.61001 -0.884563 0
M  V30 11293 C 1037.19 -0.58197 -3.54758 0
M  V30 11294 C 1036.86 -1.95728 -4.12964 0
M  V30 11295 C 1037.85 -2.92526 -4.29796 0
M  V30 11296 C 1035.54 -2.2596 -4.48606 0
M  V30 11297 C 1037.53 -4.17697 -4.81464 0
M  V30 11298 C 1035.22 -3.5138 -4.99976 0
M  V30 11299 C 1036.22 -4.47064 -5.16356 0
M  V30 11300 O 1035.9 -5.70259 -5.66621 0
M  V30 11301 H 1035.64 -0.193044 -0.64785 0
M  V30 11302 H 1038.19 -1.17768 -1.68285 0
M  V30 11303 H 1036.42 0.152326 -3.864 0
M  V30 11304 H 1038.11 -0.221506 -4.05295 0
M  V30 11305 H 1038.88 -2.70479 -4.02574 0
M  V30 11306 H 1034.75 -1.52258 -4.3513 0
M  V30 11307 H 1038.3 -4.92389 -4.94165 0
M  V30 11308 H 1034.2 -3.73269 -5.26631 0
M  V30 11309 H 1034.96 -5.72483 -5.84983 0
M  V30 11310 N 1037.63 1.44308 -0.633487 0
M  V30 11311 C 1038.54 2.34492 0.0711787 0
M  V30 11312 C 1039.55 1.52754 0.8332 0
M  V30 11313 O 1040.73 1.85475 0.784929 0
M  V30 11314 C 1037.79 3.30767 1.03895 0
M  V30 11315 C 1036.85 4.28412 0.276043 0
M  V30 11316 C 1036.09 5.20087 1.19772 0
M  V30 11317 O 1036.31 5.15743 2.4365 0
M  V30 11318 O 1035.24 5.98038 0.680764 0
M  V30 11319 H 1039.07 2.96203 -0.67063 0
M  V30 11320 H 1036.66 1.4412 -0.393678 0
M  V30 11321 H 1038.54 3.90021 1.59566 0
M  V30 11322 H 1037.21 2.71586 1.76133 0
M  V30 11323 H 1036.12 3.72696 -0.32377 0
M  V30 11324 H 1037.45 4.9052 -0.406364 0
M  V30 11325 N 1039.1 0.374177 1.53094 0
M  V30 11326 C 1040.35 -0.213981 2.00562 0
M  V30 11327 C 1040.67 -1.4916 1.26533 0
M  V30 11328 O 1041.87 -2.15889 1.64634 0
M  V30 11329 C 1040.33 -0.431876 3.57299 0
M  V30 11330 C 1039.94 0.831615 4.40214 0
M  V30 11331 C 1041.68 -0.977222 4.13099 0
M  V30 11332 C 1039.59 0.582831 5.88521 0
M  V30 11333 H 1038.52 -0.0837386 0.749336 0
M  V30 11334 H 1041.17 0.494245 1.76719 0
M  V30 11335 H 1039.55 -1.20158 3.7733 0
M  V30 11336 H 1040.72 1.60477 4.31953 0
M  V30 11337 H 1039.04 1.30081 3.9556 0
M  V30 11338 H 1041.64 -1.17881 5.21544 0
M  V30 11339 H 1041.98 -1.94189 3.68234 0
M  V30 11340 H 1042.51 -0.267473 3.969 0
M  V30 11341 H 1039.25 1.51807 6.37679 0
M  V30 11342 H 1038.77 -0.151666 5.99608 0
M  V30 11343 H 1040.45 0.211604 6.46654 0
M  V30 11344 N 1040.58 -1.57259 0.103575 0
M  V30 11345 C 1041.81 -1.99424 -0.569638 0
M  V30 11346 C 1042.23 -0.982475 -1.60403 0
M  V30 11347 O 1041.59 0.0479231 -1.81237 0
M  V30 11348 C 1041.64 -3.40527 -1.18633 0
M  V30 11349 O 1040.74 -3.42167 -2.30208 0
M  V30 11350 H 1040.08 -0.648251 -0.143759 0
M  V30 11351 H 1042.61 -2.03739 0.187493 0
M  V30 11352 H 1042.62 -3.78404 -1.5256 0
M  V30 11353 H 1041.3 -4.13686 -0.428582 0
M  V30 11354 H 1039.88 -3.16093 -1.97837 0
M  V30 11355 N 1042.06 0.170153 -1.56679 0
M  V30 11356 C 1043.31 0.886592 -1.8206 0
M  V30 11357 C 1043.64 1.82194 -0.680839 0
M  V30 11358 O 1042.89 1.92866 0.331822 0
M  V30 11359 C 1043.19 1.71402 -3.13618 0
M  V30 11360 C 1042.86 0.927489 -4.41258 0
M  V30 11361 C 1041.52 0.710417 -4.75927 0
M  V30 11362 C 1043.87 0.375855 -5.19843 0
M  V30 11363 C 1041.2 -0.0693691 -5.86659 0
M  V30 11364 C 1043.55 -0.390849 -6.31391 0
M  V30 11365 C 1042.21 -0.61871 -6.64626 0
M  V30 11366 H 1041.48 0.324427 -0.666204 0
M  V30 11367 H 1044.13 0.151464 -1.909 0
M  V30 11368 H 1042.44 2.51858 -3.00125 0
M  V30 11369 H 1044.13 2.27141 -3.30466 0
M  V30 11370 H 1040.72 1.10672 -4.14065 0
M  V30 11371 H 1044.91 0.530897 -4.93452 0
M  V30 11372 H 1040.16 -0.255637 -6.10865 0
M  V30 11373 H 1044.34 -0.825544 -6.9149 0
M  V30 11374 H 1041.96 -1.22482 -7.50268 0
M  V30 11375 N 1043.54 1.5137 0.438746 0
M  V30 11376 C 1044.95 1.39514 0.775116 0
M  V30 11377 C 1045.15 0.47638 1.95788 0
M  V30 11378 O 1044.21 -0.0689832 2.52406 0
M  V30 11379 C 1045.52 2.81517 1.05681 0
M  V30 11380 C 1047.07 2.90658 1.16133 0
M  V30 11381 C 1047.55 4.33566 1.47597 0
M  V30 11382 N 1049.04 4.36665 1.54524 0
M  V30 11383 C 1049.77 5.4427 1.80438 0
M  V30 11384 N 1049.27 6.62037 2.04154 0
M  V30 11385 N 1051.06 5.31749 1.82208 0
M  V30 11386 H 1043.21 2.09657 -0.340237 0
M  V30 11387 H 1045.48 0.943736 -0.0898115 0
M  V30 11388 H 1045.18 3.50734 0.260441 0
M  V30 11389 H 1045.06 3.20757 1.98481 0
M  V30 11390 H 1047.44 2.2164 1.94833 0
M  V30 11391 H 1047.52 2.54917 0.212376 0
M  V30 11392 H 1047.17 5.03133 0.694251 0
M  V30 11393 H 1047.1 4.66819 2.43696 0
M  V30 11394 H 1049.59 3.51761 1.38105 0
M  V30 11395 H 1049.9 7.39838 2.23293 0
M  V30 11396 H 1048.25 6.65155 2.01479 0
M  V30 11397 H 1051.44 4.3873 1.63198 0
M  V30 11398 H 1051.61 6.15689 2.02067 0
M  V30 11399 N 1045.02 -0.694098 1.41492 0
M  V30 11400 C 1045.98 -1.78976 1.43179 0
M  V30 11401 C 1046.98 -1.57539 0.322191 0
M  V30 11402 O 1048.17 -1.64185 0.582138 0
M  V30 11403 C 1045.3 -3.17368 1.2446 0
M  V30 11404 H 1046.49 -1.78874 2.40716 0
M  V30 11405 H 1044.05 -0.901867 1.27656 0
M  V30 11406 H 1044.78 -3.23109 0.277691 0
M  V30 11407 H 1044.57 -3.3433 2.04856 0
M  V30 11408 H 1046.06 -3.97345 1.28479 0
M  V30 11409 N 1046.49 -1.27344 -0.928501 0
M  V30 11410 C 1047.44 -1.06656 -2.01515 0
M  V30 11411 C 1048.43 0.00516619 -1.60899 0
M  V30 11412 O 1049.62 -0.213277 -1.7571 0
M  V30 11413 C 1046.75 -0.714935 -3.35773 0
M  V30 11414 C 1045.84 -1.82476 -3.82836 0
M  V30 11415 N 1046.23 -3.06421 -4.02417 0
M  V30 11416 C 1044.52 -1.71126 -4.11864 0
M  V30 11417 C 1045.23 -3.78637 -4.41598 0
M  V30 11418 N 1044.2 -3.06396 -4.49024 0
M  V30 11419 H 1048 -2.00718 -2.14685 0
M  V30 11420 H 1045.52 -1.18048 -1.11528 0
M  V30 11421 H 1047.51 -0.54784 -4.13285 0
M  V30 11422 H 1046.17 0.218069 -3.23967 0
M  V30 11423 H 1047.19 -3.42191 -3.88749 0
M  V30 11424 H 1043.86 -0.849031 -4.08776 0
M  V30 11425 H 1045.25 -4.85159 -4.64834 0
M  V30 11426 N 1047.97 1.13488 -1.09353 0
M  V30 11427 C 1049.22 1.841 -0.82401 0
M  V30 11428 C 1049.53 1.84393 0.652586 0
M  V30 11429 O 1050.74 2.5089 1.03762 0
M  V30 11430 C 1049.2 3.30523 -1.42418 0
M  V30 11431 C 1048.8 3.38621 -2.93326 0
M  V30 11432 C 1050.55 4.06182 -1.23356 0
M  V30 11433 C 1048.46 4.79311 -3.46432 0
M  V30 11434 H 1047.39 0.68974 -0.304589 0
M  V30 11435 H 1050.04 1.27866 -1.31615 0
M  V30 11436 H 1048.42 3.86555 -0.859727 0
M  V30 11437 H 1049.59 2.92587 -3.5599 0
M  V30 11438 H 1047.91 2.76426 -3.11412 0
M  V30 11439 H 1050.5 5.10047 -1.60488 0
M  V30 11440 H 1050.85 4.15936 -0.174152 0
M  V30 11441 H 1051.38 3.56477 -1.76547 0
M  V30 11442 H 1048.12 4.74748 -4.5199 0
M  V30 11443 H 1047.64 5.25842 -2.8853 0
M  V30 11444 H 1049.32 5.48227 -3.43593 0
M  V30 11445 N 1049.45 0.880621 1.30701 0
M  V30 11446 C 1050.86 0.547993 1.78477 0
M  V30 11447 C 1051.21 -0.935633 1.72454 0
M  V30 11448 O 1050.34 -1.73094 1.29874 0
M  V30 11449 C 1050.93 0.98795 3.24076 0
M  V30 11450 C 1049.49 0.706805 3.69704 0
M  V30 11451 C 1048.64 1.17335 2.51252 0
M  V30 11452 H 1051.59 1.06528 1.17633 0
M  V30 11453 H 1051.61 0.31508 3.79193 0
M  V30 11454 H 1051.12 2.06778 3.28427 0
M  V30 11455 H 1049.22 -0.36122 3.70845 0
M  V30 11456 H 1049.34 1.2913 4.6137 0
M  V30 11457 H 1047.7 0.592808 2.47705 0
M  V30 11458 H 1048.48 2.26083 2.58343 0
M  V30 11459 N 1050.93 -1.4397 0.641131 0
M  V30 11460 C 1052.34 -1.85267 0.230838 0
M  V30 11461 C 1052.69 -1.53659 -1.21998 0
M  V30 11462 O 1051.82 -0.979572 -1.92959 0
M  V30 11463 C 1052.41 -3.36284 0.412171 0
M  V30 11464 C 1050.97 -3.76358 0.0563004 0
M  V30 11465 C 1050.12 -2.67768 0.720809 0
M  V30 11466 H 1053.07 -1.34294 0.845624 0
M  V30 11467 H 1053.09 -3.78924 -0.345936 0
M  V30 11468 H 1052.6 -3.59258 1.46818 0
M  V30 11469 H 1050.7 -3.58997 -0.997582 0
M  V30 11470 H 1050.82 -4.76756 0.473335 0
M  V30 11471 H 1049.18 -2.54227 0.155164 0
M  V30 11472 H 1049.96 -2.93573 1.77961 0
M  V30 11473 N 1052.41 -0.382291 -1.52893 0
M  V30 11474 C 1053.34 0.447829 -2.29165 0
M  V30 11475 C 1054.32 1.06956 -1.32267 0
M  V30 11476 O 1055.5 1.08365 -1.61154 0
M  V30 11477 C 1052.63 1.57902 -3.09329 0
M  V30 11478 C 1051.59 1.08369 -4.14053 0
M  V30 11479 C 1050.91 2.30641 -4.82399 0
M  V30 11480 C 1052.21 0.156591 -5.22065 0
M  V30 11481 H 1053.91 -0.188541 -2.98806 0
M  V30 11482 H 1051.45 -0.0921179 -1.43705 0
M  V30 11483 H 1053.41 2.16652 -3.61442 0
M  V30 11484 H 1052.13 2.24287 -2.37409 0
M  V30 11485 H 1050.79 0.518772 -3.62911 0
M  V30 11486 H 1050.44 2.9552 -4.07034 0
M  V30 11487 H 1050.14 1.98163 -5.53177 0
M  V30 11488 H 1051.66 2.90047 -5.37313 0
M  V30 11489 H 1053.08 0.652065 -5.6958 0
M  V30 11490 H 1051.47 -0.0780978 -6.00049 0
M  V30 11491 H 1052.54 -0.796529 -4.78313 0
M  V30 11492 N 1053.89 1.57202 -0.111913 0
M  V30 11493 C 1055.13 1.94565 0.546713 0
M  V30 11494 C 1055.45 0.995644 1.67666 0
M  V30 11495 O 1054.72 0.0506681 1.95834 0
M  V30 11496 H 1053.3 0.718334 0.204951 0
M  V30 11497 H 1055.97 1.94074 -0.179193 0
M  V30 11498 H 1055.06 2.9742 0.945931 0
M  V30 11499 N 1055.36 -0.161842 1.56767 0
M  V30 11500 C 1056.29 -1.20226 2.0017 0
M  V30 11501 C 1057.27 -1.4564 0.878807 0
M  V30 11502 O 1058.46 -1.56813 1.14557 0
M  V30 11503 C 1055.59 -2.53897 2.36968 0
M  V30 11504 C 1054.54 -2.43033 3.52305 0
M  V30 11505 C 1053.87 -3.81281 3.74872 0
M  V30 11506 C 1055.17 -1.927 4.85453 0
M  V30 11507 H 1056.86 -0.84142 2.87333 0
M  V30 11508 H 1054.41 -0.403309 1.38237 0
M  V30 11509 H 1056.36 -3.26893 2.6593 0
M  V30 11510 H 1055.09 -2.91787 1.46724 0
M  V30 11511 H 1053.75 -1.7249 3.23485 0
M  V30 11512 H 1053.39 -4.1658 2.81904 0
M  V30 11513 H 1053.09 -3.74877 4.52483 0
M  V30 11514 H 1054.62 -4.55848 4.06245 0
M  V30 11515 H 1056.03 -2.55477 5.13229 0
M  V30 11516 H 1054.43 -1.97222 5.66766 0
M  V30 11517 H 1055.5 -0.881816 4.76814 0
M  V30 11518 N 1056.84 -1.516 -0.430713 0
M  V30 11519 C 1057.79 -1.73392 -1.52328 0
M  V30 11520 C 1058.76 -0.575758 -1.55802 0
M  V30 11521 O 1059.94 -0.810931 -1.72709 0
M  V30 11522 C 1057.08 -1.87092 -2.89984 0
M  V30 11523 C 1056.2 -3.14668 -2.95987 0
M  V30 11524 C 1055.33 -3.18923 -4.24807 0
M  V30 11525 C 1054.37 -4.40787 -4.24703 0
M  V30 11526 N 1053.51 -4.42556 -5.45059 0
M  V30 11527 H 1058.35 -2.6665 -1.33048 0
M  V30 11528 H 1055.88 -1.32146 -0.646207 0
M  V30 11529 H 1057.84 -1.93017 -3.69865 0
M  V30 11530 H 1056.47 -0.972363 -3.07807 0
M  V30 11531 H 1055.52 -3.1802 -2.08728 0
M  V30 11532 H 1056.84 -4.04562 -2.91772 0
M  V30 11533 H 1055.99 -3.23801 -5.13067 0
M  V30 11534 H 1054.73 -2.2693 -4.31688 0
M  V30 11535 H 1053.73 -4.36079 -3.34836 0
M  V30 11536 H 1054.96 -5.34053 -4.19481 0
M  V30 11537 H 1052.91 -3.53435 -5.52648 0
M  V30 11538 H 1052.82 -5.26267 -5.42751 0
M  V30 11539 H 1054.09 -4.51634 -6.35332 0
M  V30 11540 N 1058.32 0.686584 -1.41858 0
M  V30 11541 C 1059.57 1.44879 -1.41908 0
M  V30 11542 C 1059.9 1.94175 -0.0311408 0
M  V30 11543 O 1059.17 1.70131 0.942646 0
M  V30 11544 C 1059.46 2.65428 -2.43352 0
M  V30 11545 C 1059.31 2.2184 -3.91289 0
M  V30 11546 C 1060.63 3.67635 -2.41934 0
M  V30 11547 H 1057.75 0.525477 -0.516762 0
M  V30 11548 H 1060.39 0.781263 -1.73194 0
M  V30 11549 H 1058.54 3.2238 -2.16803 0
M  V30 11550 H 1060.21 1.70146 -4.28775 0
M  V30 11551 H 1058.45 1.53531 -4.05722 0
M  V30 11552 H 1059.13 3.08376 -4.5783 0
M  V30 11553 H 1061.6 3.20376 -2.65516 0
M  V30 11554 H 1060.48 4.49579 -3.14913 0
M  V30 11555 H 1060.74 4.17953 -1.44111 0
M  V30 11556 N 1059.8 1.27835 0.921735 0
M  V30 11557 C 1061.03 1.17182 1.70153 0
M  V30 11558 C 1061.44 -0.273207 1.87217 0
M  V30 11559 O 1060.78 -1.19729 1.39322 0
M  V30 11560 C 1060.84 1.78969 3.11786 0
M  V30 11561 C 1060.5 3.28179 3.18037 0
M  V30 11562 C 1061.5 4.24729 2.99835 0
M  V30 11563 C 1059.19 3.68995 3.40805 0
M  V30 11564 C 1061.18 5.60071 3.04301 0
M  V30 11565 C 1058.87 5.04465 3.44904 0
M  V30 11566 C 1059.87 5.99813 3.2667 0
M  V30 11567 O 1059.55 7.32813 3.30515 0
M  V30 11568 H 1059.29 0.408079 0.538932 0
M  V30 11569 H 1061.84 1.69326 1.16266 0
M  V30 11570 H 1060.07 1.2131 3.6718 0
M  V30 11571 H 1061.76 1.62946 3.71757 0
M  V30 11572 H 1062.52 3.94533 2.8208 0
M  V30 11573 H 1058.4 2.9525 3.54045 0
M  V30 11574 H 1061.95 6.34471 2.89987 0
M  V30 11575 H 1057.84 5.34315 3.62185 0
M  V30 11576 H 1058.61 7.41338 3.4693 0
M  V30 11577 N 1061.28 -1.12907 1.09954 0
M  V30 11578 C 1062.22 -2.18485 0.743848 0
M  V30 11579 C 1063.19 -1.63766 -0.277494 0
M  V30 11580 O 1064.38 -1.90146 -0.157899 0
M  V30 11581 C 1061.52 -3.44649 0.176437 0
M  V30 11582 C 1060.63 -4.13445 1.25248 0
M  V30 11583 C 1059.77 -5.27242 0.647242 0
M  V30 11584 C 1058.8 -5.87897 1.70421 0
M  V30 11585 N 1057.94 -6.93116 1.1196 0
M  V30 11586 H 1062.78 -2.48257 1.64841 0
M  V30 11587 H 1060.32 -1.21891 0.823471 0
M  V30 11588 H 1062.28 -4.16852 -0.170384 0
M  V30 11589 H 1060.91 -3.15309 -0.69137 0
M  V30 11590 H 1059.96 -3.39471 1.7165 0
M  V30 11591 H 1061.27 -4.54601 2.05279 0
M  V30 11592 H 1060.42 -6.06186 0.249579 0
M  V30 11593 H 1059.16 -4.87351 -0.184556 0
M  V30 11594 H 1058.17 -5.07643 2.11136 0
M  V30 11595 H 1059.39 -6.2986 2.53877 0
M  V30 11596 H 1057.34 -6.55271 0.309181 0
M  V30 11597 H 1057.26 -7.32843 1.85681 0
M  V30 11598 H 1058.52 -7.759 0.748326 0
M  V30 11599 N 1062.75 -0.88754 -1.30232 0
M  V30 11600 C 1064 -0.503322 -1.95319 0
M  V30 11601 C 1064.32 0.952817 -1.70824 0
M  V30 11602 O 1065.52 1.444 -2.29915 0
M  V30 11603 C 1063.98 -0.849216 -3.49738 0
M  V30 11604 C 1063.59 -2.3233 -3.83049 0
M  V30 11605 C 1065.33 -0.53432 -4.21124 0
M  V30 11606 C 1063.24 -2.61069 -5.30657 0
M  V30 11607 H 1062.17 -0.1845 -0.731078 0
M  V30 11608 H 1064.82 -1.08287 -1.48143 0
M  V30 11609 H 1063.2 -0.198729 -3.95501 0
M  V30 11610 H 1064.37 -3.01832 -3.48187 0
M  V30 11611 H 1062.69 -2.60599 -3.24773 0
M  V30 11612 H 1065.29 -0.726039 -5.29748 0
M  V30 11613 H 1065.63 0.526434 -4.12958 0
M  V30 11614 H 1066.16 -1.14211 -3.81052 0
M  V30 11615 H 1062.9 -3.65895 -5.43876 0
M  V30 11616 H 1062.42 -1.96179 -5.6681 0
M  V30 11617 H 1064.1 -2.46703 -5.98119 0
M  V30 11618 N 1064.23 1.43628 -0.648757 0
M  V30 11619 C 1065.16 2.33478 0.0320785 0
M  V30 11620 C 1066.14 1.49217 0.816605 0
M  V30 11621 O 1067.33 1.77892 0.778974 0
M  V30 11622 C 1064.46 3.32525 1.00222 0
M  V30 11623 C 1063.41 4.2674 0.328119 0
M  V30 11624 C 1062.74 5.15791 1.4094 0
M  V30 11625 C 1064.04 5.16493 -0.776701 0
M  V30 11626 H 1065.73 2.90657 -0.718257 0
M  V30 11627 H 1063.28 1.3976 -0.346852 0
M  V30 11628 H 1065.23 3.94277 1.4874 0
M  V30 11629 H 1063.96 2.73593 1.78366 0
M  V30 11630 H 1062.61 3.66346 -0.136569 0
M  V30 11631 H 1062.26 4.53201 2.18216 0
M  V30 11632 H 1061.96 5.79645 0.963631 0
M  V30 11633 H 1063.49 5.80416 1.89603 0
M  V30 11634 H 1064.9 5.7208 -0.373878 0
M  V30 11635 H 1063.3 5.89043 -1.14667 0
M  V30 11636 H 1064.37 4.56448 -1.63654 0
M  V30 11637 N 1065.71 0.390394 1.52688 0
M  V30 11638 C 1066.62 -0.451543 2.30213 0
M  V30 11639 C 1067.64 -1.07051 1.37172 0
M  V30 11640 O 1068.81 -1.07609 1.70242 0
M  V30 11641 C 1065.88 -1.56299 3.0947 0
M  V30 11642 C 1064.94 -0.969017 4.18221 0
M  V30 11643 C 1064.17 -2.0275 4.93688 0
M  V30 11644 O 1064.39 -3.24273 4.69258 0
M  V30 11645 O 1063.33 -1.64418 5.79008 0
M  V30 11646 H 1067.15 0.180042 3.03166 0
M  V30 11647 H 1064.74 0.154082 1.48603 0
M  V30 11648 H 1066.62 -2.20864 3.58883 0
M  V30 11649 H 1065.3 -2.17952 2.3933 0
M  V30 11650 H 1064.2 -0.286587 3.73001 0
M  V30 11651 H 1065.54 -0.396687 4.90599 0
M  V30 11652 N 1067.19 -1.57141 0.120249 0
M  V30 11653 C 1068.41 -2.00017 -0.548454 0
M  V30 11654 C 1068.84 -0.999433 -1.59352 0
M  V30 11655 O 1068.2 0.0286978 -1.81277 0
M  V30 11656 C 1068.24 -3.41766 -1.15015 0
M  V30 11657 O 1067.35 -3.44589 -2.26566 0
M  V30 11658 H 1066.69 -0.649739 -0.136875 0
M  V30 11659 H 1069.22 -2.03529 0.209092 0
M  V30 11660 H 1069.23 -3.80001 -1.48537 0
M  V30 11661 H 1067.9 -4.14117 -0.384681 0
M  V30 11662 H 1066.48 -3.18174 -1.94473 0
M  V30 11663 N 1068.67 0.153526 -1.5685 0
M  V30 11664 C 1069.63 1.17362 -1.96873 0
M  V30 11665 C 1070.63 1.36219 -0.854456 0
M  V30 11666 O 1071.82 1.33322 -1.1212 0
M  V30 11667 C 1068.95 2.53523 -2.27901 0
M  V30 11668 H 1070.14 0.830432 -2.88173 0
M  V30 11669 H 1067.7 0.396633 -1.51184 0
M  V30 11670 H 1068.43 2.92824 -1.39371 0
M  V30 11671 H 1068.22 2.41198 -3.09137 0
M  V30 11672 H 1069.71 3.27006 -2.59725 0
M  V30 11673 N 1070.14 1.51827 0.422667 0
M  V30 11674 C 1071.37 1.69337 1.19748 0
M  V30 11675 C 1071.79 0.396312 1.83878 0
M  V30 11676 O 1071.15 -0.644976 1.6944 0
M  V30 11677 C 1071.2 2.82082 2.24637 0
M  V30 11678 O 1070.3 2.46708 3.30468 0
M  V30 11679 H 1069.65 0.564154 0.35018 0
M  V30 11680 H 1072.18 1.98465 0.497289 0
M  V30 11681 H 1072.19 3.06599 2.69186 0
M  V30 11682 H 1070.86 3.76195 1.77341 0
M  V30 11683 H 1069.44 2.32815 2.91293 0
M  V30 11684 N 1071.62 -0.679052 1.4222 0
M  V30 11685 C 1072.85 -1.47248 1.46058 0
M  V30 11686 C 1073.27 -1.87962 0.0720987 0
M  V30 11687 O 1072.63 -1.5572 -0.928488 0
M  V30 11688 C 1072.68 -2.70067 2.38948 0
M  V30 11689 O 1071.78 -3.68178 1.85791 0
M  V30 11690 H 1071.12 -0.442533 0.495036 0
M  V30 11691 H 1073.65 -0.833263 1.86863 0
M  V30 11692 H 1073.66 -3.18187 2.55385 0
M  V30 11693 H 1072.34 -2.39773 3.39826 0
M  V30 11694 H 1070.92 -3.2719 1.78889 0
M  V30 11695 N 1073.1 -1.28322 -0.914942 0
M  V30 11696 C 1074.05 -1.12003 -2.03858 0
M  V30 11697 C 1075.04 -0.0396287 -1.69354 0
M  V30 11698 O 1076.25 -0.198309 -1.78904 0
M  V30 11699 H 1072.62 -0.34552 -0.667922 0
M  V30 11700 H 1074.59 -2.07168 -2.14765 0
M  V30 11701 C 1073.34 -0.797402 -3.38433 0
M  V30 11702 H 1072.67 -1.62071 -3.65476 0
M  V30 11703 H 1074.11 -0.723165 -4.17787 0
M  V30 11704 C 1072.57 0.498807 -3.33187 0
M  V30 11705 O 1073.1 1.52946 -3.71444 0
M  V30 11706 N 1071.3 0.499101 -2.86282 0
M  V30 11707 H 1070.85 -0.340056 -2.55346 0
M  V30 11708 H 1070.81 1.36641 -2.83155 0
M  V30 11709 N 1074.58 1.12322 -1.10551 0
M  V30 11710 C 1075.8 1.8822 -0.871093 0
M  V30 11711 C 1076.23 1.7916 0.573005 0
M  V30 11712 O 1075.59 1.14738 1.40374 0
M  V30 11713 C 1075.63 3.35349 -1.32565 0
M  V30 11714 O 1074.74 4.09461 -0.49145 0
M  V30 11715 H 1074.08 0.584787 -0.314516 0
M  V30 11716 H 1076.61 1.42039 -1.47262 0
M  V30 11717 H 1076.62 3.86189 -1.31612 0
M  V30 11718 H 1075.29 3.4126 -2.37728 0
M  V30 11719 H 1073.87 3.68575 -0.566294 0
M  V30 11720 N 1076.06 0.894434 1.2976 0
M  V30 11721 C 1077.01 0.339611 2.25457 0
M  V30 11722 C 1077.99 -0.537326 1.51663 0
M  V30 11723 O 1079.18 -0.380204 1.72868 0
M  V30 11724 C 1076.31 -0.436494 3.40514 0
M  V30 11725 C 1075.4 0.455065 4.21651 0
M  V30 11726 N 1075.79 1.55988 4.81146 0
M  V30 11727 C 1074.09 0.251893 4.45288 0
M  V30 11728 C 1074.79 2.1117 5.42017 0
M  V30 11729 N 1073.76 1.40541 5.25118 0
M  V30 11730 H 1077.57 1.18365 2.69011 0
M  V30 11731 H 1075.08 0.744895 1.44309 0
M  V30 11732 H 1077.08 -0.850678 4.08129 0
M  V30 11733 H 1075.74 -1.27786 2.98498 0
M  V30 11734 H 1076.75 1.94266 4.80084 0
M  V30 11735 H 1073.42 -0.551536 4.13841 0
M  V30 11736 H 1074.81 3.04 5.99194 0
M  V30 11737 N 1077.53 -1.43282 0.656365 0
M  V30 11738 C 1078.46 -2.33492 -0.0196962 0
M  V30 11739 C 1079.45 -1.49647 -0.80868 0
M  V30 11740 O 1080.63 -1.78303 -0.769529 0
M  V30 11741 C 1077.76 -3.33052 -0.984574 0
M  V30 11742 C 1076.71 -4.26908 -0.305483 0
M  V30 11743 C 1076.04 -5.16531 -1.38202 0
M  V30 11744 C 1077.34 -5.16073 0.804081 0
M  V30 11745 H 1079.03 -2.90272 0.733661 0
M  V30 11746 H 1076.58 -1.39574 0.354259 0
M  V30 11747 H 1078.53 -3.9506 -1.46647 0
M  V30 11748 H 1077.26 -2.74535 -1.76913 0
M  V30 11749 H 1075.92 -3.66268 0.155995 0
M  V30 11750 H 1075.56 -4.54351 -2.1581 0
M  V30 11751 H 1075.26 -5.80148 -0.932878 0
M  V30 11752 H 1076.79 -5.81414 -1.86522 0
M  V30 11753 H 1078.2 -5.71873 0.404212 0
M  V30 11754 H 1076.6 -5.88427 1.17789 0
M  V30 11755 H 1077.67 -4.55574 1.66073 0
M  V30 11756 N 1079.01 -0.398486 -1.52479 0
M  V30 11757 C 1079.98 0.420206 -2.25315 0
M  V30 11758 C 1080.98 0.982559 -1.27289 0
M  V30 11759 O 1082.17 0.863113 -1.51314 0
M  V30 11760 C 1079.3 1.59045 -3.01525 0
M  V30 11761 H 1080.49 -0.217599 -2.9911 0
M  V30 11762 H 1078.04 -0.150784 -1.55571 0
M  V30 11763 H 1078.78 2.26542 -2.32054 0
M  V30 11764 H 1078.56 1.19382 -3.73484 0
M  V30 11765 H 1080.05 2.16984 -3.56802 0
M  V30 11766 N 1080.49 1.57075 -0.12858 0
M  V30 11767 C 1081.77 1.87075 0.571162 0
M  V30 11768 C 1082.15 1.03141 1.84188 0
M  V30 11769 O 1081.5 0.113001 2.2822 0
M  V30 11770 C 1081.71 3.3838 0.854383 0
M  V30 11771 C 1083.05 4.07194 1.20326 0
M  V30 11772 O 1084.08 3.43454 0.944338 0
M  V30 11773 O 1082.94 5.19725 1.68963 0
M  V30 11774 H 1080.03 0.774764 0.289258 0
M  V30 11775 H 1082.58 1.68908 -0.163806 0
M  V30 11776 H 1081.35 3.91273 -0.0456925 0
M  V30 11777 H 1080.97 3.62012 1.64418 0
M  V30 11778 N 1081.97 -0.145205 1.5693 0
M  V30 11779 C 1083.2 -0.871133 1.87336 0
M  V30 11780 C 1083.61 -1.7517 0.714992 0
M  V30 11781 O 1082.95 -1.80815 -0.324304 0
M  V30 11782 C 1083.01 -1.77775 3.12468 0
M  V30 11783 C 1082.68 -1.07416 4.44197 0
M  V30 11784 C 1083.67 -0.42722 5.18142 0
M  V30 11785 C 1081.36 -1.06313 4.9092 0
M  V30 11786 C 1083.35 0.221348 6.37016 0
M  V30 11787 C 1081.04 -0.410755 6.09718 0
M  V30 11788 C 1082.04 0.230357 6.82611 0
M  V30 11789 O 1081.73 0.872389 7.99152 0
M  V30 11790 H 1081.46 -0.257174 0.62517 0
M  V30 11791 H 1084.01 -0.142159 2.04907 0
M  V30 11792 H 1082.24 -2.54771 2.9091 0
M  V30 11793 H 1083.93 -2.37579 3.29107 0
M  V30 11794 H 1084.7 -0.427536 4.83112 0
M  V30 11795 H 1080.58 -1.55156 4.34105 0
M  V30 11796 H 1084.12 0.722349 6.9385 0
M  V30 11797 H 1080.02 -0.408112 6.44209 0
M  V30 11798 H 1080.78 0.774236 8.1483 0
M  V30 11799 N 1083.45 -1.52049 -0.414609 0
M  V30 11800 C 1084.69 -1.66084 -1.16379 0
M  V30 11801 C 1085.03 -0.386932 -1.90306 0
M  V30 11802 O 1084.3 0.614441 -1.8454 0
M  V30 11803 C 1084.58 -2.87927 -2.16264 0
M  V30 11804 C 1084.44 -4.25353 -1.46269 0
M  V30 11805 C 1085.76 -3.05289 -3.16996 0
M  V30 11806 H 1082.88 -0.604414 -0.421726 0
M  V30 11807 H 1085.52 -1.8459 -0.450177 0
M  V30 11808 H 1083.67 -2.7228 -2.77121 0
M  V30 11809 H 1085.34 -4.52717 -0.885743 0
M  V30 11810 H 1083.58 -4.27006 -0.76472 0
M  V30 11811 H 1084.25 -5.06644 -2.19126 0
M  V30 11812 H 1086.73 -3.19798 -2.66212 0
M  V30 11813 H 1085.61 -3.92065 -3.84156 0
M  V30 11814 H 1085.87 -2.1836 -3.84411 0
M  V30 11815 N 1084.93 0.6715 -1.42579 0
M  V30 11816 C 1085.86 1.79693 -1.49107 0
M  V30 11817 C 1086.84 1.66516 -0.347338 0
M  V30 11818 O 1088.02 1.85887 -0.562094 0
M  V30 11819 C 1085.15 3.1801 -1.39596 0
M  V30 11820 C 1084.11 3.45926 -2.5203 0
M  V30 11821 C 1083.43 4.83852 -2.27577 0
M  V30 11822 C 1084.73 3.4249 -3.94333 0
M  V30 11823 H 1086.43 1.74486 -2.433 0
M  V30 11824 H 1083.97 0.838042 -1.17102 0
M  V30 11825 H 1085.92 3.96478 -1.42771 0
M  V30 11826 H 1084.65 3.23901 -0.418989 0
M  V30 11827 H 1083.31 2.6982 -2.48178 0
M  V30 11828 H 1082.96 4.86398 -1.28165 0
M  V30 11829 H 1082.66 5.03493 -3.02934 0
M  V30 11830 H 1084.18 5.646 -2.32506 0
M  V30 11831 H 1085.59 4.10922 -3.9977 0
M  V30 11832 H 1083.99 3.73666 -4.69568 0
M  V30 11833 H 1085.06 2.41002 -4.20768 0
M  V30 11834 N 1086.4 1.28806 0.908124 0
M  V30 11835 C 1087.63 1.1898 1.689 0
M  V30 11836 C 1088.04 -0.253334 1.87496 0
M  V30 11837 O 1087.38 -1.18245 1.40584 0
M  V30 11838 C 1087.45 1.82266 3.0987 0
M  V30 11839 C 1087.11 3.31534 3.14538 0
M  V30 11840 C 1088.11 4.27886 2.95313 0
M  V30 11841 C 1085.79 3.72589 3.36872 0
M  V30 11842 C 1087.79 5.63267 2.98343 0
M  V30 11843 C 1085.47 5.08095 3.39534 0
M  V30 11844 C 1086.47 6.03244 3.2029 0
M  V30 11845 O 1086.16 7.36277 3.22724 0
M  V30 11846 H 1085.89 0.413772 0.534574 0
M  V30 11847 H 1088.45 1.7055 1.14464 0
M  V30 11848 H 1086.68 1.25197 3.65872 0
M  V30 11849 H 1088.36 1.6688 3.70008 0
M  V30 11850 H 1089.13 3.97502 2.77879 0
M  V30 11851 H 1085.01 2.98989 3.50894 0
M  V30 11852 H 1088.55 6.37511 2.83241 0
M  V30 11853 H 1084.45 5.38126 3.56497 0
M  V30 11854 H 1085.22 7.44976 3.39048 0
M  V30 11855 N 1087.88 -1.11734 1.11145 0
M  V30 11856 C 1088.83 -2.17683 0.766979 0
M  V30 11857 C 1089.8 -1.64051 -0.260108 0
M  V30 11858 O 1090.98 -1.90302 -0.137723 0
M  V30 11859 C 1088.12 -3.44442 0.212982 0
M  V30 11860 C 1087.24 -4.12094 1.29626 0
M  V30 11861 C 1086.37 -5.26526 0.703127 0
M  V30 11862 C 1085.41 -5.86057 1.76647 0
M  V30 11863 N 1084.55 -6.91889 1.19306 0
M  V30 11864 H 1089.39 -2.46495 1.67465 0
M  V30 11865 H 1086.92 -1.21011 0.836353 0
M  V30 11866 H 1088.88 -4.17009 -0.126162 0
M  V30 11867 H 1087.51 -3.16025 -0.657888 0
M  V30 11868 H 1086.56 -3.37631 1.75241 0
M  V30 11869 H 1087.88 -4.52398 2.10089 0
M  V30 11870 H 1087.03 -6.05888 0.313859 0
M  V30 11871 H 1085.77 -4.87519 -0.132856 0
M  V30 11872 H 1084.77 -5.05375 2.16508 0
M  V30 11873 H 1086 -6.27132 2.60543 0
M  V30 11874 H 1083.95 -6.54906 0.378664 0
M  V30 11875 H 1083.86 -7.30832 1.93443 0
M  V30 11876 H 1085.13 -7.75062 0.830578 0
M  V30 11877 N 1089.36 -0.901303 -1.29284 0
M  V30 11878 C 1090.31 -0.370142 -2.29636 0
M  V30 11879 C 1091.3 0.53157 -1.60844 0
M  V30 11880 O 1092.51 0.414194 -1.7517 0
M  V30 11881 H 1088.88 -0.101072 -0.745177 0
M  V30 11882 H 1090.85 -1.22985 -2.71877 0
M  V30 11883 C 1089.6 0.385806 -3.45553 0
M  V30 11884 H 1088.93 -0.298818 -3.98682 0
M  V30 11885 H 1090.37 0.722299 -4.17802 0
M  V30 11886 C 1088.82 1.58907 -2.97069 0
M  V30 11887 O 1089.35 2.68835 -2.98481 0
M  V30 11888 N 1087.56 1.43178 -2.5288 0
M  V30 11889 H 1087.11 0.537467 -2.51931 0
M  V30 11890 H 1087.07 2.23819 -2.208 0
M  V30 11891 N 1090.84 1.42931 -0.663954 0
M  V30 11892 C 1091.78 2.3079 0.0210764 0
M  V30 11893 C 1092.75 1.45356 0.803796 0
M  V30 11894 O 1093.94 1.74207 0.778237 0
M  V30 11895 C 1091.08 3.31069 0.974023 0
M  V30 11896 C 1090.19 4.31598 0.186273 0
M  V30 11897 C 1089.33 5.18955 1.13399 0
M  V30 11898 C 1088.37 6.1117 0.337292 0
M  V30 11899 N 1087.5 6.91114 1.23715 0
M  V30 11900 H 1092.34 2.88819 -0.733995 0
M  V30 11901 H 1089.88 1.42274 -0.373711 0
M  V30 11902 H 1091.84 3.87727 1.54024 0
M  V30 11903 H 1090.47 2.74665 1.69585 0
M  V30 11904 H 1089.52 3.77147 -0.496402 0
M  V30 11905 H 1090.83 4.96919 -0.432753 0
M  V30 11906 H 1089.99 5.80292 1.77049 0
M  V30 11907 H 1088.73 4.53785 1.78691 0
M  V30 11908 H 1087.73 5.48911 -0.312492 0
M  V30 11909 H 1088.96 6.78386 -0.31138 0
M  V30 11910 H 1086.9 6.28583 1.87668 0
M  V30 11911 H 1086.82 7.52999 0.672946 0
M  V30 11912 H 1088.09 7.56948 1.86146 0
M  V30 11913 N 1092.32 0.406567 1.52266 0
M  V30 11914 C 1093.56 -0.170305 2.02084 0
M  V30 11915 C 1093.89 -1.45008 1.29176 0
M  V30 11916 O 1093.17 -1.90399 0.39731 0
M  V30 11917 C 1093.45 -0.420627 3.57635 0
M  V30 11918 C 1093.31 0.87564 4.41194 0
M  V30 11919 C 1094.62 -1.20387 4.23314 0
M  V30 11920 H 1091.74 -0.0604219 0.734519 0
M  V30 11921 H 1094.39 0.539529 1.82179 0
M  V30 11922 H 1092.54 -1.0253 3.74726 0
M  V30 11923 H 1094.21 1.51192 4.35819 0
M  V30 11924 H 1092.45 1.48718 4.07511 0
M  V30 11925 H 1093.12 0.654916 5.48101 0
M  V30 11926 H 1095.6 -0.691972 4.10306 0
M  V30 11927 H 1094.47 -1.34776 5.32096 0
M  V30 11928 H 1094.73 -2.2238 3.82099 0
M  V30 11929 N 1093.79 -1.57004 0.136909 0
M  V30 11930 C 1094.7 -2.19807 -0.819887 0
M  V30 11931 C 1095.72 -1.17939 -1.27932 0
M  V30 11932 O 1096.9 -1.50478 -1.3386 0
M  V30 11933 C 1093.96 -2.79935 -2.04542 0
M  V30 11934 C 1093.02 -3.96897 -1.6362 0
M  V30 11935 C 1092.26 -4.54148 -2.80331 0
M  V30 11936 O 1092.48 -4.10282 -3.96264 0
M  V30 11937 O 1091.41 -5.44565 -2.56384 0
M  V30 11938 H 1095.24 -3.02058 -0.315337 0
M  V30 11939 H 1092.82 -1.49131 -0.0896151 0
M  V30 11940 H 1094.71 -3.18191 -2.76283 0
M  V30 11941 H 1093.38 -2.00703 -2.53969 0
M  V30 11942 H 1092.29 -3.63376 -0.889316 0
M  V30 11943 H 1093.62 -4.77618 -1.18918 0
M  V30 11944 N 1095.27 0.136881 -1.57004 0
M  V30 11945 C 1096.55 0.87705 -1.74835 0
M  V30 11946 C 1096.93 1.98886 -0.707639 0
M  V30 11947 O 1096.28 2.26879 0.271652 0
M  V30 11948 C 1096.49 1.41021 -3.1924 0
M  V30 11949 C 1097.84 1.86963 -3.81222 0
M  V30 11950 O 1098.86 1.5074 -3.22732 0
M  V30 11951 O 1097.72 2.53798 -4.83993 0
M  V30 11952 H 1094.81 0.415192 -0.715223 0
M  V30 11953 H 1097.36 0.122016 -1.69261 0
M  V30 11954 H 1096.13 0.611677 -3.8649 0
M  V30 11955 H 1095.75 2.22846 -3.2928 0
M  V30 11956 N 1096.75 1.52266 0.40654 0
M  V30 11957 C 1097.98 1.70598 1.17945 0
M  V30 11958 C 1098.4 0.415793 1.83447 0
M  V30 11959 O 1097.76 -0.626968 1.70114 0
M  V30 11960 C 1097.81 2.84449 2.21633 0
M  V30 11961 O 1096.91 2.50199 3.27833 0
M  V30 11962 H 1096.25 0.567837 0.344177 0
M  V30 11963 H 1098.78 1.98981 0.476211 0
M  V30 11964 H 1098.79 3.09436 2.65919 0
M  V30 11965 H 1097.47 3.78055 1.73341 0
M  V30 11966 H 1096.04 2.35892 2.88807 0
M  V30 11967 N 1098.23 -0.663929 1.42933 0
M  V30 11968 C 1099.48 -1.42111 1.43697 0
M  V30 11969 C 1099.8 -1.94913 0.0583858 0
M  V30 11970 O 1099.07 -1.73757 -0.904719 0
M  V30 11971 H 1097.65 -0.527391 0.529026 0
M  V30 11972 H 1100.31 -0.783766 1.78446 0
M  V30 11973 H 1099.41 -2.26877 2.1432 0
M  V30 11974 N 1099.71 -1.29285 -0.901281 0
M  V30 11975 C 1100.96 -1.16538 -1.64626 0
M  V30 11976 C 1101.27 0.282623 -1.93547 0
M  V30 11977 O 1102.47 0.531396 -2.66249 0
M  V30 11978 C 1100.93 -2.03809 -2.96631 0
M  V30 11979 C 1100.54 -3.53423 -2.75311 0
M  V30 11980 C 1102.28 -1.99782 -3.7455 0
M  V30 11981 C 1100.19 -4.32804 -4.03032 0
M  V30 11982 H 1099.12 -0.432561 -0.617581 0
M  V30 11983 H 1101.77 -1.53912 -0.999159 0
M  V30 11984 H 1100.15 -1.59302 -3.62545 0
M  V30 11985 H 1101.33 -4.05971 -2.18 0
M  V30 11986 H 1099.64 -3.59106 -2.10789 0
M  V30 11987 H 1102.24 -2.5635 -4.69243 0
M  V30 11988 H 1102.58 -0.97743 -4.04663 0
M  V30 11989 H 1103.11 -2.42324 -3.15474 0
M  V30 11990 H 1099.85 -5.35473 -3.78086 0
M  V30 11991 H 1099.37 -3.85025 -4.59909 0
M  V30 11992 H 1101.05 -4.43383 -4.71191 0
M  V30 11993 N 1101.18 1.11143 -1.11736 0
M  V30 11994 C 1102.43 1.82948 -0.868127 0
M  V30 11995 C 1102.76 1.84813 0.606182 0
M  V30 11996 O 1102.01 1.29901 1.4637 0
M  V30 11997 C 1102.31 3.29733 -1.3788 0
M  V30 11998 C 1101.98 3.48025 -2.86687 0
M  V30 11999 C 1100.64 3.52725 -3.2732 0
M  V30 12000 C 1102.99 3.54024 -3.82513 0
M  V30 12001 C 1100.32 3.60983 -4.62502 0
M  V30 12002 C 1102.67 3.63814 -5.17515 0
M  V30 12003 C 1101.34 3.66776 -5.57702 0
M  V30 12004 H 1100.61 0.669452 -0.31767 0
M  V30 12005 H 1103.25 1.31057 -1.3963 0
M  V30 12006 H 1101.56 3.8414 -0.77093 0
M  V30 12007 H 1103.26 3.83787 -1.16225 0
M  V30 12008 H 1099.85 3.45039 -2.54256 0
M  V30 12009 H 1104.03 3.4965 -3.52219 0
M  V30 12010 H 1099.29 3.61554 -4.9304 0
M  V30 12011 H 1103.46 3.674 -5.916 0
M  V30 12012 H 1101.09 3.72927 -6.62442 0
M  V30 12013 N 1102.66 0.908147 1.28804 0
M  V30 12014 C 1103.89 0.55409 1.99343 0
M  V30 12015 C 1104.31 -0.863262 1.67908 0
M  V30 12016 O 1103.66 -1.571 0.92875 0
M  V30 12017 C 1103.71 0.746916 3.537 0
M  V30 12018 O 1103.43 2.10849 3.84024 0
M  V30 12019 C 1104.94 0.398939 4.41501 0
M  V30 12020 H 1102.16 0.211784 0.636701 0
M  V30 12021 H 1104.7 1.21981 1.64137 0
M  V30 12022 H 1102.85 0.128264 3.87188 0
M  V30 12023 H 1103.27 2.14404 4.78676 0
M  V30 12024 H 1104.74 0.584656 5.48895 0
M  V30 12025 H 1105.22 -0.664517 4.34144 0
M  V30 12026 H 1105.83 0.994892 4.135 0
M  V30 12027 N 1104.14 -1.42577 0.671525 0
M  V30 12028 C 1105.39 -2.00806 0.189663 0
M  V30 12029 C 1105.7 -1.537 -1.20978 0
M  V30 12030 O 1106.91 -2.04325 -1.78784 0
M  V30 12031 C 1105.36 -3.58744 0.288227 0
M  V30 12032 C 1104.97 -4.14839 1.69152 0
M  V30 12033 C 1106.72 -4.24285 -0.13509 0
M  V30 12034 C 1104.62 -5.65131 1.74302 0
M  V30 12035 H 1103.55 -0.751004 0.067146 0
M  V30 12036 H 1106.2 -1.63338 0.83623 0
M  V30 12037 H 1104.59 -3.937 -0.426175 0
M  V30 12038 H 1105.76 -3.91349 2.43274 0
M  V30 12039 H 1104.08 -3.61738 2.0624 0
M  V30 12040 H 1106.67 -5.34573 -0.116709 0
M  V30 12041 H 1107.02 -3.99527 -1.16977 0
M  V30 12042 H 1107.55 -3.94278 0.528191 0
M  V30 12043 H 1104.29 -5.94682 2.75742 0
M  V30 12044 H 1103.81 -5.90621 1.04531 0
M  V30 12045 H 1105.49 -6.29491 1.49498 0
M  V30 12046 N 1105.62 -0.414636 -1.52048 0
M  V30 12047 C 1106.57 0.408141 -2.27163 0
M  V30 12048 C 1107.54 1.03636 -1.29803 0
M  V30 12049 O 1108.72 1.05959 -1.58674 0
M  V30 12050 C 1105.86 1.51588 -3.10024 0
M  V30 12051 C 1104.97 0.908034 -4.22349 0
M  V30 12052 C 1104.11 1.98893 -4.9256 0
M  V30 12053 C 1103.15 1.35831 -5.96839 0
M  V30 12054 N 1102.28 2.37958 -6.60545 0
M  V30 12055 H 1107.12 -0.238822 -2.97041 0
M  V30 12056 H 1104.66 -0.129614 -1.46528 0
M  V30 12057 H 1106.62 2.16916 -3.56375 0
M  V30 12058 H 1105.25 2.13279 -2.42305 0
M  V30 12059 H 1104.3 0.143652 -3.80129 0
M  V30 12060 H 1105.61 0.407426 -4.97133 0
M  V30 12061 H 1104.77 2.71935 -5.42343 0
M  V30 12062 H 1103.51 2.5232 -4.17356 0
M  V30 12063 H 1102.51 0.613246 -5.46369 0
M  V30 12064 H 1103.74 0.831655 -6.73988 0
M  V30 12065 H 1101.68 2.90508 -5.88167 0
M  V30 12066 H 1101.6 1.92725 -7.31022 0
M  V30 12067 H 1102.87 3.10553 -7.14966 0
M  V30 12068 N 1107.1 1.56929 -0.145233 0
M  V30 12069 C 1108.04 2.17958 0.812237 0
M  V30 12070 C 1109.04 1.13608 1.25657 0
M  V30 12071 O 1110.24 1.31861 1.22526 0
M  V30 12072 H 1106.62 0.697876 0.28013 0
M  V30 12073 H 1108.59 2.97146 0.273297 0
M  V30 12074 C 1107.34 2.81418 2.04203 0
M  V30 12075 H 1106.66 3.61427 1.70911 0
M  V30 12076 H 1108.1 3.27624 2.69144 0
M  V30 12077 C 1106.56 1.79835 2.84888 0
M  V30 12078 O 1107.09 1.26773 3.81171 0
M  V30 12079 N 1105.3 1.49179 2.49387 0
M  V30 12080 H 1104.84 1.9252 1.71154 0
M  V30 12081 H 1104.8 0.81458 3.03664 0
M  V30 12082 N 1108.58 -0.128553 1.57075 0
M  V30 12083 C 1109.51 -1.18822 1.94825 0
M  V30 12084 C 1110.49 -1.40609 0.816571 0
M  V30 12085 O 1111.67 -1.5492 1.07388 0
M  V30 12086 C 1108.8 -2.54383 2.23623 0
M  V30 12087 C 1107.84 -2.4908 3.4621 0
M  V30 12088 S 1108.68 -1.93974 4.99133 0
M  V30 12089 C 1109.83 -3.31228 5.31074 0
M  V30 12090 H 1110.07 -0.866246 2.844 0
M  V30 12091 H 1107.6 -0.334927 1.50724 0
M  V30 12092 H 1109.56 -3.32386 2.40893 0
M  V30 12093 H 1108.22 -2.83761 1.34678 0
M  V30 12094 H 1107.41 -3.48915 3.63695 0
M  V30 12095 H 1107.01 -1.79193 3.28277 0
M  V30 12096 H 1109.3 -4.27407 5.25671 0
M  V30 12097 H 1110.25 -3.18578 6.32387 0
M  V30 12098 H 1110.66 -3.29215 4.5856 0
M  V30 12099 N 1110.05 -1.5248 -0.398459 0
M  V30 12100 C 1111.3 -1.66287 -1.14155 0
M  V30 12101 C 1111.62 -0.40429 -1.91376 0
M  V30 12102 O 1112.82 -0.422341 -2.68195 0
M  V30 12103 C 1111.28 -2.93831 -2.07825 0
M  V30 12104 C 1110.89 -4.26836 -1.3607 0
M  V30 12105 C 1112.63 -3.17004 -2.82327 0
M  V30 12106 C 1110.54 -5.45495 -2.28451 0
M  V30 12107 H 1109.47 -0.619478 -0.42984 0
M  V30 12108 H 1112.12 -1.78972 -0.405112 0
M  V30 12109 H 1110.5 -2.7487 -2.85065 0
M  V30 12110 H 1111.67 -4.56317 -0.641205 0
M  V30 12111 H 1109.99 -4.0985 -0.735659 0
M  V30 12112 H 1112.59 -4.02834 -3.51609 0
M  V30 12113 H 1112.93 -2.3168 -3.45876 0
M  V30 12114 H 1113.46 -3.36487 -2.12183 0
M  V30 12115 H 1110.2 -6.33198 -1.69532 0
M  V30 12116 H 1109.72 -5.20338 -2.98343 0
M  V30 12117 H 1111.4 -5.78996 -2.88743 0
M  V30 12118 N 1111.53 0.65634 -1.43283 0
M  V30 12119 C 1112.48 1.79058 -1.48462 0
M  V30 12120 C 1113.47 1.65563 -0.358512 0
M  V30 12121 O 1114.68 1.71947 -0.532365 0
M  V30 12122 H 1111.05 0.590716 -0.465358 0
M  V30 12123 H 1113.03 1.7181 -2.43975 0
M  V30 12124 C 1111.77 3.17304 -1.42175 0
M  V30 12125 H 1111.1 3.28324 -2.2813 0
M  V30 12126 H 1112.54 3.96633 -1.4986 0
M  V30 12127 C 1111 3.36613 -0.138929 0
M  V30 12128 O 1111.53 3.93633 0.80101 0
M  V30 12129 N 1109.73 2.90557 -0.0501237 0
M  V30 12130 H 1109.28 2.4434 -0.815821 0
M  V30 12131 H 1109.24 3.03853 0.807504 0
M  V30 12132 N 1113.01 1.29761 0.894412 0
M  V30 12133 C 1114.24 1.2094 1.67872 0
M  V30 12134 C 1114.65 -0.229192 1.87404 0
M  V30 12135 O 1114.01 -1.15278 1.41482 0
M  V30 12136 C 1114.06 1.92424 3.06032 0
M  V30 12137 O 1113.78 3.30665 2.87388 0
M  V30 12138 C 1115.28 1.90144 4.0045 0
M  V30 12139 H 1112.5 0.418942 0.524145 0
M  V30 12140 H 1115.05 1.71226 1.11813 0
M  V30 12141 H 1113.2 1.4596 3.58851 0
M  V30 12142 H 1113.62 3.66741 3.74969 0
M  V30 12143 H 1115.09 2.44716 4.94791 0
M  V30 12144 H 1115.57 0.878175 4.30331 0
M  V30 12145 H 1116.17 2.36375 3.53563 0
M  V30 12146 N 1114.49 -1.10549 1.12324 0
M  V30 12147 C 1115.4 -2.20428 0.803032 0
M  V30 12148 C 1116.41 -1.72756 -0.207674 0
M  V30 12149 O 1117.59 -2.01357 -0.0415623 0
M  V30 12150 C 1114.65 -3.45716 0.261032 0
M  V30 12151 C 1113.72 -4.08129 1.33152 0
M  V30 12152 C 1112.95 -5.27436 0.815288 0
M  V30 12153 O 1113.17 -5.69317 -0.351361 0
M  V30 12154 O 1112.11 -5.80674 1.58434 0
M  V30 12155 H 1115.93 -2.50249 1.72073 0
M  V30 12156 H 1113.52 -1.19263 0.899815 0
M  V30 12157 H 1115.4 -4.21384 -0.0364007 0
M  V30 12158 H 1114.07 -3.17525 -0.629249 0
M  V30 12159 H 1112.98 -3.3415 1.6821 0
M  V30 12160 H 1114.31 -4.4052 2.19552 0
M  V30 12161 N 1115.97 -0.914965 -1.28321 0
M  V30 12162 C 1116.88 -0.409424 -2.31 0
M  V30 12163 C 1117.89 0.503526 -1.66555 0
M  V30 12164 O 1119.07 0.38942 -1.97599 0
M  V30 12165 C 1116.13 0.34123 -3.45017 0
M  V30 12166 C 1115.19 -0.605087 -4.25014 0
M  V30 12167 C 1114.43 0.109837 -5.33587 0
M  V30 12168 O 1114.65 1.33136 -5.54645 0
M  V30 12169 O 1113.58 -0.555474 -5.99331 0
M  V30 12170 H 1117.41 -1.26167 -2.76253 0
M  V30 12171 H 1114.99 -0.679831 -1.33036 0
M  V30 12172 H 1116.88 0.765132 -4.14396 0
M  V30 12173 H 1115.55 1.16929 -3.01843 0
M  V30 12174 H 1114.46 -1.07841 -3.58219 0
M  V30 12175 H 1115.79 -1.39999 -4.7187 0
M  V30 12176 N 1117.44 1.42219 -0.679077 0
M  V30 12177 C 1118.69 2.01081 -0.202718 0
M  V30 12178 C 1119.01 1.53986 1.19639 0
M  V30 12179 O 1118.28 0.763359 1.80415 0
M  V30 12180 H 1116.86 0.743526 -0.0719547 0
M  V30 12181 H 1119.52 1.74077 -0.876544 0
M  V30 12182 H 1118.62 3.11411 -0.207314 0
M  V30 12183 N 1118.92 0.422693 1.51826 0
M  V30 12184 C 1120.17 -0.150066 2.01141 0
M  V30 12185 C 1120.48 -1.45059 1.31214 0
M  V30 12186 O 1121.69 -2.10542 1.71419 0
M  V30 12187 C 1120.15 -0.317985 3.58492 0
M  V30 12188 C 1119.75 0.971244 4.37345 0
M  V30 12189 C 1121.5 -0.845303 4.15999 0
M  V30 12190 C 1119.4 0.769769 5.86369 0
M  V30 12191 H 1118.33 -0.0598567 0.75162 0
M  V30 12192 H 1120.99 0.550217 1.75057 0
M  V30 12193 H 1119.37 -1.08092 3.80962 0
M  V30 12194 H 1120.54 1.74138 4.26629 0
M  V30 12195 H 1118.86 1.42599 3.91222 0
M  V30 12196 H 1121.45 -1.01229 5.2503 0
M  V30 12197 H 1121.8 -1.82375 3.74226 0
M  V30 12198 H 1122.33 -0.141067 3.9755 0
M  V30 12199 H 1119.07 1.72017 6.32527 0
M  V30 12200 H 1118.59 0.0391717 5.99787 0
M  V30 12201 H 1120.27 0.417225 6.45653 0
M  V30 12202 N 1120.4 -1.5685 0.153553 0
M  V30 12203 C 1121.63 -2.00701 -0.502678 0
M  V30 12204 C 1122.04 -1.0337 -1.57988 0
M  V30 12205 O 1121.4 -0.0317233 -1.82472 0
M  V30 12206 C 1121.45 -3.44443 -1.09732 0
M  V30 12207 O 1121.17 -4.38054 -0.0631405 0
M  V30 12208 C 1122.67 -4.03605 -1.83352 0
M  V30 12209 H 1119.89 -0.658229 -0.130289 0
M  V30 12210 H 1122.44 -2.02965 0.250063 0
M  V30 12211 H 1120.59 -3.43009 -1.80065 0
M  V30 12212 H 1121.01 -5.22114 -0.499681 0
M  V30 12213 H 1122.48 -5.0616 -2.20241 0
M  V30 12214 H 1122.96 -3.44687 -2.7219 0
M  V30 12215 H 1123.56 -4.08688 -1.17703 0
M  V30 12216 N 1121.88 0.120221 -1.57141 0
M  V30 12217 C 1122.81 1.14876 -2.03287 0
M  V30 12218 C 1123.79 1.43259 -0.917112 0
M  V30 12219 O 1124.97 1.53721 -1.18674 0
M  V30 12220 C 1122.1 2.47525 -2.43616 0
M  V30 12221 C 1121.06 2.33607 -3.58625 0
M  V30 12222 C 1120.38 3.71207 -3.84849 0
M  V30 12223 C 1121.68 1.79761 -4.90391 0
M  V30 12224 H 1123.38 0.764943 -2.89463 0
M  V30 12225 H 1120.92 0.366516 -1.39258 0
M  V30 12226 H 1122.88 3.19728 -2.74504 0
M  V30 12227 H 1121.6 2.87794 -1.54409 0
M  V30 12228 H 1120.26 1.63853 -3.27945 0
M  V30 12229 H 1119.91 4.0896 -2.9285 0
M  V30 12230 H 1119.61 3.62749 -4.62263 0
M  V30 12231 H 1121.13 4.44917 -4.18188 0
M  V30 12232 H 1122.55 2.4178 -5.19822 0
M  V30 12233 H 1120.94 1.82126 -5.71795 0
M  V30 12234 H 1122.01 0.755087 -4.78985 0
M  V30 12235 N 1123.36 1.52689 0.390367 0
M  V30 12236 C 1124.27 1.8029 1.50108 0
M  V30 12237 C 1125.28 0.689582 1.59752 0
M  V30 12238 O 1126.46 0.977024 1.76114 0
M  V30 12239 C 1123.52 1.96475 2.85654 0
M  V30 12240 C 1122.58 3.2039 2.85743 0
M  V30 12241 C 1121.82 3.35793 4.14824 0
M  V30 12242 O 1122.04 2.56033 5.09709 0
M  V30 12243 O 1120.97 4.2904 4.22147 0
M  V30 12244 H 1124.8 2.74605 1.29715 0
M  V30 12245 H 1122.39 1.37763 0.578074 0
M  V30 12246 H 1124.27 2.08835 3.66013 0
M  V30 12247 H 1122.94 1.05351 3.06077 0
M  V30 12248 H 1121.85 3.13473 2.0417 0
M  V30 12249 H 1123.18 4.11356 2.70272 0
M  V30 12250 N 1124.83 -0.648732 1.43629 0
M  V30 12251 C 1125.78 -1.78269 1.49409 0
M  V30 12252 C 1126.78 -1.6537 0.367288 0
M  V30 12253 O 1127.98 -1.71663 0.541476 0
M  V30 12254 H 1124.36 -0.58824 0.468484 0
M  V30 12255 H 1126.33 -1.70514 2.44883 0
M  V30 12256 C 1125.08 -3.16545 1.43856 0
M  V30 12257 H 1124.4 -3.2711 2.29868 0
M  V30 12258 H 1125.84 -3.95833 1.51961 0
M  V30 12259 C 1124.3 -3.36535 0.156779 0
M  V30 12260 O 1124.83 -3.94052 -0.780124 0
M  V30 12261 N 1123.04 -2.90526 0.0655319 0
M  V30 12262 H 1122.58 -2.43904 0.828768 0
M  V30 12263 H 1122.54 -3.04277 -0.791379 0
M  V30 12264 N 1126.31 -1.30234 -0.887518 0
M  V30 12265 C 1127.54 -1.21955 -1.67755 0
M  V30 12266 C 1127.96 0.214701 -1.86871 0
M  V30 12267 O 1127.32 1.15459 -1.39782 0
M  V30 12268 C 1127.37 -1.95079 -3.03276 0
M  V30 12269 O 1126.47 -1.27615 -3.92158 0
M  V30 12270 H 1125.81 -0.421948 -0.512695 0
M  V30 12271 H 1128.34 -1.72011 -1.10785 0
M  V30 12272 H 1128.35 -2.04004 -3.53336 0
M  V30 12273 H 1127.03 -2.99392 -2.88682 0
M  V30 12274 H 1125.61 -1.27029 -3.50597 0
M  V30 12275 N 1127.79 1.09952 -1.12909 0
M  V30 12276 C 1129.04 1.82016 -0.887482 0
M  V30 12277 C 1129.37 1.85445 0.586546 0
M  V30 12278 O 1128.62 1.31446 1.44984 0
M  V30 12279 C 1128.92 3.28252 -1.41369 0
M  V30 12280 C 1128.59 3.44965 -2.90362 0
M  V30 12281 C 1127.25 3.49233 -3.31043 0
M  V30 12282 C 1129.6 3.49947 -3.86247 0
M  V30 12283 C 1126.93 3.56057 -4.66305 0
M  V30 12284 C 1129.28 3.58305 -5.21345 0
M  V30 12285 C 1127.94 3.6084 -5.61561 0
M  V30 12286 H 1127.21 0.666046 -0.324753 0
M  V30 12287 H 1129.86 1.29568 -1.41012 0
M  V30 12288 H 1128.17 3.83301 -0.81163 0
M  V30 12289 H 1129.86 3.82533 -1.20289 0
M  V30 12290 H 1126.45 3.42323 -2.57901 0
M  V30 12291 H 1130.64 3.45895 -3.55908 0
M  V30 12292 H 1125.89 3.56305 -4.96847 0
M  V30 12293 H 1130.07 3.61104 -5.95463 0
M  V30 12294 H 1127.69 3.6588 -6.6636 0
M  V30 12295 N 1129.27 0.921757 1.27833 0
M  V30 12296 C 1130.51 0.559906 1.94918 0
M  V30 12297 C 1130.85 -0.895532 1.72319 0
M  V30 12298 O 1130.12 -1.638 1.04879 0
M  V30 12299 C 1130.41 0.879458 3.49196 0
M  V30 12300 C 1130.26 2.38821 3.81162 0
M  V30 12301 C 1131.58 0.381183 4.38446 0
M  V30 12302 H 1128.7 0.204893 0.707946 0
M  V30 12303 H 1131.34 1.15246 1.51058 0
M  V30 12304 H 1129.49 0.375177 3.86684 0
M  V30 12305 H 1131.16 2.96373 3.53498 0
M  V30 12306 H 1129.4 2.83988 3.27923 0
M  V30 12307 H 1130.07 2.56234 4.88926 0
M  V30 12308 H 1132.55 0.813289 4.08075 0
M  V30 12309 H 1131.43 0.633778 5.45229 0
M  V30 12310 H 1131.69 -0.718651 4.3622 0
M  V30 12311 N 1130.75 -1.41857 0.686609 0
M  V30 12312 C 1131.68 -2.33481 0.0298353 0
M  V30 12313 C 1132.66 -1.51329 -0.776756 0
M  V30 12314 O 1133.84 -1.79895 -0.731535 0
M  V30 12315 C 1130.97 -3.35065 -0.913707 0
M  V30 12316 C 1129.93 -4.2746 -0.214861 0
M  V30 12317 C 1129.25 -5.19346 -1.27215 0
M  V30 12318 C 1130.55 -5.14252 0.913367 0
M  V30 12319 H 1132.25 -2.8865 0.795067 0
M  V30 12320 H 1129.79 -1.38792 0.383785 0
M  V30 12321 H 1131.75 -3.98082 -1.38234 0
M  V30 12322 H 1130.47 -2.78226 -1.7105 0
M  V30 12323 H 1129.13 -3.65855 0.233651 0
M  V30 12324 H 1128.78 -4.58827 -2.06124 0
M  V30 12325 H 1128.48 -5.81996 -0.80961 0
M  V30 12326 H 1130 -5.85239 -1.74147 0
M  V30 12327 H 1131.41 -5.70887 0.525424 0
M  V30 12328 H 1129.81 -5.85796 1.30244 0
M  V30 12329 H 1130.88 -4.51949 1.75699 0
M  V30 12330 N 1132.22 -0.430739 -1.51599 0
M  V30 12331 C 1133.15 0.374695 -2.30474 0
M  V30 12332 C 1134.14 1.02694 -1.35602 0
M  V30 12333 O 1135.32 1.03184 -1.6452 0
M  V30 12334 C 1132.45 1.47981 -3.14196 0
M  V30 12335 C 1131.4 0.951415 -4.17291 0
M  V30 12336 C 1130.73 2.15177 -4.89492 0
M  V30 12337 C 1132.03 -0.00957951 -5.22299 0
M  V30 12338 H 1133.72 -0.283508 -2.98055 0
M  V30 12339 H 1131.27 -0.13779 -1.43339 0
M  V30 12340 H 1133.22 2.05043 -3.68151 0
M  V30 12341 H 1131.95 2.16621 -2.44424 0
M  V30 12342 H 1130.61 0.403052 -3.64378 0
M  V30 12343 H 1130.25 2.82421 -4.1623 0
M  V30 12344 H 1129.95 1.80464 -5.59202 0
M  V30 12345 H 1131.48 2.72806 -5.46269 0
M  V30 12346 H 1132.89 0.470527 -5.71366 0
M  V30 12347 H 1131.29 -0.268959 -5.99497 0
M  V30 12348 H 1132.36 -0.948297 -4.75537 0
M  V30 12349 N 1133.7 1.56767 -0.161869 0
M  V30 12350 C 1135.12 1.58412 0.194403 0
M  V30 12351 C 1135.32 1.17682 1.63564 0
M  V30 12352 O 1134.37 0.884024 2.36519 0
M  V30 12353 C 1135.69 3.00599 -0.0778438 0
M  V30 12354 C 1137.24 3.12996 -0.015307 0
M  V30 12355 C 1137.71 4.57259 -0.260418 0
M  V30 12356 N 1139.2 4.62733 -0.207863 0
M  V30 12357 C 1139.94 5.72193 -0.371821 0
M  V30 12358 N 1139.43 6.90246 -0.594318 0
M  V30 12359 N 1141.23 5.61253 -0.308384 0
M  V30 12360 H 1133.38 1.81531 -1.10274 0
M  V30 12361 H 1135.64 0.840919 -0.437675 0
M  V30 12362 H 1135.35 3.3484 -1.07587 0
M  V30 12363 H 1135.22 3.71819 0.634845 0
M  V30 12364 H 1137.61 2.78588 0.97329 0
M  V30 12365 H 1137.69 2.44232 -0.760559 0
M  V30 12366 H 1137.33 4.92375 -1.24618 0
M  V30 12367 H 1137.26 5.2417 0.505334 0
M  V30 12368 H 1139.75 3.77878 -0.0411541 0
M  V30 12369 H 1140.07 7.6954 -0.70913 0
M  V30 12370 H 1138.41 6.92131 -0.630819 0
M  V30 12371 H 1141.6 4.67905 -0.135217 0
M  V30 12372 H 1141.77 6.46507 -0.439592 0
M  V30 12373 N 1135.18 -0.111886 1.57202 0
M  V30 12374 C 1136.43 -0.818411 1.85225 0
M  V30 12375 C 1136.76 -1.79542 0.747991 0
M  V30 12376 O 1136.01 -1.93965 -0.260013 0
M  V30 12377 C 1136.31 -1.59644 3.19763 0
M  V30 12378 C 1135.98 -0.76308 4.44396 0
M  V30 12379 C 1134.64 -0.53329 4.78236 0
M  V30 12380 C 1136.99 -0.18266 5.2088 0
M  V30 12381 C 1134.32 0.287056 5.85997 0
M  V30 12382 C 1136.67 0.624916 6.29506 0
M  V30 12383 C 1135.33 0.864955 6.61872 0
M  V30 12384 H 1134.6 -0.299478 0.677786 0
M  V30 12385 H 1137.25 -0.0805082 1.91331 0
M  V30 12386 H 1135.56 -2.40545 3.09266 0
M  V30 12387 H 1137.25 -2.1472 3.38669 0
M  V30 12388 H 1133.84 -0.952278 4.17887 0
M  V30 12389 H 1138.03 -0.34739 4.95083 0
M  V30 12390 H 1133.28 0.482179 6.09496 0
M  V30 12391 H 1137.46 1.08162 6.87949 0
M  V30 12392 H 1135.08 1.50244 7.45205 0
M  V30 12393 N 1136.66 -1.52894 -0.382264 0
M  V30 12394 C 1137.94 -1.58853 -1.14127 0
M  V30 12395 C 1138.32 -0.38582 -2.07544 0
M  V30 12396 O 1137.66 0.625323 -2.19777 0
M  V30 12397 C 1137.87 -2.93068 -1.89504 0
M  V30 12398 C 1139.22 -3.47048 -2.44629 0
M  V30 12399 O 1140.25 -2.94987 -1.99652 0
M  V30 12400 O 1139.1 -4.3802 -3.26804 0
M  V30 12401 H 1136.2 -0.640969 -0.522578 0
M  V30 12402 H 1138.74 -1.65231 -0.386873 0
M  V30 12403 H 1137.52 -3.72047 -1.2123 0
M  V30 12404 H 1137.14 -2.90106 -2.7189 0
M  V30 12405 N 1138.14 0.641106 -1.43971 0
M  V30 12406 C 1139.07 1.76645 -1.46046 0
M  V30 12407 C 1140.08 1.58881 -0.355049 0
M  V30 12408 O 1141.27 1.67379 -0.620207 0
M  V30 12409 C 1138.37 3.14237 -1.26918 0
M  V30 12410 C 1137.54 3.5855 -2.50521 0
M  V30 12411 C 1136.6 4.74986 -2.26438 0
M  V30 12412 O 1135.63 4.83807 -2.99866 0
M  V30 12413 N 1136.83 5.66016 -1.28866 0
M  V30 12414 H 1139.6 1.75339 -2.43056 0
M  V30 12415 H 1137.16 0.82535 -1.39282 0
M  V30 12416 H 1139.15 3.89837 -1.0867 0
M  V30 12417 H 1137.72 3.10244 -0.383082 0
M  V30 12418 H 1136.94 2.73265 -2.84112 0
M  V30 12419 H 1138.23 3.84906 -3.32754 0
M  V30 12420 H 1137.63 5.61574 -0.682018 0
M  V30 12421 H 1136.18 6.41286 -1.16599 0
M  V30 12422 N 1139.62 1.30703 0.880598 0
M  V30 12423 C 1140.84 1.22714 1.6658 0
M  V30 12424 C 1141.26 -0.209303 1.87636 0
M  V30 12425 O 1140.62 -1.13771 1.42697 0
M  V30 12426 C 1140.67 1.95659 3.03974 0
M  V30 12427 O 1140.39 3.33695 2.83865 0
M  V30 12428 C 1141.89 1.9438 3.98411 0
M  V30 12429 H 1139.11 0.424478 0.519673 0
M  V30 12430 H 1141.65 1.72402 1.0999 0
M  V30 12431 H 1139.81 1.49758 3.57283 0
M  V30 12432 H 1140.22 3.70697 3.71058 0
M  V30 12433 H 1141.7 2.4995 4.92168 0
M  V30 12434 H 1142.17 0.923767 4.29375 0
M  V30 12435 H 1142.78 2.40112 3.51036 0
M  V30 12436 N 1141.09 -1.09351 1.1349 0
M  V30 12437 C 1142.34 -1.81185 0.89535 0
M  V30 12438 C 1142.66 -1.86173 -0.580048 0
M  V30 12439 O 1141.93 -1.34784 -1.42162 0
M  V30 12440 H 1140.51 -0.671011 0.328257 0
M  V30 12441 H 1143.17 -1.32255 1.43159 0
M  V30 12442 H 1142.27 -2.84339 1.28676 0
M  V30 12443 N 1142.57 -0.928524 -1.27343 0
M  V30 12444 C 1143.5 -0.445627 -2.29208 0
M  V30 12445 C 1144.48 0.494508 -1.62753 0
M  V30 12446 O 1145.67 0.399082 -1.90055 0
M  V30 12447 C 1142.8 0.301684 -3.45987 0
M  V30 12448 C 1141.75 -0.550695 -4.24442 0
M  V30 12449 C 1141.08 0.325833 -5.33706 0
M  V30 12450 C 1142.38 -1.81559 -4.89728 0
M  V30 12451 H 1144.07 -1.29696 -2.69851 0
M  V30 12452 H 1141.62 -0.625085 -1.29725 0
M  V30 12453 H 1143.57 0.650455 -4.1635 0
M  V30 12454 H 1142.29 1.18705 -3.04264 0
M  V30 12455 H 1140.95 -0.882185 -3.55827 0
M  V30 12456 H 1140.6 1.21018 -4.88225 0
M  V30 12457 H 1140.3 -0.240994 -5.87106 0
M  V30 12458 H 1141.83 0.670156 -6.06911 0
M  V30 12459 H 1143.24 -1.53483 -5.52373 0
M  V30 12460 H 1141.64 -2.32598 -5.53189 0
M  V30 12461 H 1142.71 -2.53461 -4.13383 0
M  V30 12462 N 1144.05 1.41491 -0.694123 0
M  V30 12463 C 1144.98 2.28189 0.0226347 0
M  V30 12464 C 1145.96 1.42152 0.7894 0
M  V30 12465 O 1147.14 1.71581 0.780519 0
M  V30 12466 C 1144.27 3.22357 1.03942 0
M  V30 12467 C 1143.32 4.24927 0.365994 0
M  V30 12468 S 1144.15 5.28043 -0.890562 0
M  V30 12469 C 1145.31 6.25776 0.124665 0
M  V30 12470 H 1145.54 2.88631 -0.712698 0
M  V30 12471 H 1143.07 1.46607 -0.484344 0
M  V30 12472 H 1145.03 3.77143 1.62091 0
M  V30 12473 H 1143.69 2.61013 1.74732 0
M  V30 12474 H 1142.88 4.9108 1.13388 0
M  V30 12475 H 1142.49 3.73729 -0.142389 0
M  V30 12476 H 1144.78 6.70398 0.978393 0
M  V30 12477 H 1145.72 7.06312 -0.502901 0
M  V30 12478 H 1146.13 5.62466 0.478792 0
M  V30 12479 N 1145.53 0.438773 1.51369 0
M  V30 12480 C 1146.47 -0.37195 2.27783 0
M  V30 12481 C 1147.44 -1.01558 1.31435 0
M  V30 12482 O 1148.63 -1.03421 1.60339 0
M  V30 12483 C 1145.77 -1.46636 3.12397 0
M  V30 12484 C 1144.88 -0.840727 4.2374 0
M  V30 12485 C 1144.02 -1.91031 4.95662 0
M  V30 12486 C 1143.06 -1.26318 5.98924 0
M  V30 12487 N 1142.19 -2.27419 6.64248 0
M  V30 12488 H 1147.03 0.286048 2.96624 0
M  V30 12489 H 1144.57 0.152909 1.46303 0
M  V30 12490 H 1146.53 -2.11219 3.59781 0
M  V30 12491 H 1145.16 -2.09397 2.45668 0
M  V30 12492 H 1144.21 -0.0831588 3.80309 0
M  V30 12493 H 1145.52 -0.328285 4.97719 0
M  V30 12494 H 1144.68 -2.63272 5.46601 0
M  V30 12495 H 1143.42 -2.45649 4.21317 0
M  V30 12496 H 1142.42 -0.526246 5.47276 0
M  V30 12497 H 1143.65 -0.724324 6.75226 0
M  V30 12498 H 1141.59 -2.81114 5.92715 0
M  V30 12499 H 1141.51 -1.81071 7.33996 0
M  V30 12500 H 1142.78 -2.99139 7.19817 0
M  V30 12501 N 1147.01 -1.56678 0.170181 0
M  V30 12502 C 1147.94 -2.15083 -0.791961 0
M  V30 12503 C 1148.95 -1.10612 -1.19452 0
M  V30 12504 O 1150.14 -1.37803 -1.13457 0
M  V30 12505 C 1147.24 -2.67769 -2.07733 0
M  V30 12506 C 1146.41 -3.96885 -1.83851 0
M  V30 12507 C 1145.47 -4.34646 -2.96596 0
M  V30 12508 O 1144.5 -5.02543 -2.67281 0
M  V30 12509 N 1145.7 -3.96112 -4.24353 0
M  V30 12510 H 1148.46 -2.98268 -0.292658 0
M  V30 12511 H 1146.03 -1.61895 -0.0126383 0
M  V30 12512 H 1148.02 -2.90029 -2.8225 0
M  V30 12513 H 1146.59 -1.89179 -2.48858 0
M  V30 12514 H 1145.81 -3.83013 -0.932452 0
M  V30 12515 H 1147.1 -4.81213 -1.65261 0
M  V30 12516 H 1146.49 -3.41448 -4.51032 0
M  V30 12517 H 1145.05 -4.23375 -4.95577 0
M  V30 12518 N 1148.48 0.103547 -1.57259 0
M  V30 12519 C 1149.42 1.15707 -1.9669 0
M  V30 12520 C 1150.39 1.39292 -0.838837 0
M  V30 12521 O 1151.58 1.53192 -1.09839 0
M  V30 12522 C 1148.71 2.50793 -2.27642 0
M  V30 12523 C 1147.75 2.43541 -3.50129 0
M  V30 12524 S 1148.58 1.86009 -5.02156 0
M  V30 12525 C 1149.74 3.22737 -5.36276 0
M  V30 12526 H 1149.97 0.820891 -2.85742 0
M  V30 12527 H 1147.51 0.310906 -1.51237 0
M  V30 12528 H 1149.46 3.28512 -2.46151 0
M  V30 12529 H 1148.13 2.81583 -1.39176 0
M  V30 12530 H 1147.32 3.43085 -3.692 0
M  V30 12531 H 1146.92 1.73948 -3.31086 0
M  V30 12532 H 1149.21 4.1899 -5.32404 0
M  V30 12533 H 1150.16 3.08477 -6.37375 0
M  V30 12534 H 1150.56 3.21878 -4.6374 0
M  V30 12535 N 1149.96 1.53094 0.37415 0
M  V30 12536 C 1150.89 1.73697 1.48002 0
M  V30 12537 C 1151.87 0.585109 1.51708 0
M  V30 12538 O 1153.06 0.816688 1.6989 0
M  V30 12539 C 1150.18 1.80802 2.86406 0
M  V30 12540 C 1149.23 3.02696 3.00462 0
M  V30 12541 S 1150.06 4.62386 2.70109 0
M  V30 12542 C 1151.22 4.72328 4.10679 0
M  V30 12543 H 1151.45 2.67223 1.30303 0
M  V30 12544 H 1148.98 1.43574 0.567957 0
M  V30 12545 H 1150.94 1.85581 3.66155 0
M  V30 12546 H 1149.6 0.883425 3.01421 0
M  V30 12547 H 1148.8 3.04252 4.01804 0
M  V30 12548 H 1148.4 2.95985 2.28624 0
M  V30 12549 H 1150.69 4.51856 5.04809 0
M  V30 12550 H 1151.63 5.7437 4.14131 0
M  V30 12551 H 1152.04 4.01035 3.9728 0
M  V30 12552 N 1151.44 -0.633461 1.44309 0
M  V30 12553 C 1152.67 -1.42033 1.50447 0
M  V30 12554 C 1153.08 -1.88362 0.128585 0
M  V30 12555 O 1152.44 -1.60695 -0.865071 0
M  V30 12556 C 1152.49 -2.6422 2.46719 0
M  V30 12557 O 1152.21 -2.19823 3.78958 0
M  V30 12558 C 1153.71 -3.57372 2.62298 0
M  V30 12559 H 1150.93 -0.435667 0.510329 0
M  V30 12560 H 1153.48 -0.774907 1.8925 0
M  V30 12561 H 1151.63 -3.24859 2.11058 0
M  V30 12562 H 1152.05 -2.99022 4.30913 0
M  V30 12563 H 1153.52 -4.39719 3.33693 0
M  V30 12564 H 1154 -4.06026 1.67449 0
M  V30 12565 H 1154.6 -3.02603 2.9885 0
M  V30 12566 N 1152.92 -1.31168 -0.873655 0
M  V30 12567 C 1153.87 -1.18507 -1.98052 0
M  V30 12568 C 1154.84 -0.0717583 -1.65945 0
M  V30 12569 O 1156.02 -0.243965 -1.89234 0
M  V30 12570 C 1153.16 -0.894571 -3.33304 0
M  V30 12571 C 1152.27 -2.09086 -3.7803 0
M  V30 12572 C 1151.41 -1.73747 -5.01982 0
M  V30 12573 C 1150.45 -2.89805 -5.39147 0
M  V30 12574 N 1149.58 -2.54686 -6.54278 0
M  V30 12575 H 1154.42 -2.13193 -2.08213 0
M  V30 12576 H 1151.96 -1.06056 -1.01934 0
M  V30 12577 H 1153.92 -0.706714 -4.11171 0
M  V30 12578 H 1152.55 0.0154449 -3.22796 0
M  V30 12579 H 1151.6 -2.38961 -2.95976 0
M  V30 12580 H 1152.91 -2.95963 -4.01506 0
M  V30 12581 H 1152.07 -1.51402 -5.87505 0
M  V30 12582 H 1150.81 -0.840553 -4.80402 0
M  V30 12583 H 1149.81 -3.12803 -4.52144 0
M  V30 12584 H 1151.04 -3.802 -5.62694 0
M  V30 12585 H 1148.98 -1.67513 -6.34252 0
M  V30 12586 H 1148.9 -3.35093 -6.77679 0
M  V30 12587 H 1150.17 -2.35725 -7.43003 0
M  V30 12588 N 1154.4 1.08748 -1.14068 0
M  V30 12589 C 1155.31 2.19123 -0.837998 0
M  V30 12590 C 1156.32 1.73065 0.180164 0
M  V30 12591 O 1157.5 2.01398 0.00952285 0
M  V30 12592 C 1154.56 3.45257 -0.316 0
M  V30 12593 C 1153.62 4.05959 -1.39628 0
M  V30 12594 C 1152.86 5.26072 -0.899095 0
M  V30 12595 O 1153.08 5.69804 0.260744 0
M  V30 12596 O 1152.01 5.7808 -1.67652 0
M  V30 12597 H 1155.84 2.4748 -1.76033 0
M  V30 12598 H 1153.43 1.17816 -0.918675 0
M  V30 12599 H 1155.31 4.21389 -0.0306425 0
M  V30 12600 H 1153.98 3.18486 0.578654 0
M  V30 12601 H 1152.89 3.31432 -1.73505 0
M  V30 12602 H 1154.22 4.36971 -2.26533 0
M  V30 12603 N 1155.87 0.935264 1.26849 0
M  V30 12604 C 1157.15 0.497797 1.8916 0
M  V30 12605 C 1157.53 -1.02441 1.84578 0
M  V30 12606 O 1156.88 -1.88185 1.29609 0
M  V30 12607 C 1157.09 1.05244 3.32753 0
M  V30 12608 C 1158.44 1.11751 4.0963 0
M  V30 12609 O 1159.46 1.0026 3.41799 0
M  V30 12610 O 1158.32 1.29548 5.30923 0
M  V30 12611 H 1155.41 0.161322 0.811113 0
M  V30 12612 H 1157.96 1.02744 1.35062 0
M  V30 12613 H 1156.73 2.09617 3.30419 0
M  V30 12614 H 1156.36 0.504889 3.94381 0
M  V30 12615 N 1157.35 -1.41121 0.701616 0
M  V30 12616 C 1158.6 -2.00733 0.234682 0
M  V30 12617 C 1158.92 -1.55869 -1.17174 0
M  V30 12618 O 1158.19 -0.791965 -1.79178 0
M  V30 12619 H 1156.77 -0.742288 0.0837745 0
M  V30 12620 H 1159.43 -1.7266 0.904127 0
M  V30 12621 H 1158.53 -3.11041 0.256831 0
M  V30 12622 N 1158.83 -0.446794 -1.51134 0
M  V30 12623 C 1159.78 0.359865 -2.27977 0
M  V30 12624 C 1160.75 1.0086 -1.31972 0
M  V30 12625 O 1161.93 1.02569 -1.60886 0
M  V30 12626 C 1159.07 1.44978 -3.1317 0
M  V30 12627 C 1158.19 0.818243 -4.2418 0
M  V30 12628 C 1157.32 1.884 -4.96668 0
M  V30 12629 C 1156.36 1.2314 -5.99586 0
M  V30 12630 N 1155.5 2.23894 -6.65444 0
M  V30 12631 H 1160.34 -0.301775 -2.96468 0
M  V30 12632 H 1157.87 -0.160666 -1.4622 0
M  V30 12633 H 1159.83 2.09308 -3.60896 0
M  V30 12634 H 1158.46 2.08092 -2.46775 0
M  V30 12635 H 1157.51 0.0629889 -3.80348 0
M  V30 12636 H 1158.83 0.301885 -4.97886 0
M  V30 12637 H 1157.98 2.6037 -5.4799 0
M  V30 12638 H 1156.72 2.43411 -4.22614 0
M  V30 12639 H 1155.72 0.497215 -5.47547 0
M  V30 12640 H 1156.95 0.688505 -6.75601 0
M  V30 12641 H 1154.89 2.77967 -5.94197 0
M  V30 12642 H 1154.81 1.77176 -7.34945 0
M  V30 12643 H 1156.08 2.95318 -7.21393 0
M  V30 12644 N 1160.31 1.56586 -0.178487 0
M  V30 12645 C 1161.26 2.1491 0.761432 0
M  V30 12646 C 1162.24 1.08528 1.18788 0
M  V30 12647 O 1163.43 1.34633 1.14904 0
M  V30 12648 C 1160.56 2.79902 1.98771 0
M  V30 12649 C 1159.65 3.93452 1.58293 0
M  V30 12650 N 1160.04 4.97942 0.888124 0
M  V30 12651 C 1158.34 4.04745 1.87343 0
M  V30 12652 C 1159.04 5.7762 0.68772 0
M  V30 12653 N 1158.02 5.2947 1.23136 0
M  V30 12654 H 1161.82 2.93063 0.221693 0
M  V30 12655 H 1159.33 1.62385 0.0219283 0
M  V30 12656 H 1161.33 3.20067 2.67138 0
M  V30 12657 H 1159.99 2.03232 2.53233 0
M  V30 12658 H 1161 5.1502 0.545387 0
M  V30 12659 H 1157.68 3.39186 2.43432 0
M  V30 12660 H 1159.07 6.71759 0.13775 0
M  V30 12661 N 1161.79 -0.095206 1.57312 0
M  V30 12662 C 1162.74 -1.12188 1.98489 0
M  V30 12663 C 1163.72 -1.35778 0.863317 0
M  V30 12664 O 1164.91 -1.36471 1.12715 0
M  V30 12665 C 1162.04 -2.44214 2.41277 0
M  V30 12666 C 1161.13 -2.23998 3.60119 0
M  V30 12667 N 1161.52 -1.7365 4.75057 0
M  V30 12668 C 1159.82 -2.54565 3.66214 0
M  V30 12669 C 1160.52 -1.67702 5.57002 0
M  V30 12670 N 1159.49 -2.12912 5.00169 0
M  V30 12671 H 1163.3 -0.725545 2.84804 0
M  V30 12672 H 1160.81 -0.302634 1.59555 0
M  V30 12673 H 1162.81 -3.185 2.69004 0
M  V30 12674 H 1161.47 -2.84585 1.56339 0
M  V30 12675 H 1162.48 -1.42849 4.9781 0
M  V30 12676 H 1159.15 -2.98461 2.91937 0
M  V30 12677 H 1160.54 -1.29827 6.59238 0
M  V30 12678 N 1163.26 -1.53291 -0.366026 0
M  V30 12679 C 1164.17 -1.82656 -1.47221 0
M  V30 12680 C 1165.19 -0.71491 -1.58635 0
M  V30 12681 O 1166.37 -1.00492 -1.74538 0
M  V30 12682 C 1163.43 -2.00995 -2.82492 0
M  V30 12683 C 1162.49 -3.24895 -2.8061 0
M  V30 12684 C 1161.73 -3.4235 -4.09429 0
M  V30 12685 O 1161.95 -2.6411 -5.05571 0
M  V30 12686 O 1160.88 -4.35702 -4.15268 0
M  V30 12687 H 1164.71 -2.76634 -1.2533 0
M  V30 12688 H 1162.29 -1.38665 -0.556084 0
M  V30 12689 H 1164.18 -2.14632 -3.62645 0
M  V30 12690 H 1162.85 -1.10207 -3.04362 0
M  V30 12691 H 1161.76 -3.16682 -1.99157 0
M  V30 12692 H 1163.09 -4.15604 -2.63694 0
M  V30 12693 N 1164.74 0.6258 -1.44643 0
M  V30 12694 C 1165.99 1.3873 -1.47925 0
M  V30 12695 C 1166.32 1.93868 -0.113469 0
M  V30 12696 O 1165.6 1.73976 0.869639 0
M  V30 12697 C 1165.88 2.54867 -2.54391 0
M  V30 12698 C 1165.73 2.05044 -4.00346 0
M  V30 12699 C 1167.05 3.57043 -2.57309 0
M  V30 12700 H 1164.17 0.503087 -0.538584 0
M  V30 12701 H 1166.81 0.707102 -1.76352 0
M  V30 12702 H 1164.96 3.12894 -2.30281 0
M  V30 12703 H 1166.63 1.51807 -4.35606 0
M  V30 12704 H 1164.88 1.36185 -4.11869 0
M  V30 12705 H 1165.55 2.88681 -4.70497 0
M  V30 12706 H 1168.02 3.08826 -2.78865 0
M  V30 12707 H 1166.9 4.35818 -3.33698 0
M  V30 12708 H 1167.16 4.11464 -1.61708 0
M  V30 12709 N 1166.22 1.31629 0.866686 0
M  V30 12710 C 1167.17 1.19492 1.99561 0
M  V30 12711 C 1168.16 0.102456 1.6909 0
M  V30 12712 O 1169.37 0.264571 1.78045 0
M  V30 12713 H 1165.74 0.370071 0.654638 0
M  V30 12714 H 1167.71 2.14996 2.06928 0
M  V30 12715 C 1166.46 0.92246 3.3524 0
M  V30 12716 H 1165.79 1.75524 3.59209 0
M  V30 12717 H 1167.23 0.877726 4.14816 0
M  V30 12718 C 1165.69 -0.374803 3.34809 0
M  V30 12719 O 1166.22 -1.39055 3.76864 0
M  V30 12720 N 1164.42 -0.392506 2.87937 0
M  V30 12721 H 1163.97 0.434591 2.53908 0
M  V30 12722 H 1163.93 -1.26038 2.88031 0
M  V30 12723 N 1167.7 -1.08142 1.14644 0
M  V30 12724 C 1168.95 -1.80849 0.917685 0
M  V30 12725 C 1169.28 -1.86123 -0.554249 0
M  V30 12726 O 1168.55 -1.33907 -1.41065 0
M  V30 12727 C 1168.84 -3.26325 1.52264 0
M  V30 12728 C 1168.69 -3.29244 3.06461 0
M  V30 12729 C 1170.01 -4.23375 1.20175 0
M  V30 12730 H 1167.13 -0.656559 0.334812 0
M  V30 12731 H 1169.77 -1.26595 1.41682 0
M  V30 12732 H 1167.92 -3.72656 1.09817 0
M  V30 12733 H 1169.59 -2.91216 3.57758 0
M  V30 12734 H 1167.83 -2.68438 3.40769 0
M  V30 12735 H 1168.51 -4.31785 3.43897 0
M  V30 12736 H 1170.98 -3.85394 1.56877 0
M  V30 12737 H 1169.86 -5.23472 1.65132 0
M  V30 12738 H 1170.12 -4.41944 0.117474 0
M  V30 12739 N 1169.18 -0.941978 -1.26351 0
M  V30 12740 C 1170.11 -0.409504 -2.25512 0
M  V30 12741 C 1171.12 0.467665 -1.55938 0
M  V30 12742 O 1172.31 0.277982 -1.76322 0
M  V30 12743 C 1169.41 0.430487 -3.36155 0
M  V30 12744 C 1168.58 -0.430714 -4.35274 0
M  V30 12745 C 1167.64 0.348976 -5.25042 0
M  V30 12746 O 1166.67 -0.24827 -5.68658 0
M  V30 12747 N 1167.87 1.64531 -5.56695 0
M  V30 12748 H 1170.64 -1.26196 -2.71836 0
M  V30 12749 H 1168.2 -0.810947 -1.40126 0
M  V30 12750 H 1170.19 0.959501 -3.93161 0
M  V30 12751 H 1168.76 1.18375 -2.8932 0
M  V30 12752 H 1167.98 -1.14093 -3.77328 0
M  V30 12753 H 1169.27 -1.01896 -4.98492 0
M  V30 12754 H 1168.67 2.15266 -5.23142 0
M  V30 12755 H 1167.22 2.12055 -6.16341 0
M  V30 12756 N 1170.66 1.40747 -0.709091 0
M  V30 12757 C 1171.9 2.01003 -0.24581 0
M  V30 12758 C 1172.23 1.56203 1.15891 0
M  V30 12759 O 1171.49 0.770166 1.79908 0
M  V30 12760 C 1171.78 3.56404 -0.266685 0
M  V30 12761 C 1171.45 4.20762 -1.6208 0
M  V30 12762 C 1170.11 4.38056 -1.99148 0
M  V30 12763 C 1172.46 4.56723 -2.51105 0
M  V30 12764 C 1169.79 4.88591 -3.248 0
M  V30 12765 C 1172.14 5.08654 -3.76103 0
M  V30 12766 C 1170.81 5.24158 -4.13297 0
M  V30 12767 H 1170.08 0.73552 -0.0899481 0
M  V30 12768 H 1172.73 1.68451 -0.910844 0
M  V30 12769 H 1171.03 3.88825 0.481915 0
M  V30 12770 H 1172.73 4.0085 0.109509 0
M  V30 12771 H 1169.32 4.07685 -1.32252 0
M  V30 12772 H 1173.5 4.43004 -2.23744 0
M  V30 12773 H 1168.76 4.98779 -3.53595 0
M  V30 12774 H 1172.93 5.35457 -4.45262 0
M  V30 12775 H 1170.56 5.63079 -5.10731 0
M  V30 12776 N 1172.13 0.454803 1.50895 0
M  V30 12777 C 1173.36 -0.106259 2.07128 0
M  V30 12778 C 1173.78 -1.3418 1.31823 0
M  V30 12779 O 1173.14 -1.77667 0.361147 0
M  V30 12780 C 1173.19 -0.389609 3.58489 0
M  V30 12781 O 1172.29 -1.47305 3.85195 0
M  V30 12782 H 1171.63 0.00580588 0.663975 0
M  V30 12783 H 1174.16 0.641163 1.94294 0
M  V30 12784 H 1174.17 -0.634934 4.03029 0
M  V30 12785 H 1172.85 0.513338 4.1272 0
M  V30 12786 H 1171.43 -1.21631 3.52506 0
M  V30 12787 N 1173.61 -1.56489 0.186789 0
M  V30 12788 C 1174.86 -1.98399 -0.448244 0
M  V30 12789 C 1175.21 -1.07139 -1.59809 0
M  V30 12790 O 1174.51 -0.114119 -1.9126 0
M  V30 12791 C 1174.7 -3.44145 -0.964315 0
M  V30 12792 C 1174.53 -4.495 0.133992 0
M  V30 12793 C 1173.3 -5.01857 0.588851 0
M  V30 12794 C 1175.5 -5.05637 0.939971 0
M  V30 12795 N 1173.48 -5.90866 1.66585 0
M  V30 12796 C 1174.85 -5.91236 1.86655 0
M  V30 12797 C 1176.9 -4.88093 0.983319 0
M  V30 12798 C 1175.61 -6.61167 2.83286 0
M  V30 12799 C 1177.63 -5.58757 1.93764 0
M  V30 12800 C 1177 -6.44096 2.85167 0
M  V30 12801 H 1173.09 -0.770833 -0.131684 0
M  V30 12802 H 1175.68 -1.9252 0.290571 0
M  V30 12803 H 1173.85 -3.50541 -1.6726 0
M  V30 12804 H 1175.58 -3.73036 -1.56926 0
M  V30 12805 H 1172.34 -4.73244 0.183712 0
M  V30 12806 H 1172.76 -6.40075 2.2053 0
M  V30 12807 H 1177.4 -4.218 0.290658 0
M  V30 12808 H 1175.12 -7.26664 3.53532 0
M  V30 12809 H 1178.71 -5.47163 1.97748 0
M  V30 12810 H 1177.59 -6.97813 3.57808 0
M  V30 12811 N 1175.09 0.086862 -1.5736 0
M  V30 12812 C 1176.32 0.801004 -1.9044 0
M  V30 12813 C 1176.73 1.72396 -0.779513 0
M  V30 12814 O 1176.07 1.81894 0.256972 0
M  V30 12815 C 1176.13 1.66055 -3.18851 0
M  V30 12816 C 1175.8 0.908561 -4.47877 0
M  V30 12817 C 1176.79 0.234621 -5.1937 0
M  V30 12818 C 1174.48 0.8802 -4.94528 0
M  V30 12819 C 1176.47 -0.45762 -6.35755 0
M  V30 12820 C 1174.16 0.184179 -6.10822 0
M  V30 12821 C 1175.16 -0.483545 -6.81286 0
M  V30 12822 O 1174.85 -1.16839 -7.95364 0
M  V30 12823 H 1174.58 0.233794 -0.634284 0
M  V30 12824 H 1177.13 0.0660113 -2.05294 0
M  V30 12825 H 1175.36 2.43798 -3.00165 0
M  V30 12826 H 1177.05 2.252 -3.37698 0
M  V30 12827 H 1177.82 0.247938 -4.84366 0
M  V30 12828 H 1173.7 1.38938 -4.39565 0
M  V30 12829 H 1177.24 -0.979369 -6.90691 0
M  V30 12830 H 1173.14 0.168737 -6.45279 0
M  V30 12831 H 1173.9 -1.07612 -8.11395 0
M  V30 12832 N 1176.57 1.53483 0.357892 0
M  V30 12833 C 1177.82 1.69701 1.09754 0
M  V30 12834 C 1178.14 0.455389 1.89608 0
M  V30 12835 O 1177.41 -0.530623 1.88577 0
M  V30 12836 H 1175.99 0.62562 0.408178 0
M  V30 12837 H 1178.65 1.90696 0.402641 0
M  V30 12838 H 1177.74 2.56154 1.78302 0
M  V30 12839 N 1178.05 -0.61812 1.44973 0
M  V30 12840 C 1179.27 -1.40429 1.51945 0
M  V30 12841 C 1179.69 -1.88215 0.148556 0
M  V30 12842 O 1179.05 -1.61603 -0.847978 0
M  V30 12843 C 1179.1 -2.61588 2.49507 0
M  V30 12844 O 1178.82 -2.15791 3.81269 0
M  V30 12845 C 1180.32 -3.5457 2.66074 0
M  V30 12846 H 1177.54 -0.43023 0.514921 0
M  V30 12847 H 1180.08 -0.754791 1.90061 0
M  V30 12848 H 1178.24 -3.22602 2.14492 0
M  V30 12849 H 1178.65 -2.94434 4.34061 0
M  V30 12850 H 1180.13 -4.36155 3.38338 0
M  V30 12851 H 1180.6 -4.04227 1.71746 0
M  V30 12852 H 1181.21 -2.99416 3.02043 0
M  V30 12853 N 1179.52 -1.32087 -0.859693 0
M  V30 12854 C 1180.75 -1.25348 -1.64607 0
M  V30 12855 C 1181.17 0.179425 -1.87945 0
M  V30 12856 O 1180.52 1.11487 -1.44489 0
M  V30 12857 C 1180.57 -2.0047 -3.00822 0
M  V30 12858 O 1180.3 -3.38169 -2.7852 0
M  V30 12859 C 1181.8 -2.00694 -3.95268 0
M  V30 12860 H 1179.02 -0.432692 -0.512854 0
M  V30 12861 H 1181.56 -1.7413 -1.07234 0
M  V30 12862 H 1179.72 -1.55423 -3.54855 0
M  V30 12863 H 1180.13 -3.76553 -3.65113 0
M  V30 12864 H 1181.6 -2.57748 -4.88129 0
M  V30 12865 H 1182.08 -0.99196 -4.27851 0
M  V30 12866 H 1182.69 -2.45666 -3.47172 0
M  V30 12867 N 1181 1.07532 -1.15215 0
M  V30 12868 C 1182.25 1.79474 -0.920439 0
M  V30 12869 C 1182.56 1.87593 0.553926 0
M  V30 12870 O 1183.77 2.56037 0.903169 0
M  V30 12871 C 1182.23 3.22509 -1.59738 0
M  V30 12872 C 1181.83 3.22596 -3.10863 0
M  V30 12873 C 1183.58 3.99072 -1.44714 0
M  V30 12874 C 1181.48 4.60273 -3.71352 0
M  V30 12875 H 1180.41 0.672625 -0.340722 0
M  V30 12876 H 1183.07 1.2071 -1.38208 0
M  V30 12877 H 1181.45 3.81454 -1.06342 0
M  V30 12878 H 1182.62 2.73306 -3.70999 0
M  V30 12879 H 1180.94 2.5953 -3.25627 0
M  V30 12880 H 1183.53 5.00823 -1.87299 0
M  V30 12881 H 1183.88 4.14428 -0.394386 0
M  V30 12882 H 1184.41 3.46617 -1.95195 0
M  V30 12883 H 1181.15 4.50122 -4.76519 0
M  V30 12884 H 1180.67 5.09809 -3.15998 0
M  V30 12885 H 1182.35 5.29243 -3.7217 0
M  V30 12886 N 1182.48 0.948665 1.2585 0
M  V30 12887 C 1183.43 0.462904 2.2611 0
M  V30 12888 C 1184.4 -0.481433 1.5897 0
M  V30 12889 O 1185.58 -0.395997 1.86645 0
M  V30 12890 C 1182.72 -0.258808 3.44128 0
M  V30 12891 C 1181.84 0.722072 4.25923 0
M  V30 12892 C 1180.97 -0.0215958 5.31196 0
M  V30 12893 C 1180.01 0.950612 6.04673 0
M  V30 12894 N 1179.15 0.238209 7.01696 0
M  V30 12895 H 1183.99 1.32279 2.67032 0
M  V30 12896 H 1181.52 0.663485 1.31287 0
M  V30 12897 H 1183.48 -0.693759 4.11391 0
M  V30 12898 H 1182.11 -1.08278 3.04098 0
M  V30 12899 H 1181.16 1.27552 3.58378 0
M  V30 12900 H 1182.48 1.46421 4.76825 0
M  V30 12901 H 1181.63 -0.51547 6.04506 0
M  V30 12902 H 1180.37 -0.796563 4.81151 0
M  V30 12903 H 1179.37 1.45554 5.30183 0
M  V30 12904 H 1180.6 1.72571 6.56808 0
M  V30 12905 H 1178.54 -0.518129 6.53951 0
M  V30 12906 H 1178.46 0.919542 7.50387 0
M  V30 12907 H 1179.73 -0.234325 7.79148 0
M  V30 12908 N 1183.96 -1.40369 0.716545 0
M  V30 12909 C 1185.37 -1.54757 0.390202 0
M  V30 12910 C 1185.57 -1.68767 -1.10091 0
M  V30 12911 O 1184.63 -1.67779 -1.88697 0
M  V30 12912 C 1185.94 -2.77546 1.15709 0
M  V30 12913 C 1187.49 -2.91364 1.14349 0
M  V30 12914 C 1187.97 -4.17068 1.89256 0
M  V30 12915 N 1189.46 -4.2407 1.8633 0
M  V30 12916 C 1190.19 -5.20243 2.41112 0
M  V30 12917 N 1189.69 -6.22318 3.04454 0
M  V30 12918 N 1191.48 -5.12328 2.31249 0
M  V30 12919 H 1183.63 -1.29521 1.68339 0
M  V30 12920 H 1185.9 -0.626382 0.711582 0
M  V30 12921 H 1185.6 -2.73474 2.21144 0
M  V30 12922 H 1185.48 -3.69682 0.749347 0
M  V30 12923 H 1187.86 -2.94939 0.0973383 0
M  V30 12924 H 1187.94 -2.00344 1.59047 0
M  V30 12925 H 1187.59 -4.14255 2.93863 0
M  V30 12926 H 1187.52 -5.07099 1.41978 0
M  V30 12927 H 1190.01 -3.50944 1.40168 0
M  V30 12928 H 1190.32 -6.92129 3.43769 0
M  V30 12929 H 1188.67 -6.22759 3.08538 0
M  V30 12930 H 1191.86 -4.31514 1.8142 0
M  V30 12931 H 1192.03 -5.87107 2.74243 0
M  V30 12932 N 1185.44 -0.462799 -1.50652 0
M  V30 12933 C 1186.71 0.156221 -1.94975 0
M  V30 12934 C 1187.09 1.5775 -1.40279 0
M  V30 12935 O 1186.44 2.20473 -0.600323 0
M  V30 12936 C 1186.65 0.108008 -3.48833 0
M  V30 12937 C 1188 0.301013 -4.23532 0
M  V30 12938 O 1189.02 0.184973 -3.55719 0
M  V30 12939 O 1187.88 0.534457 -5.4388 0
M  V30 12940 H 1184.98 0.116182 -0.818798 0
M  V30 12941 H 1187.52 -0.522607 -1.61453 0
M  V30 12942 H 1186.29 -0.884634 -3.81169 0
M  V30 12943 H 1185.92 0.828653 -3.88869 0
M  V30 12944 N 1186.91 1.56388 -0.195085 0
M  V30 12945 C 1187.86 2.19091 0.725793 0
M  V30 12946 C 1188.83 1.13814 1.20977 0
M  V30 12947 O 1190.02 1.42065 1.27366 0
M  V30 12948 C 1187.16 2.85427 1.93973 0
M  V30 12949 C 1186.27 4.05229 1.49712 0
M  V30 12950 C 1185.4 4.59421 2.66656 0
M  V30 12951 C 1184.44 5.71581 2.19001 0
M  V30 12952 N 1183.58 6.2018 3.29123 0
M  V30 12953 H 1188.42 2.97429 0.184334 0
M  V30 12954 H 1185.96 1.46886 0.0792434 0
M  V30 12955 H 1187.92 3.22057 2.65208 0
M  V30 12956 H 1186.55 2.09652 2.4545 0
M  V30 12957 H 1185.6 3.74261 0.680641 0
M  V30 12958 H 1186.91 4.8635 1.10749 0
M  V30 12959 H 1186.06 4.98357 3.46014 0
M  V30 12960 H 1184.8 3.77407 3.08893 0
M  V30 12961 H 1183.81 5.32174 1.38097 0
M  V30 12962 H 1185.03 6.55413 1.77795 0
M  V30 12963 H 1182.98 5.41088 3.70891 0
M  V30 12964 H 1182.9 6.96353 2.94328 0
M  V30 12965 H 1184.16 6.63769 4.08694 0
M  V30 12966 N 1188.39 -0.0785156 1.57404 0
M  V30 12967 C 1189.62 -0.795871 1.91522 0
M  V30 12968 C 1190.04 -1.70665 0.790892 0
M  V30 12969 O 1189.4 -1.79474 -0.25666 0
M  V30 12970 C 1189.45 -1.57121 3.24569 0
M  V30 12971 O 1188.55 -2.6814 3.13328 0
M  V30 12972 H 1187.89 -0.217575 0.627341 0
M  V30 12973 H 1190.42 -0.0487724 2.04542 0
M  V30 12974 H 1190.43 -1.9519 3.5828 0
M  V30 12975 H 1189.11 -0.902909 4.05981 0
M  V30 12976 H 1187.69 -2.32978 2.91163 0
M  V30 12977 N 1189.87 -1.5367 -0.349747 0
M  V30 12978 C 1191.12 -1.70281 -1.08853 0
M  V30 12979 C 1191.44 -0.465438 -1.89364 0
M  V30 12980 O 1190.71 0.520615 -1.88856 0
M  V30 12981 H 1189.29 -0.627775 -0.404854 0
M  V30 12982 H 1191.95 -1.90906 -0.392523 0
M  V30 12983 H 1191.05 -2.57096 -1.76941 0
M  V30 12984 N 1191.35 0.610423 -1.45298 0
M  V30 12985 C 1192.31 1.70324 -1.5337 0
M  V30 12986 C 1193.31 1.55393 -0.413492 0
M  V30 12987 O 1194.5 1.60512 -0.676872 0
M  V30 12988 C 1191.63 3.09572 -1.42752 0
M  V30 12989 H 1192.83 1.64535 -2.50736 0
M  V30 12990 H 1190.38 0.825906 -1.32697 0
M  V30 12991 H 1191.11 3.2094 -0.465601 0
M  V30 12992 H 1190.9 3.21817 -2.24 0
M  V30 12993 H 1192.39 3.89178 -1.51427 0
M  V30 12994 N 1192.83 1.32541 0.852676 0
M  V30 12995 C 1194.06 1.26037 1.63702 0
M  V30 12996 C 1194.46 -0.173583 1.88402 0
M  V30 12997 O 1193.81 -1.12175 1.45473 0
M  V30 12998 C 1193.87 1.95245 3.01861 0
M  V30 12999 C 1193.53 3.44576 3.00193 0
M  V30 13000 C 1194.53 4.40026 2.76899 0
M  V30 13001 C 1192.22 3.86541 3.20766 0
M  V30 13002 C 1194.21 5.75414 2.74185 0
M  V30 13003 C 1191.9 5.22038 3.17678 0
M  V30 13004 C 1192.89 6.16286 2.94416 0
M  V30 13005 O 1192.58 7.49303 2.91206 0
M  V30 13006 H 1192.31 0.436073 0.516543 0
M  V30 13007 H 1194.87 1.75251 1.07127 0
M  V30 13008 H 1193.1 1.40603 3.60233 0
M  V30 13009 H 1194.79 1.82423 3.62597 0
M  V30 13010 H 1195.55 4.0893 2.6077 0
M  V30 13011 H 1191.43 3.13603 3.37897 0
M  V30 13012 H 1194.98 6.4895 2.55947 0
M  V30 13013 H 1190.87 5.52762 3.33353 0
M  V30 13014 H 1191.64 7.58686 3.07146 0
M  V30 13015 N 1194.3 -1.0692 1.15784 0
M  V30 13016 C 1195.23 -2.16216 0.881649 0
M  V30 13017 C 1196.22 -1.69253 -0.16951 0
M  V30 13018 O 1197.4 -1.94186 -0.0229511 0
M  V30 13019 C 1194.53 -3.4527 0.374982 0
M  V30 13020 C 1193.48 -4.05706 1.36332 0
M  V30 13021 C 1192.81 -5.29894 0.715317 0
M  V30 13022 C 1194.11 -4.45224 2.7308 0
M  V30 13023 H 1195.8 -2.39577 1.79563 0
M  V30 13024 H 1193.35 -1.15141 0.864784 0
M  V30 13025 H 1195.3 -4.2106 0.169279 0
M  V30 13026 H 1194.03 -3.21508 -0.574485 0
M  V30 13027 H 1192.69 -3.31965 1.55546 0
M  V30 13028 H 1192.33 -5.02425 -0.240436 0
M  V30 13029 H 1192.03 -5.71287 1.37494 0
M  V30 13030 H 1193.56 -6.08386 0.519489 0
M  V30 13031 H 1194.97 -5.12124 2.57686 0
M  V30 13032 H 1193.37 -4.97583 3.35457 0
M  V30 13033 H 1194.44 -3.56384 3.28813 0
M  V30 13034 N 1195.78 -0.955326 -1.25345 0
M  V30 13035 C 1197.03 -0.610484 -1.93079 0
M  V30 13036 C 1197.36 0.852591 -1.74817 0
M  V30 13037 O 1196.61 1.6272 -1.08723 0
M  V30 13038 C 1196.91 -0.916173 -3.45458 0
M  V30 13039 C 1196.58 -2.36539 -3.83875 0
M  V30 13040 C 1195.24 -2.76152 -3.94073 0
M  V30 13041 C 1197.59 -3.30652 -4.02888 0
M  V30 13042 C 1194.92 -4.08944 -4.20692 0
M  V30 13043 C 1197.27 -4.63057 -4.31 0
M  V30 13044 C 1195.94 -5.02464 -4.39415 0
M  V30 13045 H 1195.21 -0.223392 -0.706525 0
M  V30 13046 H 1197.85 -1.20449 -1.48877 0
M  V30 13047 H 1196.16 -0.23978 -3.91066 0
M  V30 13048 H 1197.85 -0.627929 -3.96053 0
M  V30 13049 H 1194.44 -2.04819 -3.76493 0
M  V30 13050 H 1198.63 -3.01237 -3.94423 0
M  V30 13051 H 1193.88 -4.39118 -4.25423 0
M  V30 13052 H 1198.06 -5.3596 -4.44657 0
M  V30 13053 H 1195.69 -6.05386 -4.59795 0
M  V30 13054 N 1197.26 1.39987 -0.723979 0
M  V30 13055 C 1198.19 2.3332 -0.0917282 0
M  V30 13056 C 1199.17 1.53335 0.736361 0
M  V30 13057 O 1200.36 1.81771 0.683582 0
M  V30 13058 C 1197.49 3.3737 0.824549 0
M  V30 13059 C 1196.44 4.2788 0.101452 0
M  V30 13060 C 1195.77 5.22536 1.13401 0
M  V30 13061 C 1197.07 5.11649 -1.04939 0
M  V30 13062 H 1198.76 2.86441 -0.871318 0
M  V30 13063 H 1196.31 1.37725 -0.420448 0
M  V30 13064 H 1198.26 4.01607 1.27631 0
M  V30 13065 H 1196.98 2.82663 1.63613 0
M  V30 13066 H 1195.64 3.65107 -0.330569 0
M  V30 13067 H 1195.29 4.64131 1.93886 0
M  V30 13068 H 1194.99 5.83938 0.65502 0
M  V30 13069 H 1196.52 5.89651 1.58569 0
M  V30 13070 H 1197.93 5.69293 -0.6766 0
M  V30 13071 H 1196.33 5.82137 -1.45729 0
M  V30 13072 H 1197.4 4.47132 -1.8762 0
M  V30 13073 N 1198.74 0.470782 1.50404 0
M  V30 13074 C 1200.15 0.0155901 1.86693 0
M  V30 13075 C 1200.5 -1.38908 1.38561 0
M  V30 13076 O 1199.63 -2.02971 0.750454 0
M  V30 13077 C 1200.22 0.0215152 3.38793 0
M  V30 13078 C 1198.78 -0.378206 3.74495 0
M  V30 13079 C 1197.93 0.407126 2.74295 0
M  V30 13080 H 1200.88 0.68507 1.43152 0
M  V30 13081 H 1200.9 -0.780717 3.72404 0
M  V30 13082 H 1200.41 1.04397 3.73795 0
M  V30 13083 H 1198.51 -1.40503 3.45094 0
M  V30 13084 H 1198.63 -0.0797643 4.79034 0
M  V30 13085 H 1196.99 -0.139123 2.5432 0
M  V30 13086 H 1197.77 1.42909 3.12141 0
M  V30 13087 N 1200.22 -1.56282 0.203376 0
M  V30 13088 C 1201.49 -1.89587 -0.481256 0
M  V30 13089 C 1201.87 -1.11812 -1.79057 0
M  V30 13090 O 1201.22 -0.221759 -2.27421 0
M  V30 13091 C 1201.43 -3.42071 -0.691965 0
M  V30 13092 C 1202.78 -4.12471 -1.00761 0
M  V30 13093 O 1203.8 -3.47568 -0.779396 0
M  V30 13094 O 1202.66 -5.27194 -1.43974 0
M  V30 13095 H 1199.76 -0.787682 -0.251963 0
M  V30 13096 H 1202.3 -1.67934 0.244207 0
M  V30 13097 H 1201.08 -3.9061 0.232322 0
M  V30 13098 H 1200.7 -3.69444 -1.46958 0
M  V30 13099 N 1201.7 0.070167 -1.57444 0
M  V30 13100 C 1202.94 0.767495 -1.8696 0
M  V30 13101 C 1203.26 1.78032 -0.795595 0
M  V30 13102 O 1202.53 1.95112 0.175566 0
M  V30 13103 H 1201.11 0.286443 -0.689898 0
M  V30 13104 H 1203.78 0.0458692 -1.94846 0
M  V30 13105 H 1202.87 1.28269 -2.84523 0
M  V30 13106 N 1203.17 1.53854 0.341593 0
M  V30 13107 C 1204.12 1.8268 1.43982 0
M  V30 13108 C 1205.12 0.697415 1.54378 0
M  V30 13109 O 1206.32 0.880785 1.56978 0
M  V30 13110 H 1202.7 0.578788 0.480113 0
M  V30 13111 H 1204.67 2.74556 1.16884 0
M  V30 13112 C 1203.42 2.05496 2.80476 0
M  V30 13113 H 1202.74 2.91852 2.73244 0
M  V30 13114 H 1204.18 2.2963 3.56435 0
M  V30 13115 C 1202.64 0.841061 3.26233 0
M  V30 13116 O 1203.17 0.0414376 4.01679 0
M  V30 13117 N 1201.37 0.657736 2.83059 0
M  V30 13118 H 1200.92 1.30962 2.21826 0
M  V30 13119 H 1200.88 -0.153003 3.14027 0
M  V30 13120 N 1204.65 -0.602709 1.4562 0
M  V30 13121 C 1205.61 -1.69508 1.54271 0
M  V30 13122 C 1206.61 -1.55171 0.421727 0
M  V30 13123 O 1207.8 -1.60151 0.685375 0
M  V30 13124 C 1204.94 -3.0881 1.44392 0
M  V30 13125 H 1206.13 -1.63203 2.51605 0
M  V30 13126 H 1203.68 -0.818857 1.33133 0
M  V30 13127 H 1204.42 -3.20689 0.482614 0
M  V30 13128 H 1204.2 -3.20625 2.25704 0
M  V30 13129 H 1205.69 -3.8837 1.53488 0
M  V30 13130 N 1206.13 -1.32992 -0.845635 0
M  V30 13131 C 1207.08 -1.22682 -1.95494 0
M  V30 13132 C 1208.05 -0.106942 -1.65755 0
M  V30 13133 O 1209.23 -0.28405 -1.88674 0
M  V30 13134 C 1206.37 -0.965068 -3.31331 0
M  V30 13135 C 1205.48 -2.17058 -3.7351 0
M  V30 13136 C 1204.62 -1.84355 -4.98183 0
M  V30 13137 C 1203.66 -3.01176 -5.32878 0
M  V30 13138 N 1202.8 -2.68506 -6.48729 0
M  V30 13139 H 1207.64 -2.17562 -2.03644 0
M  V30 13140 H 1205.17 -1.08194 -0.996613 0
M  V30 13141 H 1207.13 -0.793771 -4.09579 0
M  V30 13142 H 1205.76 -0.0530285 -3.22756 0
M  V30 13143 H 1204.81 -2.45185 -2.90841 0
M  V30 13144 H 1206.12 -3.04413 -3.95138 0
M  V30 13145 H 1205.28 -1.6383 -5.84162 0
M  V30 13146 H 1204.02 -0.942264 -4.78511 0
M  V30 13147 H 1203.02 -3.22323 -4.45408 0
M  V30 13148 H 1204.25 -3.9205 -5.54503 0
M  V30 13149 H 1202.19 -1.80929 -6.30556 0
M  V30 13150 H 1202.11 -3.49392 -6.70419 0
M  V30 13151 H 1203.38 -2.51432 -7.37836 0
M  V30 13152 N 1207.61 1.06304 -1.1635 0
M  V30 13153 C 1209.02 1.60566 -0.952652 0
M  V30 13154 C 1209.37 1.8963 0.503473 0
M  V30 13155 O 1208.49 1.66964 1.37666 0
M  V30 13156 C 1209.09 2.9172 -1.72292 0
M  V30 13157 C 1207.65 3.42684 -1.55707 0
M  V30 13158 C 1206.8 2.16579 -1.73172 0
M  V30 13159 H 1209.75 0.892563 -1.31221 0
M  V30 13160 H 1209.77 3.61126 -1.19868 0
M  V30 13161 H 1209.28 2.70535 -2.78267 0
M  V30 13162 H 1207.38 3.68929 -0.521726 0
M  V30 13163 H 1207.49 4.18018 -2.34088 0
M  V30 13164 H 1205.86 2.26795 -1.15914 0
M  V30 13165 H 1206.64 1.97877 -2.80535 0
M  V30 13166 N 1209.09 0.96196 1.24836 0
M  V30 13167 C 1210.32 0.637214 1.96528 0
M  V30 13168 C 1210.72 -0.79638 1.71623 0
M  V30 13169 O 1210.07 -1.54524 0.993372 0
M  V30 13170 C 1210.13 0.824972 3.49906 0
M  V30 13171 C 1209.79 2.23711 3.985 0
M  V30 13172 C 1210.79 3.21439 4.08623 0
M  V30 13173 C 1208.47 2.56327 4.31974 0
M  V30 13174 C 1210.47 4.49872 4.51546 0
M  V30 13175 C 1208.16 3.84987 4.74582 0
M  V30 13176 C 1209.15 4.81572 4.84332 0
M  V30 13177 O 1208.84 6.07938 5.25991 0
M  V30 13178 H 1208.57 0.237214 0.633013 0
M  V30 13179 H 1211.13 1.29081 1.59773 0
M  V30 13180 H 1209.36 0.114219 3.86531 0
M  V30 13181 H 1211.05 0.500179 4.02806 0
M  V30 13182 H 1211.81 2.97569 3.82985 0
M  V30 13183 H 1207.69 1.81872 4.23608 0
M  V30 13184 H 1211.24 5.25261 4.59071 0
M  V30 13185 H 1207.13 4.08661 4.99666 0
M  V30 13186 H 1207.9 6.11421 5.44157 0
M  V30 13187 N 1210.56 -1.39601 0.731392 0
M  V30 13188 C 1211.81 -2.00883 0.278168 0
M  V30 13189 C 1212.14 -1.57897 -1.13059 0
M  V30 13190 O 1211.42 -0.806203 -1.77005 0
M  V30 13191 C 1211.7 -3.58132 0.375969 0
M  V30 13192 C 1211.55 -4.11147 1.82423 0
M  V30 13193 C 1212.87 -4.39425 -0.243702 0
M  V30 13194 H 1209.99 -0.729831 0.102549 0
M  V30 13195 H 1212.63 -1.65859 0.926869 0
M  V30 13196 H 1210.78 -3.881 -0.176329 0
M  V30 13197 H 1212.46 -3.91914 2.43313 0
M  V30 13198 H 1210.7 -3.64842 2.34675 0
M  V30 13199 H 1211.37 -5.20291 1.84396 0
M  V30 13200 H 1213.85 -4.1548 0.227067 0
M  V30 13201 H 1212.72 -5.48709 -0.144907 0
M  V30 13202 H 1212.98 -4.21642 -1.32929 0
M  V30 13203 N 1212.04 -0.478751 -1.50152 0
M  V30 13204 C 1213.27 0.0709455 -2.06478 0
M  V30 13205 C 1213.68 1.33376 -1.34192 0
M  V30 13206 O 1213.02 1.79133 -0.40707 0
M  V30 13207 C 1213.09 0.417322 -3.5707 0
M  V30 13208 C 1212.75 -0.744563 -4.50894 0
M  V30 13209 C 1213.75 -1.62879 -4.93727 0
M  V30 13210 C 1211.43 -0.937062 -4.93482 0
M  V30 13211 C 1213.43 -2.68985 -5.77863 0
M  V30 13212 C 1211.11 -2.00134 -5.77399 0
M  V30 13213 C 1212.11 -2.87609 -6.19492 0
M  V30 13214 O 1211.8 -3.92203 -7.01735 0
M  V30 13215 H 1211.53 -0.00720177 -0.675962 0
M  V30 13216 H 1214.08 -0.668797 -1.94207 0
M  V30 13217 H 1212.31 1.21036 -3.6727 0
M  V30 13218 H 1214 0.903002 -3.95728 0
M  V30 13219 H 1214.77 -1.49179 -4.61488 0
M  V30 13220 H 1210.65 -0.265636 -4.60234 0
M  V30 13221 H 1214.19 -3.37293 -6.10639 0
M  V30 13222 H 1210.09 -2.13837 -6.09052 0
M  V30 13223 H 1210.86 -3.89284 -7.2 0
M  V30 13224 N 1213.52 1.56172 -0.211661 0
M  V30 13225 C 1214.75 2.02428 0.427843 0
M  V30 13226 C 1215.16 1.09162 1.54043 0
M  V30 13227 O 1214.52 0.0994249 1.82229 0
M  V30 13228 C 1214.57 3.48279 0.968728 0
M  V30 13229 O 1214.29 4.37987 -0.0994841 0
M  V30 13230 C 1215.79 4.10132 1.68246 0
M  V30 13231 H 1213.01 0.662611 0.10577 0
M  V30 13232 H 1215.56 2.01897 -0.32522 0
M  V30 13233 H 1213.71 3.49456 1.6721 0
M  V30 13234 H 1214.13 5.23609 0.305558 0
M  V30 13235 H 1215.6 5.13985 2.01304 0
M  V30 13236 H 1216.08 3.54552 2.5921 0
M  V30 13237 H 1216.68 4.12775 1.02453 0
M  V30 13238 N 1215 -0.0618163 1.57479 0
M  V30 13239 C 1216.23 -0.771724 1.91969 0
M  V30 13240 C 1216.64 -1.7061 0.808549 0
M  V30 13241 O 1216 -1.812 -0.217455 0
M  V30 13242 C 1216.05 -1.55687 3.26257 0
M  V30 13243 O 1215.77 -0.660032 4.331 0
M  V30 13244 C 1217.27 -2.36688 3.74825 0
M  V30 13245 H 1214.49 -0.21885 0.634307 0
M  V30 13246 H 1217.04 -0.0291068 2.04479 0
M  V30 13247 H 1215.19 -2.25167 3.15244 0
M  V30 13248 H 1215.6 -1.20715 5.1042 0
M  V30 13249 H 1217.08 -2.8722 4.7139 0
M  V30 13250 H 1217.56 -3.1666 3.0434 0
M  V30 13251 H 1218.16 -1.72346 3.88815 0
M  V30 13252 N 1216.48 -1.54033 -0.333429 0
M  V30 13253 C 1217.89 -1.63107 -0.908455 0
M  V30 13254 C 1218.24 -0.518823 -1.89216 0
M  V30 13255 O 1217.36 0.34985 -2.13553 0
M  V30 13256 C 1217.96 -2.95657 -1.65447 0
M  V30 13257 C 1216.52 -3.0696 -2.17836 0
M  V30 13258 C 1215.66 -2.58617 -1.00063 0
M  V30 13259 H 1218.62 -1.58309 -0.11128 0
M  V30 13260 H 1218.64 -2.85263 -2.51804 0
M  V30 13261 H 1218.15 -3.76588 -0.938263 0
M  V30 13262 H 1216.25 -2.30683 -2.92602 0
M  V30 13263 H 1216.36 -4.12599 -2.43513 0
M  V30 13264 H 1214.73 -2.1427 -1.37697 0
M  V30 13265 H 1215.51 -3.41996 -0.298901 0
M  V30 13266 N 1217.95 0.594978 -1.45938 0
M  V30 13267 C 1219.37 1.17703 -1.44924 0
M  V30 13268 C 1219.72 1.9534 -0.183522 0
M  V30 13269 O 1218.84 2.04276 0.714163 0
M  V30 13270 C 1219.44 2.14119 -2.62561 0
M  V30 13271 C 1218 2.67674 -2.64627 0
M  V30 13272 C 1217.14 1.43312 -2.37397 0
M  V30 13273 H 1220.09 0.383583 -1.53995 0
M  V30 13274 H 1220.11 2.97374 -2.3738 0
M  V30 13275 H 1219.63 1.57586 -3.54667 0
M  V30 13276 H 1217.73 3.28111 -1.76562 0
M  V30 13277 H 1217.84 3.11246 -3.64229 0
M  V30 13278 H 1216.2 1.72702 -1.87206 0
M  V30 13279 H 1216.99 0.886276 -3.31663 0
M  V30 13280 N 1219.43 1.33438 0.838571 0
M  V30 13281 C 1220.68 1.24912 1.59384 0
M  V30 13282 C 1221.01 -0.185017 1.93618 0
M  V30 13283 O 1220.26 -1.14229 1.58904 0
M  V30 13284 C 1220.56 2.07002 2.9135 0
M  V30 13285 C 1220.23 3.5619 2.76477 0
M  V30 13286 C 1218.89 3.96862 2.72129 0
M  V30 13287 C 1221.24 4.5099 2.61261 0
M  V30 13288 C 1218.57 5.30551 2.50464 0
M  V30 13289 C 1220.92 5.84841 2.4113 0
M  V30 13290 C 1219.59 6.24696 2.35183 0
M  V30 13291 H 1218.86 0.457084 0.583228 0
M  V30 13292 H 1221.5 1.65027 0.971506 0
M  V30 13293 H 1219.81 1.59665 3.57791 0
M  V30 13294 H 1221.5 1.97762 3.48843 0
M  V30 13295 H 1218.09 3.23896 2.80695 0
M  V30 13296 H 1222.28 4.20476 2.63655 0
M  V30 13297 H 1217.53 5.60468 2.44307 0
M  V30 13298 H 1221.71 6.57901 2.2834 0
M  V30 13299 H 1219.34 7.28225 2.18156 0
M  V30 13300 N 1220.91 -1.05686 1.16912 0
M  V30 13301 C 1222.16 -1.78862 0.955839 0
M  V30 13302 C 1222.49 -1.87257 -0.514645 0
M  V30 13303 O 1221.76 -1.36869 -1.38193 0
M  V30 13304 C 1222.05 -3.23021 1.59152 0
M  V30 13305 C 1221.9 -3.22669 3.13376 0
M  V30 13306 C 1223.22 -4.2073 1.29128 0
M  V30 13307 H 1220.34 -0.64931 0.348663 0
M  V30 13308 H 1222.98 -1.23561 1.44335 0
M  V30 13309 H 1221.13 -3.70243 1.17697 0
M  V30 13310 H 1222.8 -2.83562 3.63855 0
M  V30 13311 H 1221.05 -2.61149 3.46386 0
M  V30 13312 H 1221.72 -4.24394 3.52979 0
M  V30 13313 H 1224.19 -3.8198 1.65017 0
M  V30 13314 H 1223.07 -5.19851 1.76198 0
M  V30 13315 H 1223.33 -4.41595 0.21119 0
M  V30 13316 N 1222.39 -0.968567 -1.24324 0
M  V30 13317 C 1223.8 -0.675239 -1.44612 0
M  V30 13318 C 1224 0.762641 -1.8651 0
M  V30 13319 O 1223.06 1.53644 -2.00374 0
M  V30 13320 C 1224.37 -1.66007 -2.50723 0
M  V30 13321 C 1225.92 -1.6728 -2.6455 0
M  V30 13322 C 1226.4 -2.64563 -3.73859 0
M  V30 13323 N 1227.89 -2.6301 -3.81287 0
M  V30 13324 C 1228.62 -3.34957 -4.65394 0
M  V30 13325 N 1228.12 -4.16424 -5.53681 0
M  V30 13326 N 1229.91 -3.23778 -4.59483 0
M  V30 13327 H 1222.06 -1.89757 -0.954257 0
M  V30 13328 H 1224.33 -0.817004 -0.480841 0
M  V30 13329 H 1224.03 -2.68779 -2.26827 0
M  V30 13330 H 1223.91 -1.43353 -3.48898 0
M  V30 13331 H 1226.29 -0.652184 -2.87803 0
M  V30 13332 H 1226.37 -1.93997 -1.6673 0
M  V30 13333 H 1226.02 -3.66759 -3.51355 0
M  V30 13334 H 1225.95 -2.35124 -4.71194 0
M  V30 13335 H 1228.44 -2.03877 -3.18186 0
M  V30 13336 H 1228.75 -4.68207 -6.14818 0
M  V30 13337 H 1227.1 -4.20518 -5.53344 0
M  V30 13338 H 1230.29 -2.59594 -3.89524 0
M  V30 13339 H 1230.46 -3.80112 -5.24804 0
M  V30 13340 N 1223.87 1.39211 -0.738786 0
M  V30 13341 C 1225.11 2.00733 -0.288817 0
M  V30 13342 C 1225.45 1.58494 1.1222 0
M  V30 13343 O 1224.72 0.815579 1.76575 0
M  V30 13344 C 1225 3.57928 -0.394956 0
M  V30 13345 C 1224.86 4.10174 -1.84601 0
M  V30 13346 C 1226.18 4.39548 0.220395 0
M  V30 13347 H 1223.29 0.729276 -0.106418 0
M  V30 13348 H 1225.94 1.65365 -0.935652 0
M  V30 13349 H 1224.09 3.88188 0.155744 0
M  V30 13350 H 1225.76 3.90618 -2.45388 0
M  V30 13351 H 1224 3.63593 -2.36607 0
M  V30 13352 H 1224.67 5.19305 -1.87152 0
M  V30 13353 H 1227.15 4.15354 -0.249098 0
M  V30 13354 H 1226.02 5.48778 0.115806 0
M  V30 13355 H 1226.29 4.22341 1.30691 0
M  V30 13356 N 1225.34 0.486708 1.49896 0
M  V30 13357 C 1226.57 -0.0600816 2.06813 0
M  V30 13358 C 1226.99 -1.32112 1.34877 0
M  V30 13359 O 1226.34 -1.77537 0.422725 0
M  V30 13360 C 1226.4 -0.332266 3.5997 0
M  V30 13361 O 1226.12 0.878771 4.29196 0
M  V30 13362 C 1227.62 -0.924289 4.33557 0
M  V30 13363 H 1224.84 0.0140611 0.670853 0
M  V30 13364 H 1227.38 0.67997 1.92864 0
M  V30 13365 H 1225.54 -1.02227 3.73669 0
M  V30 13366 H 1225.95 0.632873 5.20668 0
M  V30 13367 H 1227.42 -1.06441 5.4164 0
M  V30 13368 H 1227.9 -1.91844 3.95085 0
M  V30 13369 H 1228.51 -0.272189 4.24428 0
M  V30 13370 N 1226.82 -1.56058 0.219941 0
M  V30 13371 C 1227.77 -2.16853 -0.704185 0
M  V30 13372 C 1228.76 -1.11639 -1.15869 0
M  V30 13373 O 1229.95 -1.37632 -1.11295 0
M  V30 13374 C 1227.08 -2.85073 -1.9128 0
M  V30 13375 C 1226.16 -3.9751 -1.47805 0
M  V30 13376 N 1226.56 -5.00121 -0.755792 0
M  V30 13377 C 1224.85 -4.0957 -1.76546 0
M  V30 13378 C 1225.55 -5.79241 -0.534332 0
M  V30 13379 N 1224.53 -5.32549 -1.09055 0
M  V30 13380 H 1228.33 -2.93547 -0.143914 0
M  V30 13381 H 1225.85 -1.62386 0.021133 0
M  V30 13382 H 1227.84 -3.27037 -2.58558 0
M  V30 13383 H 1226.5 -2.09874 -2.47756 0
M  V30 13384 H 1227.51 -5.16285 -0.408647 0
M  V30 13385 H 1224.19 -3.45521 -2.34353 0
M  V30 13386 H 1225.58 -6.71888 0.0404032 0
M  V30 13387 N 1228.3 0.053464 -1.57509 0
M  V30 13388 C 1229.55 0.747622 -1.87763 0
M  V30 13389 C 1229.87 1.77178 -0.814433 0
M  V30 13390 O 1229.14 1.95287 0.154862 0
M  V30 13391 H 1227.72 0.279109 -0.692898 0
M  V30 13392 H 1230.38 0.0252006 -1.94884 0
M  V30 13393 H 1229.48 1.25244 -2.85868 0
M  V30 13394 N 1229.78 1.54207 0.325255 0
M  V30 13395 C 1231.2 1.44879 0.669492 0
M  V30 13396 C 1231.4 0.620298 1.91715 0
M  V30 13397 O 1230.45 0.118435 2.52222 0
M  V30 13398 C 1231.76 2.88581 0.845077 0
M  V30 13399 C 1233.31 2.98472 0.942527 0
M  V30 13400 C 1233.79 4.4332 1.15029 0
M  V30 13401 N 1235.28 4.46925 1.21707 0
M  V30 13402 C 1236.01 5.56155 1.39568 0
M  V30 13403 N 1235.51 6.75357 1.54483 0
M  V30 13404 N 1237.3 5.43799 1.42263 0
M  V30 13405 H 1229.45 2.06556 -0.494819 0
M  V30 13406 H 1231.72 0.934474 -0.159568 0
M  V30 13407 H 1231.42 3.517 -0.000442996 0
M  V30 13408 H 1231.3 3.34596 1.74141 0
M  V30 13409 H 1233.68 2.35481 1.77855 0
M  V30 13410 H 1233.76 2.5579 0.0226995 0
M  V30 13411 H 1233.41 5.06896 0.319127 0
M  V30 13412 H 1233.34 4.8361 2.08397 0
M  V30 13413 H 1235.83 3.61036 1.11632 0
M  V30 13414 H 1236.14 7.54363 1.67799 0
M  V30 13415 H 1234.49 6.78268 1.51584 0
M  V30 13416 H 1237.68 4.49627 1.30205 0
M  V30 13417 H 1237.85 6.28982 1.5584 0
M  V30 13418 N 1231.26 -0.58723 1.46251 0
M  V30 13419 C 1232.51 -1.34179 1.50595 0
M  V30 13420 C 1232.82 -1.94943 0.160171 0
M  V30 13421 O 1234.03 -2.71378 0.0813797 0
M  V30 13422 C 1232.48 -2.43159 2.65333 0
M  V30 13423 C 1232.09 -1.88718 4.06312 0
M  V30 13424 C 1233.83 -3.19986 2.78943 0
M  V30 13425 C 1231.74 -2.953 5.12398 0
M  V30 13426 H 1230.67 -0.504401 0.560442 0
M  V30 13427 H 1233.32 -0.627179 1.72449 0
M  V30 13428 H 1231.7 -3.17398 2.368 0
M  V30 13429 H 1232.88 -1.21051 4.44616 0
M  V30 13430 H 1231.19 -1.24572 3.97329 0
M  V30 13431 H 1233.79 -3.9952 3.5537 0
M  V30 13432 H 1234.13 -3.72288 1.86298 0
M  V30 13433 H 1234.67 -2.52852 3.07101 0
M  V30 13434 H 1231.4 -2.4789 6.0682 0
M  V30 13435 H 1230.92 -3.61469 4.78644 0
M  V30 13436 H 1232.6 -3.5933 5.38044 0
M  V30 13437 N 1232.74 -1.33881 -0.831482 0
M  V30 13438 C 1233.97 -1.28625 -1.61676 0
M  V30 13439 C 1234.37 0.143588 -1.88654 0
M  V30 13440 O 1233.72 1.09847 -1.47239 0
M  V30 13441 C 1233.78 -2.00022 -2.98716 0
M  V30 13442 C 1233.44 -3.49309 -2.94674 0
M  V30 13443 C 1234.44 -4.44375 -2.69864 0
M  V30 13444 C 1232.12 -3.91596 -3.14576 0
M  V30 13445 C 1234.12 -5.79703 -2.64996 0
M  V30 13446 C 1231.81 -5.27026 -3.09333 0
M  V30 13447 C 1232.8 -6.20892 -2.84575 0
M  V30 13448 O 1232.49 -7.53841 -2.79248 0
M  V30 13449 H 1232.22 -0.444235 -0.50954 0
M  V30 13450 H 1234.78 -1.76933 -1.04326 0
M  V30 13451 H 1233.01 -1.46316 -3.57951 0
M  V30 13452 H 1234.7 -1.88168 -3.59649 0
M  V30 13453 H 1235.46 -4.13027 -2.54231 0
M  V30 13454 H 1231.34 -3.18938 -3.32865 0
M  V30 13455 H 1234.89 -6.5294 -2.45591 0
M  V30 13456 H 1230.78 -5.57996 -3.24516 0
M  V30 13457 H 1231.55 -7.63476 -2.95037 0
M  V30 13458 N 1234.21 1.05064 -1.1747 0
M  V30 13459 C 1235.44 1.82299 -0.98903 0
M  V30 13460 C 1235.86 1.82441 0.457907 0
M  V30 13461 O 1235.22 1.23433 1.32793 0
M  V30 13462 C 1235.27 3.26239 -1.53624 0
M  V30 13463 O 1234.37 4.05507 -0.750857 0
M  V30 13464 H 1233.71 0.563601 -0.35107 0
M  V30 13465 H 1236.24 1.32386 -1.55997 0
M  V30 13466 H 1236.25 3.77038 -1.55906 0
M  V30 13467 H 1234.93 3.25451 -2.58949 0
M  V30 13468 H 1233.51 3.64227 -0.799548 0
M  V30 13469 N 1235.69 0.975146 1.23809 0
M  V30 13470 C 1236.6 0.51917 2.28783 0
M  V30 13471 C 1237.62 -0.423487 1.68768 0
M  V30 13472 O 1238.79 -0.294699 1.99232 0
M  V30 13473 C 1235.86 -0.176229 3.46252 0
M  V30 13474 C 1234.92 0.807177 4.21643 0
M  V30 13475 C 1234.15 0.144869 5.33503 0
M  V30 13476 O 1234.38 -1.06522 5.60365 0
M  V30 13477 O 1233.31 0.84079 5.95999 0
M  V30 13478 H 1237.14 1.39204 2.69919 0
M  V30 13479 H 1234.72 0.74253 1.29641 0
M  V30 13480 H 1236.6 -0.566547 4.17574 0
M  V30 13481 H 1235.28 -1.02394 3.07078 0
M  V30 13482 H 1234.18 1.2481 3.52666 0
M  V30 13483 H 1235.52 1.62354 4.64653 0
M  V30 13484 N 1237.17 -1.38817 0.746158 0
M  V30 13485 C 1238.42 -2.00577 0.299458 0
M  V30 13486 C 1238.75 -1.59087 -1.11378 0
M  V30 13487 O 1238.02 -0.824932 -1.7614 0
M  V30 13488 C 1238.31 -3.57713 0.413932 0
M  V30 13489 C 1238.16 -4.09189 1.86774 0
M  V30 13490 C 1239.48 -4.39659 -0.197082 0
M  V30 13491 H 1236.6 -0.728702 0.110285 0
M  V30 13492 H 1239.24 -1.64866 0.944408 0
M  V30 13493 H 1237.39 -3.88265 -0.135155 0
M  V30 13494 H 1239.06 -3.89311 2.47456 0
M  V30 13495 H 1237.3 -3.62333 2.38532 0
M  V30 13496 H 1237.98 -5.18305 1.89904 0
M  V30 13497 H 1240.45 -4.15216 0.271121 0
M  V30 13498 H 1239.33 -5.48832 -0.0867011 0
M  V30 13499 H 1239.59 -4.23028 -1.2845 0
M  V30 13500 N 1238.65 -0.49465 -1.49636 0
M  V30 13501 C 1239.88 0.0491129 -2.06842 0
M  V30 13502 C 1240.29 1.31395 -1.35576 0
M  V30 13503 O 1239.65 1.7731 -0.432135 0
M  V30 13504 C 1239.7 0.313171 -3.60141 0
M  V30 13505 O 1239.42 -0.90152 -4.28724 0
M  V30 13506 C 1240.92 0.901284 -4.34041 0
M  V30 13507 H 1238.14 -0.0176186 -0.670769 0
M  V30 13508 H 1240.68 -0.690188 -1.92501 0
M  V30 13509 H 1238.84 1.00244 -3.74206 0
M  V30 13510 H 1239.25 -0.660477 -5.20325 0
M  V30 13511 H 1240.73 1.03567 -5.42197 0
M  V30 13512 H 1241.2 1.89746 -3.96097 0
M  V30 13513 H 1241.81 0.249677 -4.24566 0
M  V30 13514 N 1240.13 1.55939 -0.228214 0
M  V30 13515 C 1241.37 2.00379 0.403442 0
M  V30 13516 C 1241.73 1.11264 1.56475 0
M  V30 13517 O 1242.93 1.45079 2.26287 0
M  V30 13518 C 1241.2 3.47851 0.820649 0
M  V30 13519 S 1242.76 4.14309 1.44547 0
M  V30 13520 H 1239.58 0.699426 0.127768 0
M  V30 13521 H 1242.18 1.92537 -0.339066 0
M  V30 13522 H 1240.88 4.10386 -0.0341308 0
M  V30 13523 H 1240.42 3.5958 1.5958 0
M  V30 13524 H 1242.43 4.14048 2.73456 0
M  V30 13525 N 1241.6 -0.0451101 1.57535 0
M  V30 13526 C 1242.85 -0.739114 1.88529 0
M  V30 13527 C 1243.18 -1.76208 0.823468 0
M  V30 13528 O 1242.43 -1.94893 -0.177512 0
M  V30 13529 C 1242.73 -1.45938 3.26247 0
M  V30 13530 C 1242.4 -0.57391 4.47233 0
M  V30 13531 C 1241.06 -0.329974 4.80067 0
M  V30 13532 C 1243.41 0.0384272 5.21186 0
M  V30 13533 C 1240.74 0.535339 5.84253 0
M  V30 13534 C 1243.09 0.891349 6.26289 0
M  V30 13535 C 1241.76 1.1449 6.57608 0
M  V30 13536 H 1241.03 -0.270461 0.689878 0
M  V30 13537 H 1243.67 0.000714103 1.915 0
M  V30 13538 H 1241.98 -2.27212 3.1919 0
M  V30 13539 H 1243.68 -2.00162 3.47471 0
M  V30 13540 H 1240.27 -0.774181 4.2155 0
M  V30 13541 H 1244.45 -0.137096 4.96111 0
M  V30 13542 H 1239.71 0.740253 6.06902 0
M  V30 13543 H 1243.88 1.37243 6.82743 0
M  V30 13544 H 1241.51 1.81715 7.38162 0
M  V30 13545 N 1243.08 -1.54377 -0.317073 0
M  V30 13546 C 1244.33 -1.72893 -1.05424 0
M  V30 13547 C 1244.66 -0.506082 -1.87801 0
M  V30 13548 O 1243.91 0.51213 -1.8888 0
M  V30 13549 C 1244.21 -2.96066 -2.00199 0
M  V30 13550 C 1243.88 -4.30551 -1.33927 0
M  V30 13551 C 1242.54 -4.67112 -1.15584 0
M  V30 13552 C 1244.89 -5.13986 -0.864158 0
M  V30 13553 C 1242.22 -5.84701 -0.483892 0
M  V30 13554 C 1244.57 -6.32264 -0.206006 0
M  V30 13555 C 1243.24 -6.67499 -0.0104849 0
M  V30 13556 H 1242.51 -0.63266 -0.385776 0
M  V30 13557 H 1245.15 -1.88623 -0.330722 0
M  V30 13558 H 1243.46 -2.7505 -2.79024 0
M  V30 13559 H 1245.15 -3.07586 -2.57278 0
M  V30 13560 H 1241.74 -4.0179 -1.49207 0
M  V30 13561 H 1245.93 -4.86252 -0.993635 0
M  V30 13562 H 1241.18 -6.10555 -0.32127 0
M  V30 13563 H 1245.36 -6.96192 0.170108 0
M  V30 13564 H 1242.99 -7.58472 0.512209 0
M  V30 13565 N 1244.56 0.579466 -1.4656 0
M  V30 13566 C 1245.84 1.33973 -1.42515 0
M  V30 13567 C 1246.22 2.10812 -0.110317 0
M  V30 13568 O 1245.57 2.09679 0.908135 0
M  V30 13569 C 1245.78 2.26301 -2.65686 0
M  V30 13570 C 1247.12 2.88027 -3.1197 0
M  V30 13571 O 1248.15 2.36612 -2.66257 0
M  V30 13572 O 1247.01 3.81423 -3.9138 0
M  V30 13573 H 1244.1 0.602121 -0.566903 0
M  V30 13574 H 1246.65 0.600214 -1.58731 0
M  V30 13575 H 1245.42 1.68973 -3.52936 0
M  V30 13576 H 1245.04 3.07586 -2.51945 0
M  V30 13577 N 1246.04 1.3432 0.824371 0
M  V30 13578 C 1246.99 1.22332 1.92403 0
M  V30 13579 C 1247.97 0.122709 1.60431 0
M  V30 13580 O 1249.16 0.352231 1.7346 0
M  V30 13581 C 1246.29 0.979497 3.2903 0
M  V30 13582 C 1245.38 2.12322 3.67124 0
M  V30 13583 N 1245.77 3.3743 3.76795 0
M  V30 13584 C 1244.07 2.03314 3.96963 0
M  V30 13585 C 1244.77 4.12532 4.10113 0
M  V30 13586 N 1243.75 3.41109 4.23256 0
M  V30 13587 H 1247.55 2.17143 1.98056 0
M  V30 13588 H 1245.06 1.26537 1.01795 0
M  V30 13589 H 1247.06 0.874525 4.07624 0
M  V30 13590 H 1245.72 0.0400611 3.24675 0
M  V30 13591 H 1246.73 3.72001 3.60327 0
M  V30 13592 H 1243.41 1.17118 4.00736 0
M  V30 13593 H 1244.8 5.20562 4.24811 0
M  V30 13594 N 1247.52 -1.0444 1.18026 0
M  V30 13595 C 1248.76 -1.77838 0.974756 0
M  V30 13596 C 1249.1 -1.87792 -0.494755 0
M  V30 13597 O 1248.37 -1.38327 -1.36733 0
M  V30 13598 C 1248.65 -3.21315 1.62569 0
M  V30 13599 C 1248.51 -3.19327 3.16781 0
M  V30 13600 C 1249.83 -4.19337 1.33583 0
M  V30 13601 H 1246.94 -0.645575 0.35553 0
M  V30 13602 H 1249.59 -1.22023 1.45638 0
M  V30 13603 H 1247.74 -3.68974 1.21617 0
M  V30 13604 H 1249.41 -2.79687 3.66842 0
M  V30 13605 H 1247.65 -2.57461 3.49137 0
M  V30 13606 H 1248.32 -4.20626 3.5746 0
M  V30 13607 H 1250.8 -3.80208 1.69059 0
M  V30 13608 H 1249.67 -5.17953 1.81702 0
M  V30 13609 H 1249.94 -4.41346 0.258016 0
M  V30 13610 N 1248.99 -0.981699 -1.2329 0
M  V30 13611 C 1250.22 -0.66937 -1.95773 0
M  V30 13612 C 1250.64 0.763898 -1.72656 0
M  V30 13613 O 1249.99 1.51418 -1.01876 0
M  V30 13614 C 1250.05 -0.951863 -3.48743 0
M  V30 13615 O 1249.77 -2.3288 -3.71078 0
M  V30 13616 C 1251.27 -0.655668 -4.38424 0
M  V30 13617 H 1248.49 -0.248545 -0.623271 0
M  V30 13618 H 1251.03 -1.31343 -1.56746 0
M  V30 13619 H 1249.19 -0.353787 -3.85781 0
M  V30 13620 H 1249.6 -2.41948 -4.65362 0
M  V30 13621 H 1251.07 -0.903683 -5.44553 0
M  V30 13622 H 1251.55 0.410269 -4.3728 0
M  V30 13623 H 1252.16 -1.23428 -4.06996 0
M  V30 13624 N 1250.47 1.3842 -0.753509 0
M  V30 13625 C 1251.42 2.27774 -0.101443 0
M  V30 13626 C 1252.41 1.45196 0.693322 0
M  V30 13627 O 1253.6 1.67931 0.55929 0
M  V30 13628 C 1250.73 3.34064 0.790977 0
M  V30 13629 C 1249.81 4.24099 -0.010633 0
M  V30 13630 N 1250.2 4.94845 -1.047 0
M  V30 13631 C 1248.5 4.45476 0.216193 0
M  V30 13632 C 1249.2 5.61164 -1.53199 0
M  V30 13633 N 1248.18 5.36956 -0.847304 0
M  V30 13634 H 1251.98 2.79935 -0.895188 0
M  V30 13635 H 1249.5 1.51321 -0.589545 0
M  V30 13636 H 1251.49 3.96965 1.27375 0
M  V30 13637 H 1250.15 2.83461 1.58367 0
M  V30 13638 H 1251.16 4.97801 -1.42879 0
M  V30 13639 H 1247.84 4.05781 0.982238 0
M  V30 13640 H 1249.23 6.27756 -2.39525 0
M  V30 13641 N 1251.95 0.502579 1.49372 0
M  V30 13642 C 1253.37 0.158641 1.5881 0
M  V30 13643 C 1253.57 -1.33688 1.50764 0
M  V30 13644 O 1252.62 -2.11295 1.38241 0
M  V30 13645 C 1253.94 0.736843 2.91532 0
M  V30 13646 C 1255.48 0.703093 3.05001 0
M  V30 13647 C 1255.96 1.25938 4.40345 0
M  V30 13648 N 1257.45 1.22015 4.46841 0
M  V30 13649 C 1258.18 1.62076 5.50017 0
M  V30 13650 N 1257.68 2.09736 6.6029 0
M  V30 13651 N 1259.47 1.53482 5.4074 0
M  V30 13652 H 1251.62 1.47487 1.52844 0
M  V30 13653 H 1253.89 0.611851 0.724115 0
M  V30 13654 H 1253.59 1.78573 3.02992 0
M  V30 13655 H 1253.47 0.198178 3.76679 0
M  V30 13656 H 1255.85 -0.336965 2.9317 0
M  V30 13657 H 1255.94 1.27892 2.21534 0
M  V30 13658 H 1255.58 2.29823 4.52928 0
M  V30 13659 H 1255.51 0.659481 5.22454 0
M  V30 13660 H 1258 0.870957 3.67726 0
M  V30 13661 H 1258.31 2.3837 7.35119 0
M  V30 13662 H 1256.66 2.13712 6.61326 0
M  V30 13663 H 1259.85 1.16065 4.53483 0
M  V30 13664 H 1260.02 1.85026 6.21023 0
M  V30 13665 N 1253.43 -1.55816 0.23648 0
M  V30 13666 C 1254.67 -1.98981 -0.391725 0
M  V30 13667 C 1255.01 -1.12428 -1.58346 0
M  V30 13668 O 1254.28 -0.185303 -1.93615 0
M  V30 13669 C 1254.57 -3.50831 -0.811759 0
M  V30 13670 C 1254.42 -4.48152 0.384648 0
M  V30 13671 C 1255.74 -4.07489 -1.66254 0
M  V30 13672 H 1252.86 -0.723404 -0.140911 0
M  V30 13673 H 1255.5 -1.87011 0.335706 0
M  V30 13674 H 1253.65 -3.61162 -1.43157 0
M  V30 13675 H 1255.32 -4.49814 1.02298 0
M  V30 13676 H 1253.56 -4.21406 1.02955 0
M  V30 13677 H 1254.23 -5.51979 0.0475809 0
M  V30 13678 H 1256.71 -4.00195 -1.13944 0
M  V30 13679 H 1255.59 -5.14026 -1.92531 0
M  V30 13680 H 1255.85 -3.55297 -2.6309 0
M  V30 13681 N 1254.91 0.036755 -1.57557 0
M  V30 13682 C 1256.32 0.392264 -1.54704 0
M  V30 13683 C 1256.52 1.77076 -0.96157 0
M  V30 13684 O 1255.58 2.45766 -0.579263 0
M  V30 13685 C 1256.89 0.301168 -2.99188 0
M  V30 13686 C 1258.44 0.378813 -3.10699 0
M  V30 13687 C 1258.91 0.317249 -4.569 0
M  V30 13688 N 1260.41 0.376277 -4.61669 0
M  V30 13689 C 1261.14 0.351411 -5.72322 0
M  V30 13690 N 1260.64 0.279288 -6.92237 0
M  V30 13691 N 1262.43 0.400571 -5.60671 0
M  V30 13692 H 1254.58 -0.865455 -1.93968 0
M  V30 13693 H 1256.84 -0.328339 -0.889324 0
M  V30 13694 H 1256.55 -0.64582 -3.4572 0
M  V30 13695 H 1256.42 1.09784 -3.6087 0
M  V30 13696 H 1258.81 1.31623 -2.6412 0
M  V30 13697 H 1258.89 -0.447072 -2.51863 0
M  V30 13698 H 1258.54 -0.616469 -5.04145 0
M  V30 13699 H 1258.47 1.16114 -5.13639 0
M  V30 13700 H 1260.96 0.434843 -3.7539 0
M  V30 13701 H 1261.27 0.265202 -7.72345 0
M  V30 13702 H 1259.61 0.24545 -6.94566 0
M  V30 13703 H 1262.81 0.454854 -4.65885 0
M  V30 13704 H 1262.98 0.377724 -6.46898 0
M  V30 13705 N 1256.39 1.54543 0.308881 0
M  V30 13706 C 1257.32 1.87947 1.38557 0
M  V30 13707 C 1258.3 0.737622 1.53275 0
M  V30 13708 O 1259.48 0.992664 1.66913 0
M  V30 13709 C 1256.61 2.11982 2.75102 0
M  V30 13710 C 1255.57 3.2783 2.75158 0
M  V30 13711 C 1254.89 3.37266 4.14917 0
M  V30 13712 C 1256.19 4.65129 2.37598 0
M  V30 13713 H 1257.89 2.78123 1.1085 0
M  V30 13714 H 1255.43 1.3382 0.531808 0
M  V30 13715 H 1257.38 2.33935 3.50503 0
M  V30 13716 H 1256.11 1.18569 3.04317 0
M  V30 13717 H 1254.77 3.05787 2.02212 0
M  V30 13718 H 1254.42 2.41384 4.41296 0
M  V30 13719 H 1254.12 4.15135 4.15857 0
M  V30 13720 H 1255.64 3.61471 4.92109 0
M  V30 13721 H 1257.05 4.86865 3.02714 0
M  V30 13722 H 1255.45 5.45653 2.49765 0
M  V30 13723 H 1256.52 4.6638 1.32731 0
M  V30 13724 N 1257.86 -0.571685 1.46866 0
M  V30 13725 C 1259.09 -1.35327 1.56109 0
M  V30 13726 C 1259.5 -1.88086 0.20504 0
M  V30 13727 O 1258.84 -1.64896 -0.809626 0
M  V30 13728 C 1258.91 -2.56939 2.51441 0
M  V30 13729 C 1258.57 -2.2557 3.97451 0
M  V30 13730 C 1259.57 -1.83737 4.86351 0
M  V30 13731 C 1257.25 -2.37375 4.42672 0
M  V30 13732 C 1259.25 -1.54118 6.18487 0
M  V30 13733 C 1256.93 -2.07368 5.7484 0
M  V30 13734 C 1257.93 -1.65806 6.62569 0
M  V30 13735 O 1257.62 -1.36173 7.92283 0
M  V30 13736 H 1257.35 -0.419368 0.530194 0
M  V30 13737 H 1259.91 -0.700859 1.93073 0
M  V30 13738 H 1258.14 -3.25023 2.09517 0
M  V30 13739 H 1259.82 -3.19012 2.5097 0
M  V30 13740 H 1260.59 -1.74122 4.52666 0
M  V30 13741 H 1256.47 -2.68686 3.74605 0
M  V30 13742 H 1260.01 -1.21603 6.8692 0
M  V30 13743 H 1255.91 -2.16611 6.08071 0
M  V30 13744 H 1256.68 -1.49926 8.04652 0
M  V30 13745 N 1259.34 -1.34755 -0.817236 0
M  V30 13746 C 1260.29 -1.23351 -1.91751 0
M  V30 13747 C 1261.28 -0.131215 -1.60364 0
M  V30 13748 O 1262.47 -0.361425 -1.73271 0
M  V30 13749 C 1259.6 -0.996932 -3.28506 0
M  V30 13750 C 1258.68 -2.14265 -3.65993 0
M  V30 13751 N 1259.07 -3.39424 -3.75 0
M  V30 13752 C 1257.37 -2.05416 -3.95879 0
M  V30 13753 C 1258.07 -4.14701 -4.07919 0
M  V30 13754 N 1257.05 -3.43349 -4.21441 0
M  V30 13755 H 1260.85 -2.18191 -1.96901 0
M  V30 13756 H 1258.36 -1.27075 -1.01122 0
M  V30 13757 H 1260.36 -0.89613 -4.07155 0
M  V30 13758 H 1259.02 -0.0572789 -3.24649 0
M  V30 13759 H 1260.03 -3.73907 -3.58349 0
M  V30 13760 H 1256.71 -1.19242 -4.0011 0
M  V30 13761 H 1258.1 -5.22808 -4.22044 0
M  V30 13762 N 1260.82 1.03812 -1.18578 0
M  V30 13763 C 1262.07 1.76455 -0.977071 0
M  V30 13764 C 1262.38 1.8926 0.493964 0
M  V30 13765 O 1263.59 2.58781 0.821256 0
M  V30 13766 C 1262.04 3.17264 -1.69917 0
M  V30 13767 C 1261.65 3.12543 -3.20969 0
M  V30 13768 C 1263.4 3.94266 -1.57337 0
M  V30 13769 C 1261.3 4.48226 -3.85807 0
M  V30 13770 H 1260.23 0.661445 -0.361949 0
M  V30 13771 H 1262.88 1.16252 -1.41978 0
M  V30 13772 H 1261.27 3.77878 -1.18424 0
M  V30 13773 H 1262.44 2.61364 -3.79507 0
M  V30 13774 H 1260.75 2.49039 -3.33719 0
M  V30 13775 H 1263.35 4.9461 -2.03137 0
M  V30 13776 H 1263.69 4.12963 -0.526033 0
M  V30 13777 H 1264.23 3.40232 -2.06124 0
M  V30 13778 H 1260.97 4.34734 -4.90599 0
M  V30 13779 H 1260.49 4.99497 -3.32058 0
M  V30 13780 H 1262.17 5.17135 -3.88819 0
M  V30 13781 N 1262.3 0.988223 1.22768 0
M  V30 13782 C 1263.23 0.492919 2.23837 0
M  V30 13783 C 1264.24 -0.409467 1.57567 0
M  V30 13784 O 1265.43 -0.21235 1.77232 0
M  V30 13785 C 1262.53 -0.305428 3.37521 0
M  V30 13786 C 1261.7 0.591966 4.33376 0
M  V30 13787 C 1260.76 -0.15387 5.25975 0
M  V30 13788 O 1259.79 0.459153 5.67345 0
M  V30 13789 N 1260.99 -1.43756 5.62418 0
M  V30 13790 H 1263.76 1.36199 2.66965 0
M  V30 13791 H 1261.32 0.862395 1.3702 0
M  V30 13792 H 1263.31 -0.812921 3.96451 0
M  V30 13793 H 1261.88 -1.07556 2.93514 0
M  V30 13794 H 1261.1 1.28019 3.72833 0
M  V30 13795 H 1262.39 1.20327 4.94367 0
M  V30 13796 H 1261.79 -1.95701 5.30771 0
M  V30 13797 H 1260.34 -1.89034 6.23786 0
M  V30 13798 N 1263.78 -1.38018 0.760839 0
M  V30 13799 C 1265.02 -1.99557 0.319609 0
M  V30 13800 C 1265.34 -1.60699 -1.10457 0
M  V30 13801 O 1264.61 -0.867248 -1.75658 0
M  V30 13802 H 1263.19 -0.738066 0.115182 0
M  V30 13803 H 1265.86 -1.6867 0.976544 0
M  V30 13804 H 1264.95 -3.09672 0.388523 0
M  V30 13805 N 1265.25 -0.510493 -1.49103 0
M  V30 13806 C 1266.5 0.0325393 -2.01674 0
M  V30 13807 C 1266.82 1.37162 -1.39448 0
M  V30 13808 O 1268.02 2.00189 -1.83402 0
M  V30 13809 C 1266.48 0.108433 -3.59737 0
M  V30 13810 C 1266.09 -1.22458 -4.30939 0
M  V30 13811 C 1267.83 0.601326 -4.20219 0
M  V30 13812 C 1265.74 -1.11033 -5.80884 0
M  V30 13813 H 1264.67 0.0159333 -0.753832 0
M  V30 13814 H 1267.32 -0.651344 -1.71551 0
M  V30 13815 H 1265.7 0.856974 -3.86616 0
M  V30 13816 H 1266.87 -1.98715 -4.15751 0
M  V30 13817 H 1265.19 -1.65166 -3.82242 0
M  V30 13818 H 1267.79 0.704462 -5.30039 0
M  V30 13819 H 1268.13 1.60247 -3.84222 0
M  V30 13820 H 1268.66 -0.0909561 -3.97696 0
M  V30 13821 H 1265.4 -2.08603 -6.21422 0
M  V30 13822 H 1264.92 -0.388798 -5.98539 0
M  V30 13823 H 1266.6 -0.792949 -6.42123 0
M  V30 13824 N 1266.73 1.55688 -0.24474 0
M  V30 13825 C 1267.64 2.24933 0.666519 0
M  V30 13826 C 1268.66 1.26471 1.19503 0
M  V30 13827 O 1269.83 1.59342 1.23176 0
M  V30 13828 C 1266.9 2.9336 1.84772 0
M  V30 13829 C 1265.96 4.07225 1.35889 0
M  V30 13830 C 1265.19 4.72381 2.48379 0
M  V30 13831 O 1265.42 4.36605 3.67059 0
M  V30 13832 O 1264.35 5.60933 2.18261 0
M  V30 13833 H 1268.18 3.03513 0.106507 0
M  V30 13834 H 1265.76 1.49394 -0.0133309 0
M  V30 13835 H 1267.64 3.36468 2.53708 0
M  V30 13836 H 1266.32 2.17721 2.39539 0
M  V30 13837 H 1265.22 3.68639 0.636881 0
M  V30 13838 H 1266.56 4.84676 0.857333 0
M  V30 13839 N 1268.21 -0.0283989 1.57574 0
M  V30 13840 C 1269.46 -0.717656 1.88929 0
M  V30 13841 C 1269.78 -1.7586 0.842517 0
M  V30 13842 O 1269.05 -1.95509 -0.123774 0
M  V30 13843 H 1267.63 -0.268051 0.69725 0
M  V30 13844 H 1270.29 0.00580691 1.94899 0
M  V30 13845 H 1269.39 -1.2068 2.87824 0
M  V30 13846 N 1269.69 -1.54705 -0.300681 0
M  V30 13847 C 1270.62 -1.8205 -1.39249 0
M  V30 13848 C 1271.63 -0.703476 -1.46816 0
M  V30 13849 O 1272.82 -0.980957 -1.49129 0
M  V30 13850 C 1269.92 -1.94376 -2.77617 0
M  V30 13851 C 1269.09 -3.2478 -2.92979 0
M  V30 13852 C 1268.15 -3.27518 -4.11848 0
M  V30 13853 O 1267.18 -4.01047 -4.03918 0
M  V30 13854 N 1268.38 -2.52932 -5.22499 0
M  V30 13855 H 1271.15 -2.76279 -1.16146 0
M  V30 13856 H 1268.71 -1.54283 -0.49075 0
M  V30 13857 H 1270.7 -1.93609 -3.55384 0
M  V30 13858 H 1269.27 -1.07141 -2.93666 0
M  V30 13859 H 1268.49 -3.38319 -2.02322 0
M  V30 13860 H 1269.78 -4.10835 -3.00153 0
M  V30 13861 H 1269.18 -1.92825 -5.31822 0
M  V30 13862 H 1267.73 -2.57919 -5.98599 0
M  V30 13863 N 1271.17 0.563888 -1.47167 0
M  V30 13864 C 1272.39 1.35176 -1.57297 0
M  V30 13865 C 1272.82 1.86794 -0.221235 0
M  V30 13866 O 1272.17 1.62606 0.801809 0
M  V30 13867 C 1272.22 2.50225 -2.59654 0
M  V30 13868 O 1271.33 3.5225 -2.14461 0
M  V30 13869 H 1270.67 0.401795 -0.528637 0
M  V30 13870 H 1273.2 0.682137 -1.92894 0
M  V30 13871 H 1273.21 2.96886 -2.79862 0
M  V30 13872 H 1271.88 2.1201 -3.57805 0
M  V30 13873 H 1270.46 3.1194 -2.04323 0
M  V30 13874 N 1272.64 1.35187 0.810078 0
M  V30 13875 C 1273.89 1.28454 1.56931 0
M  V30 13876 C 1274.22 -0.141747 1.93682 0
M  V30 13877 O 1273.5 -1.09028 1.61069 0
M  V30 13878 C 1273.78 2.18771 2.86027 0
M  V30 13879 C 1273.63 3.69999 2.55774 0
M  V30 13880 C 1274.95 2.08265 3.87703 0
M  V30 13881 H 1272.07 0.467959 0.569371 0
M  V30 13882 H 1274.71 1.65556 0.932262 0
M  V30 13883 H 1272.86 1.8726 3.40391 0
M  V30 13884 H 1274.54 4.11936 2.07621 0
M  V30 13885 H 1272.78 3.90453 1.89021 0
M  V30 13886 H 1273.45 4.28577 3.47888 0
M  V30 13887 H 1275.93 2.35958 3.42729 0
M  V30 13888 H 1274.8 2.73663 4.75815 0
M  V30 13889 H 1275.06 1.06352 4.29117 0
M  V30 13890 N 1274.12 -1.03182 1.19127 0
M  V30 13891 C 1275.03 -2.14875 0.94159 0
M  V30 13892 C 1276.05 -1.73727 -0.0973872 0
M  V30 13893 O 1277.22 -2.01214 0.0865775 0
M  V30 13894 C 1274.29 -3.43356 0.480366 0
M  V30 13895 C 1273.35 -3.98835 1.58838 0
M  V30 13896 C 1272.58 -5.21183 1.14907 0
M  V30 13897 O 1272.81 -5.70399 0.0114141 0
M  V30 13898 O 1271.74 -5.69423 1.95042 0
M  V30 13899 H 1275.57 -2.38799 1.8764 0
M  V30 13900 H 1273.15 -1.13299 0.973841 0
M  V30 13901 H 1275.03 -4.20763 0.231658 0
M  V30 13902 H 1273.71 -3.20884 -0.426041 0
M  V30 13903 H 1272.62 -3.22776 1.8912 0
M  V30 13904 H 1273.95 -4.25665 2.47123 0
M  V30 13905 N 1275.6 -0.99472 -1.22242 0
M  V30 13906 C 1276.85 -0.672596 -1.91322 0
M  V30 13907 C 1277.18 0.793542 -1.77247 0
M  V30 13908 O 1276.45 1.57407 -1.14251 0
M  V30 13909 C 1276.74 -1.08155 -3.43474 0
M  V30 13910 C 1276.59 -2.60638 -3.6659 0
M  V30 13911 C 1277.91 -0.636161 -4.35478 0
M  V30 13912 H 1275.03 -0.24582 -0.694796 0
M  V30 13913 H 1277.67 -1.23857 -1.44082 0
M  V30 13914 H 1275.82 -0.599987 -3.83839 0
M  V30 13915 H 1277.49 -3.16479 -3.35617 0
M  V30 13916 H 1275.74 -3.02624 -3.10808 0
M  V30 13917 H 1276.41 -2.84304 -4.73155 0
M  V30 13918 H 1278.88 -1.04982 -4.02639 0
M  V30 13919 H 1277.76 -0.950584 -5.40606 0
M  V30 13920 H 1278.02 0.4631 -4.39668 0
M  V30 13921 N 1277.08 1.37613 -0.768148 0
M  V30 13922 C 1278.3 2.04579 -0.340892 0
M  V30 13923 C 1278.73 1.57556 1.02751 0
M  V30 13924 O 1278.09 0.734151 1.65771 0
M  V30 13925 C 1278.13 3.58495 -0.389099 0
M  V30 13926 O 1277.24 4.07838 0.611741 0
M  V30 13927 H 1276.58 0.647246 -0.148216 0
M  V30 13928 H 1279.11 1.75999 -1.04333 0
M  V30 13929 H 1279.12 4.07263 -0.245116 0
M  V30 13930 H 1277.79 3.92076 -1.38742 0
M  V30 13931 H 1276.37 3.70399 0.431173 0
M  V30 13932 N 1278.56 0.518393 1.4883 0
M  V30 13933 C 1279.5 -0.264197 2.31095 0
M  V30 13934 C 1280.5 -0.946455 1.40494 0
M  V30 13935 O 1281.7 -0.872161 1.57459 0
M  V30 13936 H 1278.08 -0.104065 0.744765 0
M  V30 13937 H 1280.05 0.449375 2.94997 0
M  V30 13938 C 1278.8 -1.30527 3.2227 0
M  V30 13939 H 1278.12 -0.789695 3.91923 0
M  V30 13940 H 1279.56 -1.82449 3.82738 0
M  V30 13941 C 1278.02 -2.33274 2.43073 0
M  V30 13942 O 1278.55 -3.39493 2.14726 0
M  V30 13943 N 1276.76 -2.06189 2.04779 0
M  V30 13944 H 1276.3 -1.19829 2.28033 0
M  V30 13945 H 1276.26 -2.7516 1.521 0
M  V30 13946 N 1280.03 -1.55556 0.252993 0
M  V30 13947 C 1281.28 -1.98267 -0.370571 0
M  V30 13948 C 1281.6 -1.14449 -1.58622 0
M  V30 13949 O 1282.8 -1.472 -2.28132 0
M  V30 13950 C 1281.26 -3.52813 -0.710685 0
M  V30 13951 C 1280.87 -4.45379 0.483908 0
M  V30 13952 C 1282.61 -4.04165 -1.2981 0
M  V30 13953 C 1280.52 -5.91279 0.119611 0
M  V30 13954 H 1279.45 -0.740463 -0.142232 0
M  V30 13955 H 1282.1 -1.8005 0.354169 0
M  V30 13956 H 1280.48 -3.66748 -1.49372 0
M  V30 13957 H 1281.65 -4.43206 1.26116 0
M  V30 13958 H 1279.97 -4.04542 0.986664 0
M  V30 13959 H 1282.57 -5.10696 -1.5841 0
M  V30 13960 H 1282.91 -3.51875 -2.22462 0
M  V30 13961 H 1283.44 -3.93581 -0.577836 0
M  V30 13962 H 1280.18 -6.47619 1.01343 0
M  V30 13963 H 1279.7 -5.96573 -0.621318 0
M  V30 13964 H 1281.38 -6.46322 -0.296052 0
M  V30 13965 N 1281.51 0.0200419 -1.57587 0
M  V30 13966 C 1282.76 0.710078 -1.89962 0
M  V30 13967 C 1283.09 1.74521 -0.851829 0
M  V30 13968 O 1282.37 1.94052 0.132005 0
M  V30 13969 C 1282.65 1.37145 -3.32961 0
M  V30 13970 C 1282.5 0.349221 -4.48442 0
M  V30 13971 C 1283.82 2.30304 -3.75031 0
M  V30 13972 H 1280.94 0.25667 -0.690862 0
M  V30 13973 H 1283.58 -0.0271362 -1.89981 0
M  V30 13974 H 1281.73 1.99981 -3.33076 0
M  V30 13975 H 1283.4 -0.277916 -4.60462 0
M  V30 13976 H 1281.65 -0.330594 -4.32538 0
M  V30 13977 H 1282.32 0.850636 -5.45406 0
M  V30 13978 H 1284.79 1.77503 -3.7634 0
M  V30 13979 H 1283.67 2.73555 -4.75877 0
M  V30 13980 H 1283.93 3.17364 -3.07786 0
M  V30 13981 N 1282.99 1.54862 0.292472 0
M  V30 13982 C 1284.27 1.65237 1.04671 0
M  V30 13983 C 1284.65 0.506168 2.04942 0
M  V30 13984 O 1284 -0.496123 2.23049 0
M  V30 13985 C 1284.21 3.03618 1.72095 0
M  V30 13986 C 1285.55 3.6072 2.23979 0
M  V30 13987 O 1286.58 3.06126 1.82114 0
M  V30 13988 O 1285.44 4.56328 3.0071 0
M  V30 13989 H 1282.53 0.670347 0.484319 0
M  V30 13990 H 1285.08 1.67206 0.28988 0
M  V30 13991 H 1283.85 3.78482 0.993324 0
M  V30 13992 H 1283.47 3.05464 2.54514 0
M  V30 13993 N 1284.47 -0.556076 1.47464 0
M  V30 13994 C 1285.72 -1.30955 1.53407 0
M  V30 13995 C 1286.03 -1.94559 0.201485 0
M  V30 13996 O 1287.24 -2.71144 0.138925 0
M  V30 13997 C 1285.69 -2.37476 2.70431 0
M  V30 13998 C 1285.3 -1.80057 4.10224 0
M  V30 13999 C 1287.04 -3.13997 2.85668 0
M  V30 14000 C 1284.95 -2.84365 5.18547 0
M  V30 14001 H 1283.88 -0.4924 0.571015 0
M  V30 14002 H 1286.53 -0.590459 1.73741 0
M  V30 14003 H 1284.91 -3.12304 2.43479 0
M  V30 14004 H 1286.09 -1.11593 4.47083 0
M  V30 14005 H 1284.4 -1.16116 3.99882 0
M  V30 14006 H 1287 -3.91892 3.63764 0
M  V30 14007 H 1287.34 -3.68253 1.94153 0
M  V30 14008 H 1287.88 -2.46281 3.12395 0
M  V30 14009 H 1284.62 -2.34963 6.11942 0
M  V30 14010 H 1284.14 -3.51235 4.86203 0
M  V30 14011 H 1285.81 -3.47836 5.45545 0
M  V30 14012 N 1285.95 -1.35615 -0.802897 0
M  V30 14013 C 1287.36 -1.15733 -1.099 0
M  V30 14014 C 1287.56 0.0277094 -2.01481 0
M  V30 14015 O 1286.62 0.697196 -2.42684 0
M  V30 14016 C 1287.93 -2.46201 -1.72643 0
M  V30 14017 C 1289.48 -2.52442 -1.85046 0
M  V30 14018 C 1289.96 -3.82962 -2.51205 0
M  V30 14019 N 1291.45 -3.84234 -2.58686 0
M  V30 14020 C 1292.18 -4.81956 -3.10654 0
M  V30 14021 N 1291.68 -5.90068 -3.63032 0
M  V30 14022 N 1293.47 -4.69389 -3.09241 0
M  V30 14023 H 1285.62 -2.11511 -0.194177 0
M  V30 14024 H 1287.88 -0.936259 -0.148739 0
M  V30 14025 H 1287.59 -3.33114 -1.12817 0
M  V30 14026 H 1287.46 -2.6102 -2.72302 0
M  V30 14027 H 1289.85 -1.65955 -2.44014 0
M  V30 14028 H 1289.93 -2.41534 -0.842316 0
M  V30 14029 H 1289.58 -4.69848 -1.92885 0
M  V30 14030 H 1289.51 -3.9116 -3.52564 0
M  V30 14031 H 1292 -3.0612 -2.21582 0
M  V30 14032 H 1292.31 -6.60623 -4.00996 0
M  V30 14033 H 1290.66 -5.93755 -3.6122 0
M  V30 14034 H 1293.85 -3.84066 -2.67602 0
M  V30 14035 H 1294.02 -5.4571 -3.49435 0
M  V30 14036 N 1287.43 1.02549 -1.19673 0
M  V30 14037 C 1288.37 2.109 -0.937536 0
M  V30 14038 C 1289.34 1.65599 0.128923 0
M  V30 14039 O 1290.53 1.90795 -0.0139366 0
M  V30 14040 C 1287.67 3.4166 -0.48602 0
M  V30 14041 C 1286.78 4.0049 -1.61963 0
M  V30 14042 C 1285.92 5.19273 -1.11931 0
M  V30 14043 C 1284.95 5.70166 -2.22659 0
M  V30 14044 N 1284.09 6.80221 -1.73909 0
M  V30 14045 H 1288.93 2.32408 -1.86523 0
M  V30 14046 H 1286.47 1.13982 -0.929869 0
M  V30 14047 H 1288.43 4.16693 -0.205614 0
M  V30 14048 H 1287.06 3.20253 0.404678 0
M  V30 14049 H 1286.11 3.22638 -2.01516 0
M  V30 14050 H 1287.42 4.34273 -2.45374 0
M  V30 14051 H 1286.57 6.01478 -0.794336 0
M  V30 14052 H 1285.31 4.87033 -0.254972 0
M  V30 14053 H 1284.32 4.86572 -2.55983 0
M  V30 14054 H 1285.54 6.04444 -3.09554 0
M  V30 14055 H 1283.49 6.49826 -0.897889 0
M  V30 14056 H 1283.41 7.13149 -2.50907 0
M  V30 14057 H 1284.67 7.66011 -1.44386 0
M  V30 14058 N 1288.9 1.00119 1.21713 0
M  V30 14059 C 1290.15 0.682733 1.90962 0
M  V30 14060 C 1290.48 -0.784131 1.77665 0
M  V30 14061 O 1289.76 -1.56799 1.15084 0
M  V30 14062 C 1290.04 1.09975 3.42896 0
M  V30 14063 C 1289.89 2.62578 3.65202 0
M  V30 14064 C 1291.21 0.659247 4.35134 0
M  V30 14065 H 1288.33 0.249501 0.693483 0
M  V30 14066 H 1290.97 1.24619 1.43423 0
M  V30 14067 H 1289.12 0.620334 3.83515 0
M  V30 14068 H 1290.8 3.18254 3.33934 0
M  V30 14069 H 1289.04 3.04268 3.09198 0
M  V30 14070 H 1289.71 2.86809 4.7164 0
M  V30 14071 H 1292.19 1.07116 4.02076 0
M  V30 14072 H 1291.06 0.979241 5.40095 0
M  V30 14073 H 1291.32 -0.439777 4.39907 0
M  V30 14074 N 1290.38 -1.37203 0.775435 0
M  V30 14075 C 1291.61 -2.03572 0.352416 0
M  V30 14076 C 1292.02 -1.58612 -1.03145 0
M  V30 14077 O 1291.36 -0.764478 -1.67037 0
M  V30 14078 C 1291.42 -3.58064 0.321026 0
M  V30 14079 C 1291.09 -4.2617 1.6501 0
M  V30 14080 C 1292.09 -4.50034 2.60318 0
M  V30 14081 C 1289.77 -4.63927 1.92555 0
M  V30 14082 C 1291.76 -5.10716 3.81376 0
M  V30 14083 C 1289.45 -5.24329 3.13883 0
M  V30 14084 C 1290.45 -5.47661 4.08113 0
M  V30 14085 O 1290.14 -6.068 5.27304 0
M  V30 14086 H 1289.87 -0.660231 0.145159 0
M  V30 14087 H 1292.42 -1.76446 1.05148 0
M  V30 14088 H 1290.65 -3.84252 -0.434439 0
M  V30 14089 H 1292.34 -4.0583 -0.0754241 0
M  V30 14090 H 1293.11 -4.21273 2.4032 0
M  V30 14091 H 1288.99 -4.45098 1.20036 0
M  V30 14092 H 1292.53 -5.28844 4.5494 0
M  V30 14093 H 1288.43 -5.52514 3.33765 0
M  V30 14094 H 1289.2 -6.25276 5.28179 0
M  V30 14095 N 1291.86 -0.526279 -1.48553 0
M  V30 14096 C 1292.81 0.251938 -2.31232 0
M  V30 14097 C 1293.8 0.938991 -1.40994 0
M  V30 14098 O 1295.01 0.863798 -1.57919 0
M  V30 14099 H 1291.38 0.100114 -0.745306 0
M  V30 14100 H 1293.35 -0.465013 -2.94754 0
M  V30 14101 C 1292.1 1.28816 -3.22958 0
M  V30 14102 H 1291.43 0.768899 -3.92337 0
M  V30 14103 H 1292.87 1.80417 -3.837 0
M  V30 14104 C 1291.32 2.31982 -2.44307 0
M  V30 14105 O 1291.85 3.3835 -2.16523 0
M  V30 14106 N 1290.06 2.051 -2.05869 0
M  V30 14107 H 1289.61 1.18618 -2.28665 0
M  V30 14108 H 1289.57 2.74349 -1.53557 0
M  V30 14109 N 1293.34 1.5542 -0.261239 0
M  V30 14110 C 1294.75 1.59327 0.0932655 0
M  V30 14111 C 1294.95 1.27846 1.55748 0
M  V30 14112 O 1294.01 1.03265 2.30418 0
M  V30 14113 C 1295.32 2.99496 -0.268856 0
M  V30 14114 C 1296.87 3.12265 -0.21433 0
M  V30 14115 C 1297.35 4.54677 -0.55069 0
M  V30 14116 N 1298.84 4.60475 -0.501723 0
M  V30 14117 C 1299.57 5.6867 -0.734961 0
M  V30 14118 N 1299.07 6.85069 -1.03209 0
M  V30 14119 N 1300.86 5.58156 -0.664696 0
M  V30 14120 H 1293.01 1.7415 -1.21595 0
M  V30 14121 H 1295.27 0.811382 -0.490268 0
M  V30 14122 H 1294.98 3.2732 -1.28664 0
M  V30 14123 H 1294.85 3.75104 0.397097 0
M  V30 14124 H 1297.24 2.84213 0.794148 0
M  V30 14125 H 1297.32 2.389 -0.914342 0
M  V30 14126 H 1296.97 4.83453 -1.55679 0
M  V30 14127 H 1296.9 5.26322 0.170959 0
M  V30 14128 H 1299.39 3.76851 -0.281387 0
M  V30 14129 H 1299.7 7.63472 -1.19709 0
M  V30 14130 H 1298.05 6.86718 -1.06971 0
M  V30 14131 H 1301.24 4.66098 -0.432513 0
M  V30 14132 H 1301.41 6.42403 -0.849857 0
M  V30 14133 N 1294.82 -0.0116844 1.57596 0
M  V30 14134 C 1295.73 -1.02342 2.111 0
M  V30 14135 C 1296.74 -1.38478 1.05355 0
M  V30 14136 O 1297.92 -1.47447 1.37191 0
M  V30 14137 C 1294.98 -2.30016 2.5941 0
M  V30 14138 C 1294.04 -2.003 3.79708 0
M  V30 14139 C 1293.28 -3.21888 4.25704 0
M  V30 14140 O 1293.5 -4.33171 3.71106 0
M  V30 14141 O 1292.43 -3.0657 5.17975 0
M  V30 14142 H 1296.26 -0.598637 2.97742 0
M  V30 14143 H 1293.84 -0.229779 1.47622 0
M  V30 14144 H 1295.73 -3.05044 2.90733 0
M  V30 14145 H 1294.4 -2.71755 1.75871 0
M  V30 14146 H 1293.31 -1.22785 3.53376 0
M  V30 14147 H 1294.64 -1.63406 4.64284 0
M  V30 14148 N 1296.29 -1.55015 -0.284256 0
M  V30 14149 C 1297.54 -1.74297 -1.01506 0
M  V30 14150 C 1297.86 -0.545134 -1.8785 0
M  V30 14151 O 1299.06 -0.620118 -2.64323 0
M  V30 14152 C 1297.52 -3.08438 -1.85456 0
M  V30 14153 C 1297.13 -4.35753 -1.04034 0
M  V30 14154 C 1298.87 -3.37073 -2.58035 0
M  V30 14155 C 1296.78 -5.60938 -1.87358 0
M  V30 14156 H 1295.71 -0.649656 -0.382705 0
M  V30 14157 H 1298.36 -1.81484 -0.271239 0
M  V30 14158 H 1296.74 -2.95259 -2.63891 0
M  V30 14159 H 1297.91 -4.59816 -0.300954 0
M  V30 14160 H 1296.23 -4.14178 -0.429616 0
M  V30 14161 H 1298.83 -4.27806 -3.20759 0
M  V30 14162 H 1299.17 -2.56698 -3.27738 0
M  V30 14163 H 1299.7 -3.51299 -1.86638 0
M  V30 14164 H 1296.44 -6.44029 -1.22096 0
M  V30 14165 H 1295.96 -5.41035 -2.58923 0
M  V30 14166 H 1297.64 -5.98819 -2.44999 0
M  V30 14167 N 1297.77 0.548248 -1.47757 0
M  V30 14168 C 1298.73 1.63666 -1.60456 0
M  V30 14169 C 1299.73 1.53499 -0.479028 0
M  V30 14170 O 1300.92 1.57497 -0.744342 0
M  V30 14171 C 1298.06 3.03239 -1.55754 0
M  V30 14172 H 1299.25 1.53752 -2.57488 0
M  V30 14173 H 1296.8 0.768881 -1.36081 0
M  V30 14174 H 1297.54 3.18677 -0.601303 0
M  V30 14175 H 1297.32 3.12027 -2.37448 0
M  V30 14176 H 1298.81 3.82406 -1.67797 0
M  V30 14177 N 1299.25 1.36039 0.795694 0
M  V30 14178 C 1300.18 1.24209 1.91435 0
M  V30 14179 C 1301.16 0.127593 1.62099 0
M  V30 14180 O 1302.34 0.297619 1.86136 0
M  V30 14181 C 1299.47 0.915006 3.26106 0
M  V30 14182 C 1298.52 2.04307 3.74381 0
M  V30 14183 S 1299.35 3.66016 3.90887 0
M  V30 14184 C 1300.51 3.35408 5.28443 0
M  V30 14185 H 1300.74 2.18895 2.01177 0
M  V30 14186 H 1298.27 1.21381 0.954251 0
M  V30 14187 H 1300.23 0.733104 4.03901 0
M  V30 14188 H 1298.89 -0.0139734 3.14097 0
M  V30 14189 H 1298.08 1.76863 4.71949 0
M  V30 14190 H 1297.69 2.18387 3.03617 0
M  V30 14191 H 1299.98 2.88912 6.1281 0
M  V30 14192 H 1300.92 4.32216 5.60887 0
M  V30 14193 H 1301.33 2.70909 4.95246 0
M  V30 14194 N 1300.73 -1.01913 1.20215 0
M  V30 14195 C 1301.68 -2.104 0.948708 0
M  V30 14196 C 1302.65 -1.65665 -0.120139 0
M  V30 14197 O 1303.83 -1.90785 0.0240547 0
M  V30 14198 C 1300.97 -3.41398 0.504132 0
M  V30 14199 C 1300.08 -3.99625 1.64085 0
M  V30 14200 C 1299.22 -5.18673 1.14683 0
M  V30 14201 C 1298.26 -5.68977 2.2568 0
M  V30 14202 N 1297.39 -6.79289 1.77514 0
M  V30 14203 H 1302.23 -2.31415 1.87753 0
M  V30 14204 H 1299.77 -1.13487 0.935901 0
M  V30 14205 H 1301.73 -4.16578 0.22771 0
M  V30 14206 H 1300.36 -3.20463 -0.387689 0
M  V30 14207 H 1299.41 -3.21565 2.03225 0
M  V30 14208 H 1300.72 -4.32965 2.47674 0
M  V30 14209 H 1299.88 -6.01048 0.826223 0
M  V30 14210 H 1298.62 -4.86891 0.280797 0
M  V30 14211 H 1297.62 -4.85208 2.5856 0
M  V30 14212 H 1298.85 -6.02794 3.12755 0
M  V30 14213 H 1296.79 -6.49341 0.932338 0
M  V30 14214 H 1296.71 -7.11808 2.54686 0
M  V30 14215 H 1297.98 -7.65235 1.48446 0
M  V30 14216 N 1302.21 -1.00763 -1.2118 0
M  V30 14217 C 1303.46 -0.687197 -1.89633 0
M  V30 14218 C 1303.77 0.78566 -1.79128 0
M  V30 14219 O 1304.97 1.21828 -2.42632 0
M  V30 14220 C 1303.43 -1.1787 -3.40051 0
M  V30 14221 C 1303.04 -2.67782 -3.59161 0
M  V30 14222 C 1304.78 -0.933277 -4.14114 0
M  V30 14223 C 1302.69 -3.10459 -5.03358 0
M  V30 14224 H 1301.62 -0.253342 -0.710165 0
M  V30 14225 H 1304.27 -1.21914 -1.37147 0
M  V30 14226 H 1302.65 -0.574791 -3.91806 0
M  V30 14227 H 1303.83 -3.33645 -3.17833 0
M  V30 14228 H 1302.14 -2.90368 -2.98455 0
M  V30 14229 H 1304.74 -1.22766 -5.20416 0
M  V30 14230 H 1305.08 0.130431 -4.16096 0
M  V30 14231 H 1305.61 -1.50011 -3.68431 0
M  V30 14232 H 1302.35 -4.16068 -5.06525 0
M  V30 14233 H 1301.87 -2.4931 -5.45531 0
M  V30 14234 H 1303.55 -3.02589 -5.71882 0
M  V30 14235 N 1303.68 1.3679 -0.7827 0
M  V30 14236 C 1304.91 2.04206 -0.362571 0
M  V30 14237 C 1305.33 1.58637 1.01074 0
M  V30 14238 O 1304.69 0.751692 1.64983 0
M  V30 14239 C 1304.74 3.58062 -0.4271 0
M  V30 14240 O 1303.84 4.08463 0.56845 0
M  V30 14241 H 1303.19 0.645638 -0.155073 0
M  V30 14242 H 1305.72 1.74883 -1.06194 0
M  V30 14243 H 1305.73 4.0698 -0.288298 0
M  V30 14244 H 1304.4 3.90582 -1.42893 0
M  V30 14245 H 1302.98 3.70835 0.391863 0
M  V30 14246 N 1305.16 0.53415 1.48272 0
M  V30 14247 C 1306.39 0.00368464 2.074 0
M  V30 14248 C 1306.81 -1.27003 1.38751 0
M  V30 14249 O 1306.17 -1.75502 0.454817 0
M  V30 14250 C 1306.22 -0.199034 3.6005 0
M  V30 14251 O 1305.32 -1.26679 3.92462 0
M  V30 14252 H 1304.66 0.0409936 0.662733 0
M  V30 14253 H 1307.19 0.743253 1.90622 0
M  V30 14254 H 1307.2 -0.420404 4.05828 0
M  V30 14255 H 1305.88 0.731391 4.09418 0
M  V30 14256 H 1304.46 -1.02775 3.58457 0
M  V30 14257 N 1306.64 -1.55279 0.269478 0
M  V30 14258 C 1307.92 -1.91458 -0.400412 0
M  V30 14259 C 1308.3 -1.19306 -1.74153 0
M  V30 14260 O 1307.65 -0.318017 -2.26276 0
M  V30 14261 C 1307.86 -3.44698 -0.546258 0
M  V30 14262 C 1309.2 -4.16374 -0.831758 0
M  V30 14263 O 1310.23 -3.50561 -0.631279 0
M  V30 14264 O 1309.09 -5.32826 -1.21484 0
M  V30 14265 H 1306.18 -0.79766 -0.218328 0
M  V30 14266 H 1308.73 -1.66747 0.315214 0
M  V30 14267 H 1307.5 -3.89273 0.397784 0
M  V30 14268 H 1307.12 -3.75345 -1.31157 0
M  V30 14269 N 1308.12 0.00332656 -1.576 0
M  V30 14270 C 1309.37 0.688044 -1.89602 0
M  V30 14271 C 1309.68 1.75121 -0.871316 0
M  V30 14272 O 1310.89 2.49032 -1.08144 0
M  V30 14273 C 1309.34 1.27494 -3.36561 0
M  V30 14274 C 1308.95 0.246771 -4.4732 0
M  V30 14275 C 1310.69 1.93804 -3.77677 0
M  V30 14276 C 1308.6 0.843471 -5.85354 0
M  V30 14277 H 1307.53 0.260747 -0.707479 0
M  V30 14278 H 1310.18 -0.0566727 -1.83412 0
M  V30 14279 H 1308.56 2.07022 -3.37577 0
M  V30 14280 H 1309.74 -0.523668 -4.57815 0
M  V30 14281 H 1308.05 -0.3157 -4.15202 0
M  V30 14282 H 1310.65 2.39347 -4.78139 0
M  V30 14283 H 1310.99 2.7672 -3.11017 0
M  V30 14284 H 1311.53 1.21015 -3.78946 0
M  V30 14285 H 1308.27 0.0531655 -6.55478 0
M  V30 14286 H 1307.79 1.58315 -5.7853 0
M  V30 14287 H 1309.46 1.34311 -6.32906 0
M  V30 14288 N 1309.6 1.55164 0.276031 0
M  V30 14289 C 1310.54 1.87836 1.34113 0
M  V30 14290 C 1311.51 0.729562 1.4922 0
M  V30 14291 O 1312.7 0.980549 1.63676 0
M  V30 14292 C 1309.84 2.15313 2.69693 0
M  V30 14293 C 1308.95 3.42845 2.62833 0
M  V30 14294 C 1308.09 3.60038 3.90572 0
M  V30 14295 C 1307.13 4.81273 3.7821 0
M  V30 14296 N 1306.26 4.95139 4.97777 0
M  V30 14297 H 1311.1 2.78681 1.0555 0
M  V30 14298 H 1308.64 1.37976 0.510001 0
M  V30 14299 H 1310.6 2.29243 3.48573 0
M  V30 14300 H 1309.23 1.27706 2.96464 0
M  V30 14301 H 1308.28 3.37403 1.75679 0
M  V30 14302 H 1309.59 4.3186 2.49597 0
M  V30 14303 H 1308.75 3.73769 4.77893 0
M  V30 14304 H 1307.48 2.69203 4.06671 0
M  V30 14305 H 1306.49 4.67549 2.89271 0
M  V30 14306 H 1307.71 5.7354 3.63632 0
M  V30 14307 H 1305.66 4.07234 5.14292 0
M  V30 14308 H 1305.58 5.78194 4.8706 0
M  V30 14309 H 1306.85 5.13253 5.86679 0
M  V30 14310 N 1311.07 -0.540404 1.48045 0
M  V30 14311 C 1312.3 -1.32656 1.59427 0
M  V30 14312 C 1312.72 -1.86419 0.250924 0
M  V30 14313 O 1312.08 -1.63861 -0.775838 0
M  V30 14314 C 1312.13 -2.46062 2.63602 0
M  V30 14315 O 1311.23 -3.48794 2.20038 0
M  V30 14316 H 1310.58 -0.393334 0.534962 0
M  V30 14317 H 1313.11 -0.651363 1.93955 0
M  V30 14318 H 1313.12 -2.92396 2.84549 0
M  V30 14319 H 1311.79 -2.06291 3.61133 0
M  V30 14320 H 1310.37 -3.0865 2.0926 0
M  V30 14321 N 1312.55 -1.36459 -0.788468 0
M  V30 14322 C 1313.48 -1.26727 -1.90979 0
M  V30 14323 C 1314.5 -0.186572 -1.61727 0
M  V30 14324 O 1315.69 -0.441364 -1.72957 0
M  V30 14325 C 1312.79 -0.932838 -3.25809 0
M  V30 14326 C 1311.96 -2.11562 -3.82832 0
M  V30 14327 C 1311.02 -1.75409 -4.96103 0
M  V30 14328 O 1310.04 -2.47508 -5.1257 0
M  V30 14329 N 1311.25 -0.688327 -5.76405 0
M  V30 14330 H 1314.01 -2.2334 -1.99848 0
M  V30 14331 H 1311.57 -1.29865 -0.966784 0
M  V30 14332 H 1313.56 -0.672131 -3.9908 0
M  V30 14333 H 1312.13 -0.0558103 -3.1255 0
M  V30 14334 H 1311.35 -2.53907 -3.01538 0
M  V30 14335 H 1312.64 -2.9058 -4.17661 0
M  V30 14336 H 1312.04 -0.0896854 -5.65629 0
M  V30 14337 H 1310.6 -0.487446 -6.49975 0
M  V30 14338 N 1314.03 1.01274 -1.20754 0
M  V30 14339 C 1314.98 2.12012 -0.95675 0
M  V30 14340 C 1315.97 1.69143 0.0932738 0
M  V30 14341 O 1317.18 1.79908 -0.0574298 0
M  V30 14342 H 1313.55 0.692956 -0.292088 0
M  V30 14343 H 1315.52 2.30347 -1.89692 0
M  V30 14344 C 1314.27 3.43643 -0.529602 0
M  V30 14345 H 1313.6 3.77058 -1.32918 0
M  V30 14346 H 1315.04 4.22171 -0.393376 0
M  V30 14347 C 1313.5 3.2825 0.758505 0
M  V30 14348 O 1314.03 3.58309 1.81598 0
M  V30 14349 N 1312.23 2.81487 0.722022 0
M  V30 14350 H 1311.78 2.57226 -0.138807 0
M  V30 14351 H 1311.74 2.7157 1.58421 0
M  V30 14352 N 1315.51 1.01404 1.20644 0
M  V30 14353 C 1316.93 0.728446 1.42006 0
M  V30 14354 C 1317.13 -0.692894 1.89212 0
M  V30 14355 O 1316.18 -1.46101 2.05939 0
M  V30 14356 C 1317.49 1.75198 2.44389 0
M  V30 14357 C 1319.04 1.76983 2.58159 0
M  V30 14358 C 1319.52 2.78256 3.63782 0
M  V30 14359 N 1321.01 2.7698 3.71263 0
M  V30 14360 C 1321.74 3.51999 4.52641 0
M  V30 14361 N 1321.24 4.36687 5.37844 0
M  V30 14362 N 1323.03 3.40608 4.47149 0
M  V30 14363 H 1315.18 1.93168 0.883172 0
M  V30 14364 H 1317.45 0.834287 0.450187 0
M  V30 14365 H 1317.15 2.77013 2.16695 0
M  V30 14366 H 1317.03 1.56203 3.43337 0
M  V30 14367 H 1319.41 0.758551 2.85184 0
M  V30 14368 H 1319.49 2.00051 1.59415 0
M  V30 14369 H 1319.14 3.79546 3.37501 0
M  V30 14370 H 1319.07 2.5245 4.62143 0
M  V30 14371 H 1321.56 2.15546 3.104 0
M  V30 14372 H 1321.87 4.90703 5.97018 0
M  V30 14373 H 1320.22 4.40766 5.37355 0
M  V30 14374 H 1323.41 2.73872 3.79621 0
M  V30 14375 H 1323.58 3.99327 5.10335 0
M  V30 14376 N 1316.99 -1.36373 0.789944 0
M  V30 14377 C 1318.23 -1.99227 0.362582 0
M  V30 14378 C 1318.56 -1.62694 -1.06587 0
M  V30 14379 O 1317.82 -0.873748 -1.75112 0
M  V30 14380 C 1318.12 -3.54243 0.474025 0
M  V30 14381 C 1317.78 -4.10597 1.86336 0
M  V30 14382 C 1316.44 -4.257 2.24349 0
M  V30 14383 C 1318.8 -4.41306 2.77306 0
M  V30 14384 C 1316.12 -4.68824 3.52734 0
M  V30 14385 C 1318.48 -4.85861 4.05119 0
M  V30 14386 C 1317.14 -4.9917 4.43154 0
M  V30 14387 H 1316.41 -0.729025 0.132678 0
M  V30 14388 H 1319.06 -1.62854 1.00751 0
M  V30 14389 H 1317.36 -3.90973 -0.254399 0
M  V30 14390 H 1319.06 -4.00807 0.124384 0
M  V30 14391 H 1315.65 -3.99281 1.55797 0
M  V30 14392 H 1319.83 -4.29205 2.49191 0
M  V30 14393 H 1315.09 -4.77315 3.82073 0
M  V30 14394 H 1319.26 -5.08587 4.75723 0
M  V30 14395 H 1316.89 -5.32344 5.42692 0
M  V30 14396 N 1318.47 -0.542005 -1.47987 0
M  V30 14397 C 1319.7 -0.0166928 -2.06593 0
M  V30 14398 C 1320.1 1.27564 -1.39728 0
M  V30 14399 O 1319.45 1.77245 -0.48268 0
M  V30 14400 C 1319.51 0.265501 -3.58518 0
M  V30 14401 C 1319.17 -0.935133 -4.4733 0
M  V30 14402 C 1320.17 -1.83673 -4.86375 0
M  V30 14403 C 1317.85 -1.14552 -4.89063 0
M  V30 14404 C 1319.85 -2.93252 -5.65935 0
M  V30 14405 C 1317.54 -2.24443 -5.68391 0
M  V30 14406 C 1318.53 -3.13625 -6.06736 0
M  V30 14407 O 1318.22 -4.21613 -6.84469 0
M  V30 14408 H 1317.95 -0.0358651 -0.675048 0
M  V30 14409 H 1320.51 -0.750565 -1.91195 0
M  V30 14410 H 1318.74 1.0535 -3.72073 0
M  V30 14411 H 1320.43 0.734348 -3.99202 0
M  V30 14412 H 1321.19 -1.68618 -4.54745 0
M  V30 14413 H 1317.07 -0.460598 -4.58693 0
M  V30 14414 H 1320.62 -3.62888 -5.95783 0
M  V30 14415 H 1316.51 -2.39477 -5.99434 0
M  V30 14416 H 1317.28 -4.19472 -7.02841 0
M  V30 14417 N 1319.94 1.55134 -0.277709 0
M  V30 14418 C 1321.17 2.04061 0.341601 0
M  V30 14419 C 1321.59 1.15597 1.49274 0
M  V30 14420 O 1320.94 0.176625 1.81643 0
M  V30 14421 C 1320.99 3.52074 0.820139 0
M  V30 14422 O 1320.72 4.37171 -0.28516 0
M  V30 14423 C 1322.22 4.16899 1.507 0
M  V30 14424 H 1319.44 0.666501 0.0775708 0
M  V30 14425 H 1321.98 2.00336 -0.410559 0
M  V30 14426 H 1320.14 3.56233 1.52238 0
M  V30 14427 H 1320.55 5.24434 0.0832022 0
M  V30 14428 H 1322.02 5.22061 1.79323 0
M  V30 14429 H 1322.5 3.65227 2.43939 0
M  V30 14430 H 1323.11 4.16749 0.848541 0
M  V30 14431 N 1321.42 0.00503138 1.57599 0
M  V30 14432 C 1322.7 -0.716079 1.82021 0
M  V30 14433 C 1323.08 -1.91707 0.883829 0
M  V30 14434 O 1322.43 -2.28404 -0.0662812 0
M  V30 14435 C 1322.64 -1.11706 3.3064 0
M  V30 14436 C 1323.98 -1.51881 3.96506 0
M  V30 14437 O 1325.01 -1.21071 3.34993 0
M  V30 14438 O 1323.87 -2.09191 5.04877 0
M  V30 14439 H 1320.96 -0.349112 0.7497 0
M  V30 14440 H 1323.51 0.030871 1.69672 0
M  V30 14441 H 1322.28 -0.261223 3.90427 0
M  V30 14442 H 1321.9 -1.92295 3.48006 0
M  V30 14443 N 1322.9 -1.55308 -0.267798 0
M  V30 14444 C 1323.83 -1.91555 -1.33525 0
M  V30 14445 C 1324.81 -0.778001 -1.51265 0
M  V30 14446 O 1326 -1.03657 -1.64222 0
M  V30 14447 C 1323.13 -2.19201 -2.69385 0
M  V30 14448 C 1322.08 -3.3501 -2.66369 0
M  V30 14449 C 1321.41 -3.48148 -4.05829 0
M  V30 14450 C 1322.71 -4.71265 -2.25182 0
M  V30 14451 H 1324.4 -2.80965 -1.03437 0
M  V30 14452 H 1321.95 -1.35183 -0.496141 0
M  V30 14453 H 1323.9 -2.43146 -3.44177 0
M  V30 14454 H 1322.62 -1.26596 -3.01067 0
M  V30 14455 H 1321.28 -3.11041 -1.94034 0
M  V30 14456 H 1320.93 -2.53 -4.34741 0
M  V30 14457 H 1320.63 -4.26014 -4.04704 0
M  V30 14458 H 1322.15 -3.74391 -4.82352 0
M  V30 14459 H 1323.57 -4.94719 -2.89699 0
M  V30 14460 H 1321.96 -5.52084 -2.3521 0
M  V30 14461 H 1323.03 -4.69735 -1.20319 0
M  V30 14462 N 1324.38 0.532545 -1.4833 0
M  V30 14463 C 1325.33 1.65832 -1.63103 0
M  V30 14464 C 1326.32 1.61929 -0.497538 0
M  V30 14465 O 1327.53 1.66817 -0.676176 0
M  V30 14466 H 1323.9 0.549152 -0.513748 0
M  V30 14467 H 1325.87 1.50515 -2.57658 0
M  V30 14468 C 1324.62 3.04113 -1.68555 0
M  V30 14469 H 1323.94 3.07809 -2.55135 0
M  V30 14470 H 1325.38 3.82506 -1.82936 0
M  V30 14471 C 1323.84 3.34225 -0.423711 0
M  V30 14472 O 1324.37 3.99005 0.464523 0
M  V30 14473 N 1322.58 2.89087 -0.296192 0
M  V30 14474 H 1322.13 2.36547 -1.01997 0
M  V30 14475 H 1322.08 3.09604 0.547082 0
M  V30 14476 N 1325.86 1.36875 0.78122 0
M  V30 14477 C 1327.1 1.31299 1.53639 0
M  V30 14478 C 1327.42 -0.104942 1.94717 0
M  V30 14479 O 1326.69 -1.04696 1.65576 0
M  V30 14480 H 1325.27 0.483032 0.569815 0
M  V30 14481 H 1327.94 1.71261 0.930359 0
M  V30 14482 H 1327.03 1.94581 2.44018 0
M  V30 14483 N 1327.33 -1.00632 1.21289 0
M  V30 14484 C 1328.56 -1.77709 1.05371 0
M  V30 14485 C 1328.97 -1.84933 -0.39956 0
M  V30 14486 O 1328.31 -1.30881 -1.28903 0
M  V30 14487 C 1328.38 -3.23206 1.5741 0
M  V30 14488 C 1328.04 -3.39563 3.05852 0
M  V30 14489 C 1329.04 -3.27952 4.03415 0
M  V30 14490 C 1326.72 -3.65048 3.4503 0
M  V30 14491 C 1328.72 -3.41587 5.38142 0
M  V30 14492 C 1326.4 -3.78325 4.7991 0
M  V30 14493 C 1327.4 -3.66601 5.76275 0
M  V30 14494 O 1327.09 -3.79458 7.08708 0
M  V30 14495 H 1326.82 -0.565369 0.370585 0
M  V30 14496 H 1329.38 -1.27483 1.6105 0
M  V30 14497 H 1327.61 -3.74562 0.96126 0
M  V30 14498 H 1329.29 -3.81953 1.37356 0
M  V30 14499 H 1330.06 -3.0819 3.74492 0
M  V30 14500 H 1325.94 -3.73256 2.70557 0
M  V30 14501 H 1329.48 -3.32353 6.13341 0
M  V30 14502 H 1325.38 -3.97591 5.08519 0
M  V30 14503 H 1326.15 -3.96413 7.161 0
M  V30 14504 N 1328.81 -1.02043 -1.20104 0
M  V30 14505 C 1329.74 -0.552093 -2.22451 0
M  V30 14506 C 1330.76 0.367547 -1.58597 0
M  V30 14507 O 1331.95 0.165285 -1.77733 0
M  V30 14508 C 1329.05 0.215833 -3.38212 0
M  V30 14509 C 1328.22 -0.70666 -4.31654 0
M  V30 14510 C 1327.28 0.0143628 -5.26198 0
M  V30 14511 O 1326.3 -0.609413 -5.65928 0
M  V30 14512 N 1327.51 1.28794 -5.66032 0
M  V30 14513 H 1330.27 -1.43229 -2.6326 0
M  V30 14514 H 1327.83 -0.89842 -1.34685 0
M  V30 14515 H 1329.82 0.707523 -3.98467 0
M  V30 14516 H 1328.39 0.997358 -2.96263 0
M  V30 14517 H 1327.61 -1.37859 -3.69308 0
M  V30 14518 H 1328.9 -1.33392 -4.91003 0
M  V30 14519 H 1328.3 1.8156 -5.35773 0
M  V30 14520 H 1326.86 1.72429 -6.28579 0
M  V30 14521 N 1330.29 1.35952 -0.797165 0
M  V30 14522 C 1331.54 1.98283 -0.369685 0
M  V30 14523 C 1331.85 1.63968 1.06649 0
M  V30 14524 O 1333.06 2.19591 1.59662 0
M  V30 14525 C 1331.51 3.54692 -0.610046 0
M  V30 14526 C 1331.12 3.97925 -2.05814 0
M  V30 14527 C 1332.87 4.23778 -0.247457 0
M  V30 14528 C 1330.77 5.47142 -2.24475 0
M  V30 14529 H 1329.7 0.741909 -0.134489 0
M  V30 14530 H 1332.35 1.55146 -0.979893 0
M  V30 14531 H 1330.74 3.95938 0.0699822 0
M  V30 14532 H 1331.91 3.67857 -2.77521 0
M  V30 14533 H 1330.23 3.417 -2.37971 0
M  V30 14534 H 1332.82 5.33452 -0.365059 0
M  V30 14535 H 1333.17 4.08436 0.805315 0
M  V30 14536 H 1333.7 3.87921 -0.881028 0
M  V30 14537 H 1330.44 5.67441 -3.28163 0
M  V30 14538 H 1329.96 5.78811 -1.57282 0
M  V30 14539 H 1331.64 6.13475 -2.05567 0
M  V30 14540 N 1331.77 0.549846 1.47697 0
M  V30 14541 C 1332.7 -0.239345 2.27947 0
M  V30 14542 C 1333.71 -0.886206 1.36566 0
M  V30 14543 O 1334.9 -0.761298 1.61451 0
M  V30 14544 C 1332 -1.35591 3.10593 0
M  V30 14545 C 1331.18 -0.807234 4.29887 0
M  V30 14546 C 1330.23 -1.80738 4.94187 0
M  V30 14547 O 1329.26 -1.35641 5.52802 0
M  V30 14548 N 1330.46 -3.14046 4.88216 0
M  V30 14549 H 1333.23 0.449001 2.96318 0
M  V30 14550 H 1330.79 0.385443 1.57245 0
M  V30 14551 H 1332.78 -2.02356 3.50477 0
M  V30 14552 H 1331.35 -1.94761 2.44514 0
M  V30 14553 H 1330.57 0.0369877 3.94183 0
M  V30 14554 H 1331.86 -0.419877 5.07065 0
M  V30 14555 H 1331.26 -3.53335 4.41781 0
M  V30 14556 H 1329.81 -3.7639 5.32141 0
M  V30 14557 N 1333.25 -1.54984 0.285932 0
M  V30 14558 C 1334.66 -1.85519 -0.209707 0
M  V30 14559 C 1335.01 -1.20794 -1.54606 0
M  V30 14560 O 1334.13 -0.500159 -2.10541 0
M  V30 14561 C 1334.73 -3.36579 -0.387283 0
M  V30 14562 C 1333.29 -3.67199 -0.827148 0
M  V30 14563 C 1332.43 -2.77203 0.073308 0
M  V30 14564 H 1335.39 -1.5037 0.507404 0
M  V30 14565 H 1335.41 -3.60269 -1.2242 0
M  V30 14566 H 1334.92 -3.83658 0.585493 0
M  V30 14567 H 1333.02 -3.25627 -1.81101 0
M  V30 14568 H 1333.13 -4.74574 -0.656976 0
M  V30 14569 H 1331.5 -2.50785 -0.444859 0
M  V30 14570 H 1332.28 -3.27099 1.04216 0
M  V30 14571 N 1334.72 -0.0133892 -1.57594 0
M  V30 14572 C 1336.14 0.342848 -1.55874 0
M  V30 14573 C 1336.34 1.73928 -1.01742 0
M  V30 14574 O 1335.4 2.43798 -0.657158 0
M  V30 14575 C 1336.71 0.205831 -2.99995 0
M  V30 14576 C 1338.26 0.279774 -3.11747 0
M  V30 14577 C 1338.73 0.171729 -4.57678 0
M  V30 14578 N 1340.22 0.22921 -4.62633 0
M  V30 14579 C 1340.96 0.169153 -5.7315 0
M  V30 14580 N 1340.45 0.0589166 -6.92775 0
M  V30 14581 N 1342.25 0.221995 -5.61661 0
M  V30 14582 H 1334.4 -0.926727 -1.91117 0
M  V30 14583 H 1336.66 -0.356466 -0.878428 0
M  V30 14584 H 1336.37 -0.755482 -3.4349 0
M  V30 14585 H 1336.24 0.982476 -3.6418 0
M  V30 14586 H 1338.63 1.23154 -2.68174 0
M  V30 14587 H 1338.71 -0.526974 -2.50313 0
M  V30 14588 H 1338.35 -0.776547 -5.01928 0
M  V30 14589 H 1338.28 0.997138 -5.17073 0
M  V30 14590 H 1340.77 0.315196 -3.76583 0
M  V30 14591 H 1341.09 0.0193526 -7.72798 0
M  V30 14592 H 1339.43 0.0243543 -6.94996 0
M  V30 14593 H 1342.62 0.306406 -4.67096 0
M  V30 14594 H 1342.8 0.171727 -6.47772 0
M  V30 14595 N 1336.2 1.55448 0.259558 0
M  V30 14596 C 1337.14 1.84197 1.3471 0
M  V30 14597 C 1338.11 0.69603 1.4695 0
M  V30 14598 O 1339.3 0.940458 1.63364 0
M  V30 14599 C 1336.42 2.01549 2.72205 0
M  V30 14600 C 1335.47 3.2415 2.77181 0
M  V30 14601 S 1336.3 4.81149 2.35066 0
M  V30 14602 C 1337.46 5.0149 3.74511 0
M  V30 14603 H 1337.69 2.76153 1.10122 0
M  V30 14604 H 1335.23 1.47392 0.459893 0
M  V30 14605 H 1337.18 2.12231 3.51381 0
M  V30 14606 H 1335.84 1.10458 2.94037 0
M  V30 14607 H 1335.04 3.33219 3.78129 0
M  V30 14608 H 1334.64 3.12128 2.06038 0
M  V30 14609 H 1336.93 4.88057 4.69901 0
M  V30 14610 H 1337.87 6.03507 3.70385 0
M  V30 14611 H 1338.28 4.294 3.66437 0
M  V30 14612 N 1337.68 -0.524672 1.4861 0
M  V30 14613 C 1338.91 -1.30482 1.60568 0
M  V30 14614 C 1339.32 -1.86889 0.267952 0
M  V30 14615 O 1338.68 -1.66669 -0.743488 0
M  V30 14616 C 1338.73 -2.45191 2.65638 0
M  V30 14617 O 1338.45 -1.91107 3.9422 0
M  V30 14618 C 1339.95 -3.36931 2.88084 0
M  V30 14619 H 1337.17 -0.396612 0.541239 0
M  V30 14620 H 1339.72 -0.632392 1.94476 0
M  V30 14621 H 1337.87 -3.08308 2.34574 0
M  V30 14622 H 1338.29 -2.66234 4.51907 0
M  V30 14623 H 1339.76 -4.13755 3.65391 0
M  V30 14624 H 1340.24 -3.92487 1.97106 0
M  V30 14625 H 1340.84 -2.79601 3.20473 0
M  V30 14626 N 1339.16 -1.37287 -0.77395 0
M  V30 14627 C 1340.09 -1.35569 -1.90114 0
M  V30 14628 C 1341.07 -0.224658 -1.6861 0
M  V30 14629 O 1342.25 -0.424676 -1.895 0
M  V30 14630 C 1339.38 -1.15971 -3.27365 0
M  V30 14631 C 1338.34 -2.26063 -3.63427 0
M  V30 14632 C 1337.66 -1.9159 -4.99197 0
M  V30 14633 C 1338.96 -3.68236 -3.70405 0
M  V30 14634 H 1340.66 -2.29891 -1.91808 0
M  V30 14635 H 1338.2 -1.10661 -0.92142 0
M  V30 14636 H 1340.16 -1.134 -4.05855 0
M  V30 14637 H 1338.88 -0.181043 -3.26098 0
M  V30 14638 H 1337.54 -2.27786 -2.87244 0
M  V30 14639 H 1337.19 -0.922586 -4.94467 0
M  V30 14640 H 1336.89 -2.65309 -5.24294 0
M  V30 14641 H 1338.41 -1.90602 -5.80089 0
M  V30 14642 H 1339.83 -3.68655 -4.39052 0
M  V30 14643 H 1338.22 -4.4099 -4.06999 0
M  V30 14644 H 1339.29 -4.02021 -2.71122 0
M  V30 14645 N 1340.64 0.999871 -1.21821 0
M  V30 14646 C 1341.86 1.7794 -1.06546 0
M  V30 14647 C 1342.29 1.84219 0.380115 0
M  V30 14648 O 1341.64 1.28955 1.27438 0
M  V30 14649 C 1341.69 3.1943 -1.67322 0
M  V30 14650 O 1340.8 4.01957 -0.922171 0
M  V30 14651 H 1340.14 0.548204 -0.374658 0
M  V30 14652 H 1342.67 1.2565 -1.61472 0
M  V30 14653 H 1342.68 3.70086 -1.71757 0
M  V30 14654 H 1341.35 3.14175 -2.7252 0
M  V30 14655 H 1339.93 3.60509 -0.95331 0
M  V30 14656 N 1342.11 1.02678 1.19562 0
M  V30 14657 C 1343.06 0.605764 2.22709 0
M  V30 14658 C 1344.03 -0.37936 1.6171 0
M  V30 14659 O 1345.22 -0.276496 1.88786 0
M  V30 14660 C 1342.36 -0.0394312 3.45077 0
M  V30 14661 C 1341.47 0.991481 4.20468 0
M  V30 14662 C 1340.6 0.316269 5.30258 0
M  V30 14663 C 1339.64 1.33324 5.97404 0
M  V30 14664 N 1338.78 0.683979 6.9876 0
M  V30 14665 H 1343.62 1.48994 2.58079 0
M  V30 14666 H 1341.16 0.745636 1.26802 0
M  V30 14667 H 1343.12 -0.430726 4.14971 0
M  V30 14668 H 1341.75 -0.887193 3.10369 0
M  V30 14669 H 1340.8 1.50085 3.49541 0
M  V30 14670 H 1342.11 1.76449 4.66548 0
M  V30 14671 H 1341.26 -0.129983 6.06561 0
M  V30 14672 H 1340 -0.488956 4.85243 0
M  V30 14673 H 1339.01 1.78977 5.19853 0
M  V30 14674 H 1340.23 2.13992 6.44503 0
M  V30 14675 H 1338.18 -0.101192 6.55922 0
M  V30 14676 H 1338.1 1.3949 7.4302 0
M  V30 14677 H 1339.36 0.261658 7.79061 0
M  V30 14678 N 1343.59 -1.35528 0.804364 0
M  V30 14679 C 1344.52 -2.32388 0.227604 0
M  V30 14680 C 1345.5 -1.57368 -0.645709 0
M  V30 14681 O 1346.69 -1.85448 -0.576441 0
M  V30 14682 C 1343.82 -3.41603 -0.62645 0
M  V30 14683 C 1342.77 -4.27743 0.148187 0
M  V30 14684 C 1342.1 -5.28259 -0.827425 0
M  V30 14685 C 1343.4 -5.04661 1.34591 0
M  V30 14686 H 1345.09 -2.80874 1.03684 0
M  V30 14687 H 1342.64 -1.3504 0.500031 0
M  V30 14688 H 1344.59 -4.08365 -1.03999 0
M  V30 14689 H 1343.32 -2.91721 -1.46855 0
M  V30 14690 H 1341.97 -3.62558 0.542874 0
M  V30 14691 H 1341.62 -4.74645 -1.66496 0
M  V30 14692 H 1341.32 -5.86763 -0.313453 0
M  V30 14693 H 1342.85 -5.97893 -1.23921 0
M  V30 14694 H 1344.26 -5.6438 1.00736 0
M  V30 14695 H 1342.66 -5.7265 1.79422 0
M  V30 14696 H 1343.73 -4.35432 2.1337 0
M  V30 14697 N 1345.07 -0.557671 -1.47404 0
M  V30 14698 C 1346.48 -0.124411 -1.86285 0
M  V30 14699 C 1346.83 1.30593 -1.46424 0
M  V30 14700 O 1345.96 1.9825 -0.867515 0
M  V30 14701 C 1346.55 -0.219005 -3.38091 0
M  V30 14702 C 1345.11 0.159221 -3.76063 0
M  V30 14703 C 1344.26 -0.566355 -2.71455 0
M  V30 14704 H 1347.21 -0.767367 -1.38914 0
M  V30 14705 H 1347.23 0.562267 -3.76323 0
M  V30 14706 H 1346.74 -1.26013 -3.67073 0
M  V30 14707 H 1344.84 1.20144 -3.52698 0
M  V30 14708 H 1344.96 -0.199662 -4.78684 0
M  V30 14709 H 1343.32 -0.00938921 -2.54698 0
M  V30 14710 H 1344.1 -1.60865 -3.03278 0
M  V30 14711 N 1346.55 1.54831 -0.294147 0
M  V30 14712 C 1347.48 2.26226 0.57827 0
M  V30 14713 C 1348.46 1.25928 1.14351 0
M  V30 14714 O 1349.65 1.54687 1.17412 0
M  V30 14715 C 1346.78 2.99783 1.75349 0
M  V30 14716 C 1345.73 4.07171 1.31892 0
M  V30 14717 C 1345.06 4.68406 2.57876 0
M  V30 14718 C 1346.36 5.20313 0.455167 0
M  V30 14719 H 1348.05 2.99395 -0.0171936 0
M  V30 14720 H 1345.6 1.43997 -0.00970944 0
M  V30 14721 H 1347.55 3.48448 2.36986 0
M  V30 14722 H 1346.27 2.24181 2.37509 0
M  V30 14723 H 1344.93 3.59346 0.725653 0
M  V30 14724 H 1344.58 3.89451 3.18335 0
M  V30 14725 H 1344.28 5.40927 2.29502 0
M  V30 14726 H 1345.8 5.1983 3.20327 0
M  V30 14727 H 1347.22 5.64913 0.977026 0
M  V30 14728 H 1345.61 5.99512 0.265501 0
M  V30 14729 H 1346.68 4.82088 -0.521434 0
M  V30 14730 N 1348.03 0.0217466 1.57585 0
M  V30 14731 C 1348.96 -0.99116 2.06661 0
M  V30 14732 C 1349.97 -1.29346 0.988604 0
M  V30 14733 O 1351.16 -1.25941 1.26496 0
M  V30 14734 C 1348.26 -2.32047 2.46997 0
M  V30 14735 C 1347.43 -2.20441 3.77789 0
M  V30 14736 C 1346.49 -3.36243 4.04755 0
M  V30 14737 O 1345.52 -3.13458 4.75114 0
M  V30 14738 N 1346.72 -4.598 3.54351 0
M  V30 14739 H 1349.49 -0.572486 2.94181 0
M  V30 14740 H 1347.05 -0.165175 1.61055 0
M  V30 14741 H 1349.04 -3.0833 2.62135 0
M  V30 14742 H 1347.61 -2.65581 1.64881 0
M  V30 14743 H 1346.83 -1.28931 3.72519 0
M  V30 14744 H 1348.12 -2.09882 4.63494 0
M  V30 14745 H 1347.52 -4.81207 2.97416 0
M  V30 14746 H 1346.07 -5.33276 3.7478 0
M  V30 14747 N 1349.51 -1.55583 -0.251311 0
M  V30 14748 C 1350.47 -1.89148 -1.29443 0
M  V30 14749 C 1351.47 -0.7676 -1.41296 0
M  V30 14750 O 1352.66 -1.03563 -1.40073 0
M  V30 14751 C 1349.79 -2.11601 -2.67279 0
M  V30 14752 H 1350.98 -2.82416 -1.00901 0
M  V30 14753 H 1348.54 -1.48407 -0.490398 0
M  V30 14754 H 1349.27 -1.20787 -3.00967 0
M  V30 14755 H 1349.06 -2.93449 -2.60058 0
M  V30 14756 H 1350.55 -2.38768 -3.42607 0
M  V30 14757 N 1350.98 0.516783 -1.48886 0
M  V30 14758 C 1351.93 1.64093 -1.64853 0
M  V30 14759 C 1352.93 1.61392 -0.514685 0
M  V30 14760 O 1354.13 1.6609 -0.693831 0
M  V30 14761 H 1350.51 0.543672 -0.519543 0
M  V30 14762 H 1352.48 1.47774 -2.5924 0
M  V30 14763 C 1351.23 3.02308 -1.71771 0
M  V30 14764 H 1350.55 3.05085 -2.58385 0
M  V30 14765 H 1351.99 3.80544 -1.86982 0
M  V30 14766 C 1350.45 3.33757 -0.459136 0
M  V30 14767 O 1350.98 3.99475 0.422177 0
M  V30 14768 N 1349.18 2.88756 -0.326837 0
M  V30 14769 H 1348.73 2.35452 -1.045 0
M  V30 14770 H 1348.69 3.10166 0.514213 0
M  V30 14771 N 1352.46 1.37696 0.766659 0
M  V30 14772 C 1353.71 1.33382 1.52765 0
M  V30 14773 C 1354.04 -0.0800569 1.94035 0
M  V30 14774 O 1353.32 -1.03848 1.64456 0
M  V30 14775 C 1353.6 2.2776 2.78922 0
M  V30 14776 C 1353.45 3.77949 2.43874 0
M  V30 14777 C 1354.77 2.20494 3.80881 0
M  V30 14778 H 1351.89 0.485836 0.554195 0
M  V30 14779 H 1354.53 1.68438 0.879119 0
M  V30 14780 H 1352.68 1.97994 3.34261 0
M  V30 14781 H 1354.35 4.18333 1.9441 0
M  V30 14782 H 1352.6 3.96269 1.76503 0
M  V30 14783 H 1353.27 4.39428 3.34077 0
M  V30 14784 H 1355.74 2.46742 3.35048 0
M  V30 14785 H 1354.62 2.88663 4.66867 0
M  V30 14786 H 1354.88 1.19951 4.25516 0
M  V30 14787 N 1353.94 -0.993397 1.22349 0
M  V30 14788 C 1355.17 -1.76581 1.0725 0
M  V30 14789 C 1355.58 -1.85346 -0.379923 0
M  V30 14790 O 1354.92 -1.3224 -1.27508 0
M  V30 14791 C 1354.98 -3.21519 1.60829 0
M  V30 14792 C 1354.65 -3.363 3.09437 0
M  V30 14793 C 1355.64 -3.23655 4.0687 0
M  V30 14794 C 1353.33 -3.61368 3.48882 0
M  V30 14795 C 1355.32 -3.3586 5.41735 0
M  V30 14796 C 1353.01 -3.73214 4.83895 0
M  V30 14797 C 1354.01 -3.60468 5.80131 0
M  V30 14798 O 1353.7 -3.7192 7.12693 0
M  V30 14799 H 1353.43 -0.561407 0.376561 0
M  V30 14800 H 1355.98 -1.25768 1.62393 0
M  V30 14801 H 1354.21 -3.73521 1.00093 0
M  V30 14802 H 1355.9 -3.80475 1.41399 0
M  V30 14803 H 1356.67 -3.04201 3.77739 0
M  V30 14804 H 1352.55 -3.70365 2.74501 0
M  V30 14805 H 1356.09 -3.25829 6.16832 0
M  V30 14806 H 1351.99 -3.92175 5.12707 0
M  V30 14807 H 1352.75 -3.88796 7.20264 0
M  V30 14808 N 1355.42 -1.03311 -1.19015 0
M  V30 14809 C 1356.83 -0.761079 -1.70483 0
M  V30 14810 C 1357.18 0.718851 -1.82557 0
M  V30 14811 O 1356.3 1.56006 -1.4997 0
M  V30 14812 C 1356.9 -1.37492 -3.09647 0
M  V30 14813 C 1355.46 -1.15138 -3.58358 0
M  V30 14814 C 1354.61 -1.47034 -2.35109 0
M  V30 14815 H 1357.56 -1.2005 -1.03797 0
M  V30 14816 H 1357.58 -0.774115 -3.72542 0
M  V30 14817 H 1357.09 -2.45203 -3.00828 0
M  V30 14818 H 1355.19 -0.0926822 -3.72485 0
M  V30 14819 H 1355.3 -1.84307 -4.4223 0
M  V30 14820 H 1353.67 -0.889794 -2.38652 0
M  V30 14821 H 1354.45 -2.55837 -2.28916 0
M  V30 14822 N 1356.9 1.35099 -0.81154 0
M  V30 14823 C 1357.83 2.2756 -0.170838 0
M  V30 14824 C 1358.81 1.48331 0.666085 0
M  V30 14825 O 1359.99 1.77579 0.632294 0
M  V30 14826 C 1357.12 3.30006 0.762483 0
M  V30 14827 C 1356.16 4.265 0.00454934 0
M  V30 14828 S 1357 5.18595 -1.33488 0
M  V30 14829 C 1358.15 6.24581 -0.406132 0
M  V30 14830 H 1358.39 2.81553 -0.95475 0
M  V30 14831 H 1355.92 1.41974 -0.606851 0
M  V30 14832 H 1357.88 3.89523 1.29545 0
M  V30 14833 H 1356.54 2.74882 1.51982 0
M  V30 14834 H 1355.73 4.98922 0.71361 0
M  V30 14835 H 1355.33 3.71178 -0.458613 0
M  V30 14836 H 1357.62 6.76278 0.406707 0
M  V30 14837 H 1358.57 6.99509 -1.09969 0
M  V30 14838 H 1358.98 5.645 0.000376348 0
M  V30 14839 N 1358.37 0.56548 1.47106 0
M  V30 14840 C 1359.6 0.0496298 2.0684 0
M  V30 14841 C 1360.02 -1.24777 1.4169 0
M  V30 14842 O 1359.37 -1.75046 0.516239 0
M  V30 14843 C 1359.42 -0.140987 3.61225 0
M  V30 14844 O 1359.15 1.10504 4.23934 0
M  V30 14845 C 1360.65 -0.693171 4.37847 0
M  V30 14846 H 1357.87 0.0496018 0.669164 0
M  V30 14847 H 1360.41 0.781247 1.88989 0
M  V30 14848 H 1358.57 -0.822762 3.78562 0
M  V30 14849 H 1358.98 0.907978 5.16581 0
M  V30 14850 H 1360.45 -0.7758 5.46521 0
M  V30 14851 H 1360.93 -1.70632 4.04699 0
M  V30 14852 H 1361.54 -0.046826 4.25274 0
M  V30 14853 N 1359.85 -1.54672 0.302354 0
M  V30 14854 C 1361.08 -2.04578 -0.309093 0
M  V30 14855 C 1361.5 -1.17957 -1.47416 0
M  V30 14856 O 1360.85 -0.2055 -1.81339 0
M  V30 14857 C 1360.9 -3.53334 -0.764023 0
M  V30 14858 O 1360.62 -4.36662 0.354674 0
M  V30 14859 C 1362.13 -4.19243 -1.44048 0
M  V30 14860 H 1359.35 -0.667651 -0.0669575 0
M  V30 14861 H 1361.89 -1.99658 0.442379 0
M  V30 14862 H 1360.04 -3.5861 -1.46552 0
M  V30 14863 H 1360.46 -5.245 0.000241188 0
M  V30 14864 H 1361.93 -5.24847 -1.70995 0
M  V30 14865 H 1362.41 -3.69061 -2.38098 0
M  V30 14866 H 1363.02 -4.18046 -0.782132 0
M  V30 14867 N 1361.33 -0.0301034 -1.57571 0
M  V30 14868 C 1362.26 0.986212 -2.05789 0
M  V30 14869 C 1363.24 1.31682 -0.95387 0
M  V30 14870 O 1364.43 1.43332 -1.22427 0
M  V30 14871 C 1361.55 2.30598 -2.48077 0
M  V30 14872 C 1360.6 2.12991 -3.69509 0
M  V30 14873 S 1361.43 1.42782 -5.16114 0
M  V30 14874 C 1362.59 2.76126 -5.61699 0
M  V30 14875 H 1362.82 0.575769 -2.91671 0
M  V30 14876 H 1360.35 0.181613 -1.53328 0
M  V30 14877 H 1362.31 3.06469 -2.73107 0
M  V30 14878 H 1360.97 2.68775 -1.62539 0
M  V30 14879 H 1360.17 3.1056 -3.96949 0
M  V30 14880 H 1359.77 1.45263 -3.44637 0
M  V30 14881 H 1362.06 3.72361 -5.65998 0
M  V30 14882 H 1363 2.53349 -6.61226 0
M  V30 14883 H 1363.41 2.81418 -4.89351 0
M  V30 14884 N 1362.81 1.55714 0.243056 0
M  V30 14885 C 1363.77 1.89832 1.28438 0
M  V30 14886 C 1364.77 0.775083 1.40887 0
M  V30 14887 O 1365.96 1.04304 1.39521 0
M  V30 14888 C 1363.09 2.13016 2.66153 0
M  V30 14889 H 1364.29 2.82947 0.994022 0
M  V30 14890 H 1361.84 1.48665 0.482521 0
M  V30 14891 H 1362.57 1.22381 3.00322 0
M  V30 14892 H 1362.36 2.94824 2.58498 0
M  V30 14893 H 1363.85 2.40581 3.41336 0
M  V30 14894 N 1364.29 -0.50888 1.49158 0
M  V30 14895 C 1365.52 -1.28585 1.61708 0
M  V30 14896 C 1365.92 -1.87047 0.284629 0
M  V30 14897 O 1365.27 -1.68182 -0.738959 0
M  V30 14898 C 1365.33 -2.46043 2.62113 0
M  V30 14899 C 1364.99 -2.0851 4.0666 0
M  V30 14900 C 1365.99 -1.62943 4.93706 0
M  V30 14901 C 1363.68 -2.18386 4.52342 0
M  V30 14902 C 1365.67 -1.27747 6.24467 0
M  V30 14903 C 1363.36 -1.82801 5.83118 0
M  V30 14904 C 1364.35 -1.37555 6.69005 0
M  V30 14905 O 1364.04 -1.02447 7.97345 0
M  V30 14906 H 1363.77 -0.396504 0.547504 0
M  V30 14907 H 1366.33 -0.61834 1.95872 0
M  V30 14908 H 1364.56 -3.15844 2.23113 0
M  V30 14909 H 1366.25 -3.08081 2.64275 0
M  V30 14910 H 1367.01 -1.54766 4.59644 0
M  V30 14911 H 1362.89 -2.52556 3.85664 0
M  V30 14912 H 1366.44 -0.923589 6.91459 0
M  V30 14913 H 1362.33 -1.90626 6.16711 0
M  V30 14914 H 1363.1 -1.15663 8.10287 0
M  V30 14915 N 1365.76 -1.381 -0.759346 0
M  V30 14916 C 1367.01 -1.33311 -1.51364 0
M  V30 14917 C 1367.33 0.0761325 -1.95452 0
M  V30 14918 O 1368.53 0.246541 -2.70378 0
M  V30 14919 C 1366.99 -2.34067 -2.73387 0
M  V30 14920 C 1366.6 -3.80583 -2.36348 0
M  V30 14921 C 1368.34 -2.38311 -3.51295 0
M  V30 14922 C 1366.25 -4.73039 -3.54948 0
M  V30 14923 H 1365.18 -0.495512 -0.568317 0
M  V30 14924 H 1367.83 -1.63625 -0.830602 0
M  V30 14925 H 1366.21 -1.96788 -3.43643 0
M  V30 14926 H 1367.38 -4.26769 -1.73796 0
M  V30 14927 H 1365.7 -3.79403 -1.71587 0
M  V30 14928 H 1368.3 -3.04586 -4.39467 0
M  V30 14929 H 1368.64 -1.40034 -3.92041 0
M  V30 14930 H 1369.17 -2.74361 -2.88047 0
M  V30 14931 H 1365.91 -5.7249 -3.19273 0
M  V30 14932 H 1365.43 -4.3155 -4.16563 0
M  V30 14933 H 1367.11 -4.90775 -4.21603 0
M  V30 14934 N 1367.24 0.986894 -1.22875 0
M  V30 14935 C 1368.17 2.08035 -0.961971 0
M  V30 14936 C 1369.19 1.62683 0.0616475 0
M  V30 14937 O 1370.38 1.77659 -0.173094 0
M  V30 14938 C 1367.48 3.36208 -0.426302 0
M  V30 14939 C 1366.65 4.10562 -1.50856 0
M  V30 14940 C 1365.71 5.17014 -0.97891 0
M  V30 14941 O 1364.73 5.44259 -1.66645 0
M  V30 14942 N 1365.94 5.80167 0.196613 0
M  V30 14943 H 1368.7 2.315 -1.90336 0
M  V30 14944 H 1366.26 1.1531 -1.13645 0
M  V30 14945 H 1368.25 4.0466 -0.0571577 0
M  V30 14946 H 1366.82 3.09761 0.420345 0
M  V30 14947 H 1366.04 3.36656 -2.05076 0
M  V30 14948 H 1367.33 4.57007 -2.23655 0
M  V30 14949 H 1366.73 5.60409 0.771892 0
M  V30 14950 H 1365.29 6.49825 0.507083 0
M  V30 14951 N 1368.72 1.0394 1.18466 0
M  V30 14952 C 1370 0.65632 1.8426 0
M  V30 14953 C 1370.38 -0.864288 1.92596 0
M  V30 14954 O 1369.73 -1.76524 1.45092 0
M  V30 14955 C 1369.94 1.33067 3.22636 0
M  V30 14956 C 1371.28 1.46065 3.98686 0
M  V30 14957 O 1372.31 1.28867 3.32072 0
M  V30 14958 O 1371.17 1.74078 5.18034 0
M  V30 14959 H 1368.26 0.229484 0.794523 0
M  V30 14960 H 1370.81 1.13821 1.25868 0
M  V30 14961 H 1369.58 2.36866 3.11465 0
M  V30 14962 H 1369.2 0.837313 3.88683 0
M  V30 14963 N 1370.2 -1.34667 0.818693 0
M  V30 14964 C 1371.16 -2.27908 0.243037 0
M  V30 14965 C 1372.16 -1.50106 -0.576622 0
M  V30 14966 O 1373.35 -1.69701 -0.393342 0
M  V30 14967 C 1370.48 -3.34455 -0.659759 0
M  V30 14968 H 1371.68 -2.80332 1.06555 0
M  V30 14969 H 1369.23 -1.44727 0.590237 0
M  V30 14970 H 1369.96 -2.87238 -1.50549 0
M  V30 14971 H 1369.75 -3.92031 -0.073567 0
M  V30 14972 H 1371.24 -4.04016 -1.05646 0
M  V30 14973 N 1371.68 -0.573274 -1.46804 0
M  V30 14974 C 1372.62 0.165358 -2.30207 0
M  V30 14975 C 1373.59 0.89312 -1.40045 0
M  V30 14976 O 1374.78 0.885653 -1.68999 0
M  V30 14977 C 1371.92 1.17915 -3.2433 0
M  V30 14978 C 1371.03 0.455805 -4.29589 0
M  V30 14979 C 1370.17 1.45629 -5.10848 0
M  V30 14980 C 1369.21 0.718822 -6.07865 0
M  V30 14981 N 1368.34 1.66691 -6.82025 0
M  V30 14982 H 1373.18 -0.551947 -2.92844 0
M  V30 14983 H 1370.72 -0.28401 -1.44332 0
M  V30 14984 H 1372.68 1.77969 -3.77337 0
M  V30 14985 H 1371.31 1.86429 -2.63523 0
M  V30 14986 H 1370.36 -0.259584 -3.79513 0
M  V30 14987 H 1371.67 -0.121161 -4.98653 0
M  V30 14988 H 1370.83 2.1299 -5.68084 0
M  V30 14989 H 1369.56 2.06718 -4.41723 0
M  V30 14990 H 1368.57 0.0313773 -5.49791 0
M  V30 14991 H 1369.79 0.113452 -6.79005 0
M  V30 14992 H 1367.74 2.26608 -6.15617 0
M  V30 14993 H 1367.66 1.14251 -7.47317 0
M  V30 14994 H 1368.93 2.33117 -7.43826 0
M  V30 14995 N 1373.15 1.5451 -0.310553 0
M  V30 14996 C 1374.1 2.2059 0.576555 0
M  V30 14997 C 1375.09 1.18205 1.09163 0
M  V30 14998 O 1376.28 1.43887 1.03081 0
M  V30 14999 C 1373.41 2.95741 1.74334 0
M  V30 15000 C 1372.5 4.05452 1.24378 0
M  V30 15001 N 1372.89 5.03677 0.462921 0
M  V30 15002 C 1371.18 4.19166 1.52367 0
M  V30 15003 C 1371.89 5.81371 0.195709 0
M  V30 15004 N 1370.86 5.38001 0.778203 0
M  V30 15005 H 1374.66 2.93887 -0.0274771 0
M  V30 15006 H 1372.18 1.61987 -0.115773 0
M  V30 15007 H 1374.17 3.41556 2.39051 0
M  V30 15008 H 1372.83 2.23962 2.35098 0
M  V30 15009 H 1373.85 5.1779 0.106943 0
M  V30 15010 H 1370.52 3.58597 2.1381 0
M  V30 15011 H 1371.91 6.70509 -0.432064 0
M  V30 15012 N 1374.63 0.0384594 1.57553 0
M  V30 15013 C 1376.05 -0.318006 1.564 0
M  V30 15014 C 1376.25 -1.72287 1.04496 0
M  V30 15015 O 1375.31 -2.42722 0.695861 0
M  V30 15016 C 1376.62 -0.158079 3.00284 0
M  V30 15017 C 1378.17 -0.230143 3.12153 0
M  V30 15018 C 1378.64 -0.0988948 4.57893 0
M  V30 15019 N 1380.13 -0.15558 4.62939 0
M  V30 15020 C 1380.87 -0.077948 5.73347 0
M  V30 15021 N 1380.36 0.0513054 6.92781 0
M  V30 15022 N 1382.16 -0.132612 5.61944 0
M  V30 15023 H 1374.31 0.957014 1.89618 0
M  V30 15024 H 1376.57 0.370396 0.872646 0
M  V30 15025 H 1376.28 0.810032 3.42245 0
M  V30 15026 H 1376.15 -0.924413 3.65697 0
M  V30 15027 H 1378.54 -1.18872 2.70099 0
M  V30 15028 H 1378.62 0.56673 2.49443 0
M  V30 15029 H 1378.26 0.856301 5.00629 0
M  V30 15030 H 1378.19 -0.91475 5.18594 0
M  V30 15031 H 1380.68 -0.255245 3.77037 0
M  V30 15032 H 1381 0.103595 7.72731 0
M  V30 15033 H 1379.34 0.0862166 6.94947 0
M  V30 15034 H 1382.53 -0.232056 4.67524 0
M  V30 15035 H 1382.71 -0.0686506 6.47964 0
M  V30 15036 N 1376.11 -1.55841 -0.234795 0
M  V30 15037 C 1377.04 -1.94344 -1.29432 0
M  V30 15038 C 1378.02 -0.809912 -1.49581 0
M  V30 15039 O 1379.21 -1.07117 -1.61986 0
M  V30 15040 C 1376.34 -2.24866 -2.64675 0
M  V30 15041 C 1375.29 -3.40584 -2.59203 0
M  V30 15042 C 1374.62 -3.56678 -3.98353 0
M  V30 15043 C 1375.92 -4.75935 -2.15135 0
M  V30 15044 H 1377.61 -2.83096 -0.97454 0
M  V30 15045 H 1375.16 -1.36205 -0.467355 0
M  V30 15046 H 1377.11 -2.50392 -3.38942 0
M  V30 15047 H 1375.83 -1.32953 -2.98314 0
M  V30 15048 H 1374.49 -3.15087 -1.87393 0
M  V30 15049 H 1374.14 -2.62164 -4.29277 0
M  V30 15050 H 1373.84 -4.34503 -3.95577 0
M  V30 15051 H 1375.37 -3.84538 -4.74302 0
M  V30 15052 H 1376.78 -5.00753 -2.7914 0
M  V30 15053 H 1375.18 -5.56949 -2.23446 0
M  V30 15054 H 1376.25 -4.72182 -1.10328 0
M  V30 15055 N 1377.59 0.500963 -1.49426 0
M  V30 15056 C 1378.82 1.27911 -1.62624 0
M  V30 15057 C 1379.23 1.86439 -0.297651 0
M  V30 15058 O 1378.59 1.67831 0.716879 0
M  V30 15059 C 1378.64 2.40934 -2.69505 0
M  V30 15060 O 1378.36 1.84811 -3.97211 0
M  V30 15061 C 1379.86 3.32305 -2.93408 0
M  V30 15062 H 1377.08 0.387951 -0.547481 0
M  V30 15063 H 1379.63 0.601372 -1.95458 0
M  V30 15064 H 1377.78 3.04537 -2.39449 0
M  V30 15065 H 1378.2 2.59011 -4.56085 0
M  V30 15066 H 1379.67 4.0789 -3.71927 0
M  V30 15067 H 1380.15 3.89301 -2.03325 0
M  V30 15068 H 1380.75 2.74467 -3.24881 0
M  V30 15069 N 1379.07 1.38501 0.752011 0
M  V30 15070 C 1380 1.38577 1.87933 0
M  V30 15071 C 1380.98 0.251454 1.68231 0
M  V30 15072 O 1382.16 0.45477 1.888 0
M  V30 15073 C 1379.29 1.21164 3.25479 0
M  V30 15074 C 1378.25 2.31816 3.59785 0
M  V30 15075 C 1377.57 1.99508 4.96085 0
M  V30 15076 C 1378.87 3.74082 3.645 0
M  V30 15077 H 1380.57 2.32913 1.88127 0
M  V30 15078 H 1378.11 1.12113 0.903698 0
M  V30 15079 H 1380.07 1.19842 4.04 0
M  V30 15080 H 1378.79 0.232899 3.25769 0
M  V30 15081 H 1377.45 2.32327 2.83584 0
M  V30 15082 H 1377.1 1.00114 4.92936 0
M  V30 15083 H 1376.8 2.73617 5.20007 0
M  V30 15084 H 1378.32 1.99807 5.76983 0
M  V30 15085 H 1379.74 3.75593 4.33131 0
M  V30 15086 H 1378.13 4.47409 3.99931 0
M  V30 15087 H 1379.2 4.06284 2.64692 0
M  V30 15088 N 1380.55 -0.980364 1.23396 0
M  V30 15089 C 1381.48 -2.0908 1.0396 0
M  V30 15090 C 1382.46 -1.70044 -0.0434946 0
M  V30 15091 O 1383.64 -1.93822 0.121155 0
M  V30 15092 C 1380.77 -3.41537 0.630061 0
M  V30 15093 C 1379.73 -3.94476 1.66051 0
M  V30 15094 C 1379.05 -5.23128 1.10641 0
M  V30 15095 C 1380.35 -4.23741 3.05354 0
M  V30 15096 H 1382.05 -2.25598 1.9684 0
M  V30 15097 H 1379.59 -1.08409 0.94781 0
M  V30 15098 H 1381.54 -4.18644 0.481145 0
M  V30 15099 H 1380.27 -3.24883 -0.334416 0
M  V30 15100 H 1378.93 -3.19513 1.79742 0
M  V30 15101 H 1378.58 -5.02824 0.132913 0
M  V30 15102 H 1378.28 -5.59515 1.79492 0
M  V30 15103 H 1379.8 -6.02857 0.969344 0
M  V30 15104 H 1381.21 -4.91598 2.94964 0
M  V30 15105 H 1379.61 -4.71329 3.71442 0
M  V30 15106 H 1380.68 -3.31012 3.54343 0
M  V30 15107 N 1382.02 -1.04567 -1.17913 0
M  V30 15108 C 1383.25 -0.772146 -1.92491 0
M  V30 15109 C 1383.67 0.665297 -1.75942 0
M  V30 15110 O 1383.03 1.46144 -1.07292 0
M  V30 15111 C 1383.08 -1.14966 -3.41782 0
M  V30 15112 O 1382.18 -0.278091 -4.11461 0
M  V30 15113 H 1381.52 -0.283715 -0.600335 0
M  V30 15114 H 1384.05 -1.39685 -1.49496 0
M  V30 15115 H 1384.06 -1.11374 -3.92505 0
M  V30 15116 H 1382.74 -2.1968 -3.53148 0
M  V30 15117 H 1381.32 -0.374073 -3.71019 0
M  V30 15118 N 1383.5 1.34231 -0.825823 0
M  V30 15119 C 1384.46 2.27776 -0.25512 0
M  V30 15120 C 1385.46 1.50409 0.568654 0
M  V30 15121 O 1386.65 1.69907 0.384337 0
M  V30 15122 C 1383.79 3.348 0.642013 0
M  V30 15123 H 1384.98 2.79763 -1.0804 0
M  V30 15124 H 1382.53 1.44412 -0.597904 0
M  V30 15125 H 1383.27 2.88032 1.49024 0
M  V30 15126 H 1383.05 3.92064 0.0527756 0
M  V30 15127 H 1384.54 4.0457 1.03502 0
M  V30 15128 N 1384.98 0.581051 1.46498 0
M  V30 15129 C 1385.91 -0.19094 2.28403 0
M  V30 15130 C 1386.92 -0.857039 1.38415 0
M  V30 15131 O 1388.11 -0.726881 1.6303 0
M  V30 15132 C 1385.21 -1.28972 3.134 0
M  V30 15133 C 1384.39 -0.715867 4.31502 0
M  V30 15134 C 1383.45 -1.70215 4.97909 0
M  V30 15135 O 1382.47 -1.23885 5.55555 0
M  V30 15136 N 1383.67 -3.0362 4.94768 0
M  V30 15137 H 1386.44 0.511754 2.95298 0
M  V30 15138 H 1384 0.41871 1.56392 0
M  V30 15139 H 1385.99 -1.94877 3.5469 0
M  V30 15140 H 1384.56 -1.8953 2.4859 0
M  V30 15141 H 1383.78 0.120591 3.94016 0
M  V30 15142 H 1385.07 -0.312226 5.07841 0
M  V30 15143 H 1384.47 -3.43885 4.49177 0
M  V30 15144 H 1383.02 -3.65018 5.40005 0
M  V30 15145 N 1386.46 -1.54343 0.318742 0
M  V30 15146 C 1387.68 -2.05361 -0.290126 0
M  V30 15147 C 1388.11 -1.19362 -1.45376 0
M  V30 15148 O 1387.47 -0.201639 -1.80175 0
M  V30 15149 C 1387.51 -3.53601 -0.707025 0
M  V30 15150 O 1386.62 -3.70561 -1.80992 0
M  V30 15151 H 1385.96 -0.661858 -0.0532933 0
M  V30 15152 H 1388.49 -1.99228 0.46575 0
M  V30 15153 H 1388.5 -3.95782 -0.991005 0
M  V30 15154 H 1387.17 -4.1565 0.144091 0
M  V30 15155 H 1385.75 -3.40286 -1.52513 0
M  V30 15156 N 1387.94 -0.0468143 -1.5753 0
M  V30 15157 C 1388.87 0.927092 -2.14306 0
M  V30 15158 C 1389.85 1.32745 -1.06362 0
M  V30 15159 O 1391.03 1.40293 -1.34281 0
M  V30 15160 C 1388.16 2.20343 -2.68452 0
M  V30 15161 C 1387.12 1.94328 -3.81341 0
M  V30 15162 C 1386.44 3.28379 -4.21985 0
M  V30 15163 C 1387.74 1.26835 -5.06666 0
M  V30 15164 H 1389.44 0.454199 -2.95935 0
M  V30 15165 H 1386.98 0.217029 -1.42355 0
M  V30 15166 H 1388.93 2.8887 -3.0681 0
M  V30 15167 H 1387.66 2.6983 -1.84009 0
M  V30 15168 H 1386.32 1.28214 -3.43448 0
M  V30 15169 H 1385.97 3.75658 -3.34499 0
M  V30 15170 H 1385.67 3.11772 -4.98068 0
M  V30 15171 H 1387.19 3.98145 -4.6294 0
M  V30 15172 H 1388.6 1.85389 -5.42498 0
M  V30 15173 H 1387 1.20569 -5.87863 0
M  V30 15174 H 1388.07 0.243759 -4.84287 0
M  V30 15175 N 1389.41 1.55964 0.226527 0
M  V30 15176 C 1390.66 1.78392 0.94977 0
M  V30 15177 C 1390.98 0.614444 1.85066 0
M  V30 15178 O 1390.25 -0.368894 1.92395 0
M  V30 15179 H 1388.83 0.657962 0.353688 0
M  V30 15180 H 1391.5 1.93422 0.239577 0
M  V30 15181 H 1390.59 2.70343 1.55952 0
M  V30 15182 N 1390.89 -0.493031 1.4969 0
M  V30 15183 C 1392.14 -1.24849 1.59814 0
M  V30 15184 C 1392.47 -1.92059 0.287555 0
M  V30 15185 O 1391.75 -1.81099 -0.709471 0
M  V30 15186 C 1392.03 -2.30929 2.76304 0
M  V30 15187 C 1391.88 -1.68167 4.17181 0
M  V30 15188 C 1393.2 -3.32427 2.8841 0
M  V30 15189 H 1390.32 -0.452553 0.581691 0
M  V30 15190 H 1392.96 -0.545455 1.82002 0
M  V30 15191 H 1391.11 -2.9089 2.57517 0
M  V30 15192 H 1392.78 -1.11971 4.47504 0
M  V30 15193 H 1391.03 -0.985496 4.22458 0
M  V30 15194 H 1391.7 -2.45148 4.94577 0
M  V30 15195 H 1394.17 -2.82464 3.05537 0
M  V30 15196 H 1393.05 -4.04004 3.71581 0
M  V30 15197 H 1393.31 -3.95234 1.98097 0
M  V30 15198 N 1392.37 -1.38898 -0.744656 0
M  V30 15199 C 1393.6 -1.3903 -1.53901 0
M  V30 15200 C 1394.02 0.0156607 -1.88093 0
M  V30 15201 O 1393.38 1.00012 -1.51219 0
M  V30 15202 C 1393.43 -2.2609 -2.80919 0
M  V30 15203 O 1392.53 -1.68414 -3.76444 0
M  V30 15204 H 1391.87 -0.473854 -0.465144 0
M  V30 15205 H 1394.4 -1.82773 -0.919525 0
M  V30 15206 H 1394.41 -2.40264 -3.29754 0
M  V30 15207 H 1393.09 -3.28271 -2.55364 0
M  V30 15208 H 1391.66 -1.63431 -3.35179 0
M  V30 15209 N 1393.85 0.973806 -1.23914 0
M  V30 15210 C 1395.07 1.7564 -1.10296 0
M  V30 15211 C 1395.5 1.84984 0.340954 0
M  V30 15212 O 1394.86 1.31629 1.24674 0
M  V30 15213 C 1394.9 3.15809 -1.7406 0
M  V30 15214 O 1394.01 3.99911 -1.00722 0
M  V30 15215 H 1393.35 0.540133 -0.386202 0
M  V30 15216 H 1395.88 1.22197 -1.64101 0
M  V30 15217 H 1395.89 3.66359 -1.79568 0
M  V30 15218 H 1394.56 3.08324 -2.79122 0
M  V30 15219 H 1393.14 3.58405 -1.02956 0
M  V30 15220 N 1395.33 1.05191 1.17357 0
M  V30 15221 C 1396.26 0.673931 2.23563 0
M  V30 15222 C 1397.24 -0.328284 1.66902 0
M  V30 15223 O 1398.42 -0.205878 1.93106 0
M  V30 15224 C 1395.55 0.0478801 3.47267 0
M  V30 15225 C 1394.51 0.974855 4.1675 0
M  V30 15226 C 1393.83 0.212684 5.34277 0
M  V30 15227 C 1395.13 2.299 4.68981 0
M  V30 15228 H 1396.83 1.56183 2.55436 0
M  V30 15229 H 1394.37 0.752408 1.2278 0
M  V30 15230 H 1396.33 -0.228343 4.20781 0
M  V30 15231 H 1395.05 -0.874963 3.14662 0
M  V30 15232 H 1393.71 1.23564 3.45148 0
M  V30 15233 H 1393.36 -0.712924 4.97922 0
M  V30 15234 H 1393.06 0.830351 5.81703 0
M  V30 15235 H 1394.58 -0.056255 6.10574 0
M  V30 15236 H 1395.99 2.08269 5.34132 0
M  V30 15237 H 1394.39 2.87064 5.26986 0
M  V30 15238 H 1395.46 2.93759 3.8579 0
M  V30 15239 N 1396.8 -1.33791 0.83293 0
M  V30 15240 C 1397.75 -2.31249 0.250357 0
M  V30 15241 C 1398.75 -1.57865 -0.614403 0
M  V30 15242 O 1399.95 -1.72782 -0.504627 0
M  V30 15243 H 1396.33 -0.749421 0.0622268 0
M  V30 15244 H 1398.3 -2.77899 1.08697 0
M  V30 15245 C 1397.05 -3.43082 -0.564783 0
M  V30 15246 H 1396.37 -3.99696 0.0913189 0
M  V30 15247 H 1397.81 -4.13486 -0.938351 0
M  V30 15248 C 1396.27 -2.88414 -1.74124 0
M  V30 15249 O 1396.8 -2.84113 -2.83976 0
M  V30 15250 N 1395.01 -2.45101 -1.56121 0
M  V30 15251 H 1394.55 -2.48799 -0.667607 0
M  V30 15252 H 1394.51 -2.08875 -2.34986 0
M  V30 15253 N 1398.28 -0.588812 -1.46187 0
M  V30 15254 C 1399.51 -0.0806571 -2.07243 0
M  V30 15255 C 1399.93 1.21766 -1.43369 0
M  V30 15256 O 1399.29 1.73694 -0.51964 0
M  V30 15257 C 1399.34 0.065267 -3.60541 0
M  V30 15258 O 1398.44 1.12026 -3.96893 0
M  V30 15259 H 1397.78 -0.0655622 -0.660755 0
M  V30 15260 H 1400.31 -0.813489 -1.87733 0
M  V30 15261 H 1400.32 0.269494 -4.07109 0
M  V30 15262 H 1399 -0.88284 -4.06422 0
M  V30 15263 H 1397.58 0.894 -3.62025 0
M  V30 15264 N 1399.76 1.54172 -0.326923 0
M  V30 15265 C 1401.01 2.00233 0.274098 0
M  V30 15266 C 1401.33 1.21665 1.5239 0
M  V30 15267 O 1400.6 0.319359 1.93279 0
M  V30 15268 H 1399.18 0.739687 0.104271 0
M  V30 15269 H 1401.84 1.8977 -0.444244 0
M  V30 15270 H 1400.94 3.07599 0.528154 0
M  V30 15271 N 1401.24 0.0551678 1.57503 0
M  V30 15272 C 1402.17 -0.947102 2.08717 0
M  V30 15273 C 1403.18 -1.2722 1.01582 0
M  V30 15274 O 1404.37 -1.23229 1.29139 0
M  V30 15275 C 1401.47 -2.26756 2.51863 0
M  V30 15276 C 1400.65 -2.12378 3.8238 0
M  V30 15277 C 1399.7 -3.27582 4.11797 0
M  V30 15278 O 1398.73 -3.03309 4.81656 0
M  V30 15279 N 1399.93 -4.5218 3.64024 0
M  V30 15280 H 1402.7 -0.509957 2.9533 0
M  V30 15281 H 1400.26 -0.130976 1.61369 0
M  V30 15282 H 1402.25 -3.02701 2.68616 0
M  V30 15283 H 1400.82 -2.62024 1.70477 0
M  V30 15284 H 1400.04 -1.21 3.7517 0
M  V30 15285 H 1401.33 -2.00003 4.67842 0
M  V30 15286 H 1400.73 -4.7479 3.07556 0
M  V30 15287 H 1399.28 -5.25206 3.86008 0
M  V30 15288 N 1402.72 -1.56081 -0.218252 0
M  V30 15289 C 1403.97 -1.78445 -0.94022 0
M  V30 15290 C 1404.28 -0.624317 -1.85369 0
M  V30 15291 O 1405.48 -0.731669 -2.61455 0
M  V30 15292 C 1403.94 -3.16026 -1.72208 0
M  V30 15293 C 1403.55 -4.39774 -0.854584 0
M  V30 15294 C 1405.29 -3.47714 -2.43506 0
M  V30 15295 C 1403.2 -5.68379 -1.63398 0
M  V30 15296 H 1402.13 -0.665303 -0.354806 0
M  V30 15297 H 1404.78 -1.82471 -0.194021 0
M  V30 15298 H 1403.16 -3.06185 -2.5113 0
M  V30 15299 H 1404.34 -4.60679 -0.105659 0
M  V30 15300 H 1402.65 -4.15627 -0.253562 0
M  V30 15301 H 1405.25 -4.41026 -3.02325 0
M  V30 15302 H 1405.59 -2.70367 -3.16555 0
M  V30 15303 H 1406.12 -3.58899 -1.71571 0
M  V30 15304 H 1402.86 -6.48628 -0.946704 0
M  V30 15305 H 1402.38 -5.5153 -2.35743 0
M  V30 15306 H 1404.06 -6.08672 -2.1938 0
M  V30 15307 N 1404.2 0.485086 -1.49949 0
M  V30 15308 C 1405.11 1.61089 -1.70551 0
M  V30 15309 C 1406.12 1.63752 -0.588333 0
M  V30 15310 O 1407.3 1.81879 -0.86498 0
M  V30 15311 C 1404.36 2.97382 -1.78227 0
M  V30 15312 C 1403.42 3.05219 -3.01894 0
M  V30 15313 C 1402.66 4.35011 -3.09195 0
M  V30 15314 O 1402.88 5.24722 -2.23658 0
M  V30 15315 O 1401.81 4.48151 -4.01802 0
M  V30 15316 H 1405.64 1.46633 -2.65956 0
M  V30 15317 H 1403.22 0.663091 -1.33879 0
M  V30 15318 H 1405.11 3.78356 -1.85538 0
M  V30 15319 H 1403.78 3.12066 -0.860043 0
M  V30 15320 H 1402.69 2.23373 -3.00092 0
M  V30 15321 H 1404.02 2.95467 -3.93649 0
M  V30 15322 N 1405.67 1.39291 0.737279 0
M  V30 15323 C 1406.92 1.36592 1.49901 0
M  V30 15324 C 1407.25 -0.0388812 1.94161 0
M  V30 15325 O 1406.53 -1.00337 1.66622 0
M  V30 15326 C 1406.81 2.33625 2.74028 0
M  V30 15327 C 1406.66 3.83037 2.35802 0
M  V30 15328 C 1407.98 2.28524 3.76118 0
M  V30 15329 H 1405.1 0.497482 0.543765 0
M  V30 15330 H 1407.74 1.70265 0.843193 0
M  V30 15331 H 1405.89 2.0504 3.29986 0
M  V30 15332 H 1407.57 4.22363 1.85493 0
M  V30 15333 H 1405.81 3.99924 1.68058 0
M  V30 15334 H 1406.48 4.46415 3.24681 0
M  V30 15335 H 1408.96 2.53794 3.29739 0
M  V30 15336 H 1407.83 2.98501 4.60639 0
M  V30 15337 H 1408.09 1.28949 4.22876 0
M  V30 15338 N 1407.15 -0.967221 1.24429 0
M  V30 15339 C 1408.4 -1.70458 1.07829 0
M  V30 15340 C 1408.71 -1.91818 -0.38278 0
M  V30 15341 O 1409.92 -2.63129 -0.668982 0
M  V30 15342 C 1408.38 -3.06817 1.88125 0
M  V30 15343 C 1407.98 -2.93298 3.38645 0
M  V30 15344 C 1409.73 -3.84422 1.80056 0
M  V30 15345 C 1407.63 -4.2497 4.11284 0
M  V30 15346 H 1406.56 -0.639217 0.399897 0
M  V30 15347 H 1409.22 -1.07776 1.48515 0
M  V30 15348 H 1407.6 -3.70331 1.40254 0
M  V30 15349 H 1408.77 -2.38793 3.94099 0
M  V30 15350 H 1407.09 -2.29159 3.47671 0
M  V30 15351 H 1409.68 -4.81925 2.31629 0
M  V30 15352 H 1410.03 -4.09194 0.765908 0
M  V30 15353 H 1410.56 -3.27636 2.2561 0
M  V30 15354 H 1407.3 -4.05391 5.1511 0
M  V30 15355 H 1406.82 -4.79288 3.60615 0
M  V30 15356 H 1408.5 -4.93586 4.18308 0
M  V30 15357 N 1408.63 -1.05812 -1.16797 0
M  V30 15358 C 1409.56 -0.608879 -2.19927 0
M  V30 15359 C 1410.54 0.365798 -1.58432 0
M  V30 15360 O 1411.72 0.27593 -1.8647 0
M  V30 15361 C 1408.85 0.108061 -3.38528 0
M  V30 15362 C 1407.9 -0.822607 -4.18492 0
M  V30 15363 S 1408.73 -2.3152 -4.82865 0
M  V30 15364 C 1409.89 -1.60961 -6.04849 0
M  V30 15365 H 1410.12 -1.48261 -2.57693 0
M  V30 15366 H 1407.65 -0.870648 -1.27511 0
M  V30 15367 H 1409.61 0.515496 -4.0725 0
M  V30 15368 H 1408.27 0.95792 -2.99137 0
M  V30 15369 H 1407.46 -0.267448 -5.0329 0
M  V30 15370 H 1407.07 -1.1697 -3.55238 0
M  V30 15371 H 1409.36 -0.912454 -6.71327 0
M  V30 15372 H 1410.3 -2.43531 -6.64905 0
M  V30 15373 H 1410.71 -1.09431 -5.53792 0
M  V30 15374 N 1410.11 1.33347 -0.840014 0
M  V30 15375 C 1411.38 1.92293 -0.358158 0
M  V30 15376 C 1411.76 1.76594 1.15662 0
M  V30 15377 O 1411.11 1.15503 1.97158 0
M  V30 15378 C 1411.32 3.39558 -0.806329 0
M  V30 15379 C 1412.67 4.16705 -0.81501 0
M  V30 15380 O 1413.69 3.48214 -0.75001 0
M  V30 15381 O 1412.55 5.38974 -0.903818 0
M  V30 15382 H 1409.65 0.820737 -0.101585 0
M  V30 15383 H 1412.19 1.42213 -0.925942 0
M  V30 15384 H 1410.97 3.44861 -1.84897 0
M  V30 15385 H 1410.59 3.97017 -0.215181 0
M  V30 15386 N 1411.59 0.596556 1.45873 0
M  V30 15387 C 1413 0.259317 1.57479 0
M  V30 15388 C 1413.2 -1.23829 1.58961 0
M  V30 15389 O 1412.26 -2.02076 1.51399 0
M  V30 15390 C 1413.57 0.920755 2.86256 0
M  V30 15391 C 1415.12 0.895638 2.99912 0
M  V30 15392 C 1415.59 1.53688 4.31444 0
M  V30 15393 N 1417.08 1.50186 4.38176 0
M  V30 15394 C 1417.82 1.96727 5.38596 0
M  V30 15395 N 1417.32 2.51304 6.45615 0
M  V30 15396 N 1419.11 1.87561 5.29884 0
M  V30 15397 H 1411.26 1.56909 1.43155 0
M  V30 15398 H 1413.52 0.656664 0.683737 0
M  V30 15399 H 1413.23 1.97481 2.91023 0
M  V30 15400 H 1413.1 0.437331 3.74656 0
M  V30 15401 H 1415.49 -0.149838 2.94719 0
M  V30 15402 H 1415.57 1.41722 2.12952 0
M  V30 15403 H 1415.21 2.58163 4.37395 0
M  V30 15404 H 1415.14 0.990408 5.17203 0
M  V30 15405 H 1417.64 1.10305 3.61443 0
M  V30 15406 H 1417.95 2.84639 7.18471 0
M  V30 15407 H 1416.29 2.55337 6.46396 0
M  V30 15408 H 1419.48 1.4467 4.45183 0
M  V30 15409 H 1419.66 2.24146 6.07999 0
M  V30 15410 N 1413.06 -1.53996 0.335095 0
M  V30 15411 C 1414.48 -1.59591 -0.0171422 0
M  V30 15412 C 1414.68 -1.35132 -1.49471 0
M  V30 15413 O 1413.74 -1.14141 -2.25229 0
M  V30 15414 C 1415.05 -2.97872 0.411443 0
M  V30 15415 C 1416.6 -3.10887 0.363072 0
M  V30 15416 C 1417.07 -4.51532 0.766995 0
M  V30 15417 N 1418.56 -4.57557 0.72085 0
M  V30 15418 C 1419.3 -5.64516 1.00544 0
M  V30 15419 N 1418.79 -6.79365 1.35777 0
M  V30 15420 N 1420.59 -5.54349 0.930243 0
M  V30 15421 H 1412.74 -1.68151 1.29766 0
M  V30 15422 H 1415 -0.787067 0.528422 0
M  V30 15423 H 1414.71 -3.20809 1.44134 0
M  V30 15424 H 1414.58 -3.76571 -0.217678 0
M  V30 15425 H 1416.97 -2.87679 -0.657642 0
M  V30 15426 H 1417.05 -2.34266 1.02728 0
M  V30 15427 H 1416.69 -4.75474 1.78568 0
M  V30 15428 H 1416.62 -5.26539 0.0803511 0
M  V30 15429 H 1419.11 -3.75079 0.460867 0
M  V30 15430 H 1419.43 -7.56891 1.55999 0
M  V30 15431 H 1417.77 -6.80833 1.39614 0
M  V30 15432 H 1420.96 -4.63503 0.654402 0
M  V30 15433 H 1421.14 -6.37616 1.15539 0
M  V30 15434 N 1414.54 -0.0635198 -1.57472 0
M  V30 15435 C 1415.47 0.90431 -2.15278 0
M  V30 15436 C 1416.45 1.31609 -1.07764 0
M  V30 15437 O 1417.64 1.38861 -1.35762 0
M  V30 15438 C 1414.77 2.17483 -2.70774 0
M  V30 15439 C 1413.72 1.90272 -3.8338 0
M  V30 15440 C 1413.05 3.23885 -4.25444 0
M  V30 15441 C 1414.35 1.21454 -5.07983 0
M  V30 15442 H 1416.04 0.422786 -2.964 0
M  V30 15443 H 1413.59 0.201918 -1.42577 0
M  V30 15444 H 1415.54 2.856 -3.09856 0
M  V30 15445 H 1414.26 2.67863 -1.86861 0
M  V30 15446 H 1412.92 1.24564 -3.44789 0
M  V30 15447 H 1412.57 3.72089 -3.38465 0
M  V30 15448 H 1412.27 3.06472 -5.01347 0
M  V30 15449 H 1413.8 3.93212 -4.67137 0
M  V30 15450 H 1415.21 1.79625 -5.44433 0
M  V30 15451 H 1413.61 1.14327 -5.89109 0
M  V30 15452 H 1414.68 0.19238 -4.84518 0
M  V30 15453 N 1416.02 1.56195 0.209972 0
M  V30 15454 C 1416.95 1.88389 1.28781 0
M  V30 15455 C 1417.93 0.742429 1.44661 0
M  V30 15456 O 1419.11 0.991955 1.60289 0
M  V30 15457 C 1416.24 2.10107 2.65655 0
M  V30 15458 C 1415.29 3.32804 2.66728 0
M  V30 15459 S 1416.12 4.88384 2.1964 0
M  V30 15460 C 1417.28 5.13151 3.58367 0
M  V30 15461 H 1417.51 2.79517 1.01281 0
M  V30 15462 H 1415.04 1.4878 0.412768 0
M  V30 15463 H 1417 2.23302 3.44451 0
M  V30 15464 H 1415.66 1.19756 2.90374 0
M  V30 15465 H 1414.85 3.4508 3.67336 0
M  V30 15466 H 1414.46 3.18525 1.96004 0
M  V30 15467 H 1416.75 5.02759 4.54136 0
M  V30 15468 H 1417.69 6.14985 3.50998 0
M  V30 15469 H 1418.1 4.4084 3.52591 0
M  V30 15470 N 1417.5 -0.477127 1.50204 0
M  V30 15471 C 1418.43 -1.59319 1.64773 0
M  V30 15472 C 1419.44 -1.53951 0.529427 0
M  V30 15473 O 1420.63 -1.59449 0.802388 0
M  V30 15474 C 1417.73 -2.98185 1.61055 0
M  V30 15475 C 1416.9 -3.28486 2.88817 0
M  V30 15476 C 1415.96 -4.46878 2.77825 0
M  V30 15477 O 1414.99 -4.47483 3.51778 0
M  V30 15478 N 1416.19 -5.48187 1.90974 0
M  V30 15479 H 1418.96 -1.4724 2.61037 0
M  V30 15480 H 1416.52 -0.66544 1.47592 0
M  V30 15481 H 1418.51 -3.75345 1.51323 0
M  V30 15482 H 1417.08 -3.04064 0.725509 0
M  V30 15483 H 1416.3 -2.39997 3.12722 0
M  V30 15484 H 1417.59 -3.4554 3.7347 0
M  V30 15485 H 1416.99 -5.50515 1.30192 0
M  V30 15486 H 1415.54 -6.24355 1.87148 0
M  V30 15487 N 1418.98 -1.3968 -0.729882 0
M  V30 15488 C 1420.25 -1.27689 -1.48172 0
M  V30 15489 C 1420.63 0.111239 -2.10807 0
M  V30 15490 O 1419.98 1.12289 -1.99006 0
M  V30 15491 C 1420.19 -2.40505 -2.529 0
M  V30 15492 C 1421.54 -2.80064 -3.19138 0
M  V30 15493 O 1422.56 -2.39992 -2.63215 0
M  V30 15494 O 1421.42 -3.49248 -4.20342 0
M  V30 15495 H 1418.52 -0.500674 -0.658221 0
M  V30 15496 H 1421.06 -1.51566 -0.763272 0
M  V30 15497 H 1419.83 -3.33282 -2.05033 0
M  V30 15498 H 1419.46 -2.1832 -3.32298 0
M  V30 15499 N 1420.45 0.960609 -1.2494 0
M  V30 15500 C 1421.73 1.68035 -1.00118 0
M  V30 15501 C 1422.11 2.057 0.474399 0
M  V30 15502 O 1421.46 1.76569 1.45036 0
M  V30 15503 C 1421.67 2.90708 -1.93106 0
M  V30 15504 C 1423.02 3.62792 -2.20606 0
M  V30 15505 O 1424.04 3.00778 -1.90816 0
M  V30 15506 O 1422.9 4.74443 -2.71231 0
M  V30 15507 H 1419.99 0.734939 -0.379202 0
M  V30 15508 H 1422.54 1.01407 -1.36069 0
M  V30 15509 H 1421.31 2.59619 -2.92769 0
M  V30 15510 H 1420.94 3.65068 -1.57515 0
M  V30 15511 N 1421.93 1.0643 1.16234 0
M  V30 15512 C 1422.88 0.670457 2.22728 0
M  V30 15513 C 1423.87 -0.31428 1.66459 0
M  V30 15514 O 1425.08 -0.178996 1.79108 0
M  V30 15515 H 1421.46 0.198692 0.725276 0
M  V30 15516 H 1423.43 1.57846 2.53233 0
M  V30 15517 C 1422.18 0.074379 3.4762 0
M  V30 15518 H 1421.5 0.823227 3.91233 0
M  V30 15519 H 1422.94 -0.163652 4.23684 0
M  V30 15520 C 1421.4 -1.18242 3.15469 0
M  V30 15521 O 1421.93 -2.27018 3.314 0
M  V30 15522 N 1420.13 -1.08493 2.69588 0
M  V30 15523 H 1419.68 -0.199714 2.56825 0
M  V30 15524 H 1419.64 -1.92666 2.48449 0
M  V30 15525 N 1423.41 -1.329 0.847073 0
M  V30 15526 C 1424.83 -1.50333 0.53593 0
M  V30 15527 C 1425.03 -1.78492 -0.93504 0
M  V30 15528 O 1424.08 -1.85001 -1.71846 0
M  V30 15529 C 1425.4 -2.65254 1.41636 0
M  V30 15530 C 1426.94 -2.79139 1.416 0
M  V30 15531 C 1427.42 -3.97131 2.28147 0
M  V30 15532 N 1428.91 -4.0438 2.25901 0
M  V30 15533 C 1429.64 -4.94893 2.89601 0
M  V30 15534 N 1429.14 -5.90466 3.62383 0
M  V30 15535 N 1430.93 -4.87955 2.79028 0
M  V30 15536 H 1423.08 -1.12886 1.79918 0
M  V30 15537 H 1425.35 -0.555707 0.768045 0
M  V30 15538 H 1425.05 -2.51151 2.46203 0
M  V30 15539 H 1424.93 -3.60856 1.09829 0
M  V30 15540 H 1427.31 -2.92669 0.378013 0
M  V30 15541 H 1427.4 -1.84273 1.77418 0
M  V30 15542 H 1427.04 -3.8436 3.32009 0
M  V30 15543 H 1426.97 -4.91258 1.89665 0
M  V30 15544 H 1429.46 -3.35986 1.72979 0
M  V30 15545 H 1429.77 -6.56212 4.08174 0
M  V30 15546 H 1428.12 -5.90516 3.66491 0
M  V30 15547 H 1431.31 -4.12258 2.21723 0
M  V30 15548 H 1431.48 -5.58295 3.28954 0
M  V30 15549 N 1424.89 -0.604284 -1.45555 0
M  V30 15550 C 1426.14 -0.0979922 -2.01862 0
M  V30 15551 C 1426.46 1.27476 -1.47563 0
M  V30 15552 O 1425.73 1.84137 -0.668612 0
M  V30 15553 H 1424.31 -0.033235 -0.74626 0
M  V30 15554 H 1426.97 -0.784936 -1.78395 0
M  V30 15555 H 1426.07 -0.0452716 -3.12067 0
M  V30 15556 N 1426.37 1.53816 -0.343257 0
M  V30 15557 C 1427.3 2.27951 0.506005 0
M  V30 15558 C 1428.28 1.29502 1.10287 0
M  V30 15559 O 1429.46 1.58344 1.12432 0
M  V30 15560 C 1426.59 3.0521 1.65723 0
M  V30 15561 C 1425.55 4.11161 1.18871 0
M  V30 15562 C 1424.87 4.76373 2.42843 0
M  V30 15563 C 1426.17 5.21498 0.289403 0
M  V30 15564 H 1427.87 2.99189 -0.112435 0
M  V30 15565 H 1425.41 1.43893 -0.055516 0
M  V30 15566 H 1427.37 3.55811 2.2578 0
M  V30 15567 H 1426.09 2.31624 2.30256 0
M  V30 15568 H 1424.75 3.61473 0.610962 0
M  V30 15569 H 1424.4 3.99381 3.05784 0
M  V30 15570 H 1424.1 5.47955 2.12177 0
M  V30 15571 H 1425.62 5.29758 3.03627 0
M  V30 15572 H 1427.03 5.67736 0.796808 0
M  V30 15573 H 1425.43 6.00054 0.0746366 0
M  V30 15574 H 1426.5 4.80185 -0.674543 0
M  V30 15575 N 1427.84 0.0718701 1.57436 0
M  V30 15576 C 1428.75 -0.910077 2.16229 0
M  V30 15577 C 1429.77 -1.32699 1.12548 0
M  V30 15578 O 1430.95 -1.39967 1.44814 0
M  V30 15579 C 1428.01 -2.15942 2.71238 0
M  V30 15580 C 1427.07 -1.79891 3.89792 0
M  V30 15581 C 1426.31 -2.9887 4.42168 0
M  V30 15582 O 1426.53 -4.1289 3.93545 0
M  V30 15583 O 1425.46 -2.78682 5.33498 0
M  V30 15584 H 1429.29 -0.439969 3.00496 0
M  V30 15585 H 1426.87 -0.151204 1.48633 0
M  V30 15586 H 1428.76 -2.89204 3.06494 0
M  V30 15587 H 1427.43 -2.62051 1.90029 0
M  V30 15588 H 1426.34 -1.03881 3.59388 0
M  V30 15589 H 1427.67 -1.38566 4.72293 0
M  V30 15590 N 1429.32 -1.56304 -0.201686 0
M  V30 15591 C 1430.25 -1.90538 -1.27389 0
M  V30 15592 C 1431.27 -0.795422 -1.42045 0
M  V30 15593 O 1432.46 -1.07381 -1.42589 0
M  V30 15594 C 1429.56 -2.11638 -2.64694 0
M  V30 15595 C 1428.73 -3.42755 -2.71731 0
M  V30 15596 C 1427.79 -3.53047 -3.90185 0
M  V30 15597 O 1426.81 -4.25923 -3.77595 0
M  V30 15598 N 1428.02 -2.85649 -5.05356 0
M  V30 15599 H 1430.78 -2.83106 -0.983411 0
M  V30 15600 H 1428.34 -1.57092 -0.391638 0
M  V30 15601 H 1430.33 -2.15818 -3.42352 0
M  V30 15602 H 1428.9 -1.256 -2.86258 0
M  V30 15603 H 1428.12 -3.50501 -1.80397 0
M  V30 15604 H 1429.41 -4.29092 -2.73418 0
M  V30 15605 H 1428.81 -2.26256 -5.18483 0
M  V30 15606 H 1427.37 -2.95465 -5.80985 0
M  V30 15607 N 1430.8 0.469154 -1.50455 0
M  V30 15608 C 1432.05 1.21868 -1.61222 0
M  V30 15609 C 1432.37 1.9243 -0.315535 0
M  V30 15610 O 1431.64 1.84192 0.667083 0
M  V30 15611 H 1430.22 0.452828 -0.594101 0
M  V30 15612 H 1432.88 0.540993 -1.87241 0
M  V30 15613 H 1431.98 1.96554 -2.42431 0
M  V30 15614 N 1432.28 1.40065 0.722464 0
M  V30 15615 C 1433.53 1.37277 1.47776 0
M  V30 15616 C 1433.84 -0.0242852 1.95585 0
M  V30 15617 O 1435.05 -0.174769 2.70937 0
M  V30 15618 C 1433.5 2.41233 2.67085 0
M  V30 15619 C 1433.11 3.86716 2.26174 0
M  V30 15620 C 1434.85 2.47541 3.44853 0
M  V30 15621 C 1432.76 4.82284 3.42281 0
M  V30 15622 H 1431.69 0.510405 0.55498 0
M  V30 15623 H 1434.34 1.6577 0.786928 0
M  V30 15624 H 1432.72 2.0583 3.38305 0
M  V30 15625 H 1433.9 4.31227 1.6242 0
M  V30 15626 H 1432.21 3.83819 1.61468 0
M  V30 15627 H 1434.81 3.16131 4.31237 0
M  V30 15628 H 1435.15 1.50379 3.8819 0
M  V30 15629 H 1435.69 2.81901 2.80672 0
M  V30 15630 H 1432.43 5.80754 3.03982 0
M  V30 15631 H 1431.95 4.42443 4.04975 0
M  V30 15632 H 1433.62 5.0178 4.08443 0
M  V30 15633 N 1433.76 -0.95397 1.25448 0
M  V30 15634 C 1434.69 -2.05412 1.01679 0
M  V30 15635 C 1435.7 -1.62789 -0.0184932 0
M  V30 15636 O 1436.89 -1.77137 0.220136 0
M  V30 15637 C 1433.99 -3.3496 0.515292 0
M  V30 15638 C 1433.16 -4.06418 1.61688 0
M  V30 15639 C 1432.22 -5.14237 1.11564 0
M  V30 15640 O 1431.25 -5.39649 1.81017 0
M  V30 15641 N 1432.45 -5.80484 -0.0427228 0
M  V30 15642 H 1435.22 -2.26372 1.96407 0
M  V30 15643 H 1432.78 -1.12257 1.16662 0
M  V30 15644 H 1434.77 -4.04366 0.164426 0
M  V30 15645 H 1433.34 -3.10767 -0.33807 0
M  V30 15646 H 1432.56 -3.31101 2.1393 0
M  V30 15647 H 1433.85 -4.50917 2.35693 0
M  V30 15648 H 1433.25 -5.62259 -0.623038 0
M  V30 15649 H 1431.8 -6.50941 -0.334615 0
M  V30 15650 N 1435.24 -1.07045 -1.15668 0
M  V30 15651 C 1436.51 -0.704942 -1.82455 0
M  V30 15652 C 1436.89 0.812921 -1.9482 0
M  V30 15653 O 1436.24 1.72615 -1.49721 0
M  V30 15654 C 1436.45 -1.41574 -3.18995 0
M  V30 15655 C 1437.8 -1.56584 -3.94673 0
M  V30 15656 O 1438.82 -1.37626 -3.28538 0
M  V30 15657 O 1437.68 -1.87751 -5.13237 0
M  V30 15658 H 1434.78 -0.250469 -0.788159 0
M  V30 15659 H 1437.32 -1.17118 -1.22806 0
M  V30 15660 H 1436.09 -2.4504 -3.05075 0
M  V30 15661 H 1435.72 -0.940071 -3.86327 0
M  V30 15662 N 1436.71 1.32449 -0.85411 0
M  V30 15663 C 1437.66 2.30821 -0.287115 0
M  V30 15664 C 1438.66 1.58823 0.58921 0
M  V30 15665 O 1439.86 1.73563 0.477075 0
M  V30 15666 H 1436.24 0.748336 -0.0741416 0
M  V30 15667 H 1438.21 2.76134 -1.13104 0
M  V30 15668 C 1436.96 3.43937 0.51013 0
M  V30 15669 H 1436.28 3.995 -0.154895 0
M  V30 15670 H 1437.72 4.14927 0.872451 0
M  V30 15671 C 1436.18 2.91147 1.69513 0
M  V30 15672 O 1436.71 2.88595 2.7942 0
M  V30 15673 N 1434.91 2.47554 1.52202 0
M  V30 15674 H 1434.46 2.49829 0.627941 0
M  V30 15675 H 1434.42 2.12587 2.31633 0
M  V30 15676 N 1438.19 0.611994 1.45232 0
M  V30 15677 C 1439.14 -0.104265 2.30564 0
M  V30 15678 C 1440.11 -0.855676 1.42364 0
M  V30 15679 O 1441.29 -0.840534 1.71288 0
M  V30 15680 C 1438.43 -1.09274 3.27343 0
M  V30 15681 C 1437.55 -0.341747 4.30646 0
M  V30 15682 C 1436.68 -1.32034 5.14529 0
M  V30 15683 C 1435.72 -0.557405 6.09557 0
M  V30 15684 N 1434.86 -1.4855 6.86205 0
M  V30 15685 H 1439.7 0.629396 2.91278 0
M  V30 15686 H 1437.23 0.322177 1.43528 0
M  V30 15687 H 1439.19 -1.67902 3.81923 0
M  V30 15688 H 1437.82 -1.79376 2.68373 0
M  V30 15689 H 1436.87 0.360114 3.78692 0
M  V30 15690 H 1438.19 0.253328 4.98156 0
M  V30 15691 H 1437.34 -1.97854 5.73532 0
M  V30 15692 H 1436.08 -1.94934 4.47048 0
M  V30 15693 H 1435.08 0.114401 5.49681 0
M  V30 15694 H 1436.31 0.0666137 6.79067 0
M  V30 15695 H 1434.26 -2.10207 6.21409 0
M  V30 15696 H 1434.17 -0.943972 7.50083 0
M  V30 15697 H 1435.44 -2.13314 7.49745 0
M  V30 15698 N 1439.67 -1.53632 0.351409 0
M  V30 15699 C 1440.92 -2.00222 -0.243731 0
M  V30 15700 C 1441.23 -1.24305 -1.51022 0
M  V30 15701 O 1442.44 -1.61411 -2.18309 0
M  V30 15702 C 1440.89 -3.56619 -0.48487 0
M  V30 15703 C 1440.5 -4.414 0.766173 0
M  V30 15704 C 1442.25 -4.11603 -1.03844 0
M  V30 15705 C 1440.15 -5.89321 0.4954 0
M  V30 15706 H 1439.08 -0.74801 -0.0948534 0
M  V30 15707 H 1441.73 -1.77433 0.467957 0
M  V30 15708 H 1440.12 -3.75505 -1.25746 0
M  V30 15709 H 1441.29 -4.34288 1.54047 0
M  V30 15710 H 1439.6 -3.97448 1.24194 0
M  V30 15711 H 1442.2 -5.19736 -1.25611 0
M  V30 15712 H 1442.54 -3.65311 -1.99634 0
M  V30 15713 H 1443.08 -3.96459 -0.326363 0
M  V30 15714 H 1439.82 -6.39863 1.42324 0
M  V30 15715 H 1439.34 -5.99317 -0.240662 0
M  V30 15716 H 1441.02 -6.46897 0.115584 0
M  V30 15717 N 1441.15 -0.0802183 -1.57396 0
M  V30 15718 C 1442.38 0.595754 -1.98137 0
M  V30 15719 C 1442.79 1.62638 -0.958871 0
M  V30 15720 O 1442.15 1.82422 0.0534316 0
M  V30 15721 C 1442.2 1.2568 -3.38949 0
M  V30 15722 O 1441.92 0.267417 -4.37283 0
M  V30 15723 C 1443.42 2.0198 -3.94612 0
M  V30 15724 H 1440.64 0.160853 -0.651435 0
M  V30 15725 H 1443.18 -0.155111 -2.03911 0
M  V30 15726 H 1441.34 1.9587 -3.34236 0
M  V30 15727 H 1441.75 0.742695 -5.19215 0
M  V30 15728 H 1443.23 2.43613 -4.95335 0
M  V30 15729 H 1443.7 2.87973 -3.31614 0
M  V30 15730 H 1444.31 1.36639 -4.02753 0
M  V30 15731 N 1442.63 1.56409 0.193394 0
M  V30 15732 C 1443.59 1.93822 1.22334 0
M  V30 15733 C 1444.59 0.819513 1.3835 0
M  V30 15734 O 1445.78 1.0869 1.36132 0
M  V30 15735 C 1442.91 2.21375 2.59241 0
M  V30 15736 H 1444.1 2.85967 0.903502 0
M  V30 15737 H 1441.66 1.50125 0.43498 0
M  V30 15738 H 1442.39 1.31874 2.96277 0
M  V30 15739 H 1442.18 3.02899 2.48988 0
M  V30 15740 H 1443.67 2.51319 3.33509 0
M  V30 15741 N 1444.1 -0.461169 1.50702 0
M  V30 15742 C 1445.05 -1.57861 1.70829 0
M  V30 15743 C 1446.05 -1.59371 0.57423 0
M  V30 15744 O 1447.25 -1.63401 0.754996 0
M  V30 15745 H 1443.63 -0.524015 0.539363 0
M  V30 15746 H 1445.6 -1.3805 2.64546 0
M  V30 15747 C 1444.35 -2.95724 1.82873 0
M  V30 15748 H 1443.67 -2.95285 2.6953 0
M  V30 15749 H 1445.11 -3.73342 2.00977 0
M  V30 15750 C 1443.57 -3.31823 0.582691 0
M  V30 15751 O 1444.1 -4.00767 -0.273623 0
M  V30 15752 N 1442.3 -2.87344 0.433781 0
M  V30 15753 H 1441.85 -2.31411 1.13166 0
M  V30 15754 H 1441.81 -3.11861 -0.398743 0
M  V30 15755 N 1445.58 -1.40446 -0.715026 0
M  V30 15756 C 1446.51 -1.43511 -1.84193 0
M  V30 15757 C 1447.49 -0.295969 -1.67505 0
M  V30 15758 O 1448.68 -0.504667 -1.87528 0
M  V30 15759 C 1445.81 -1.29751 -3.22152 0
M  V30 15760 C 1444.76 -2.41274 -3.53512 0
M  V30 15761 C 1444.09 -2.12591 -4.90621 0
M  V30 15762 C 1445.39 -3.83614 -3.54454 0
M  V30 15763 H 1447.08 -2.37819 -1.81885 0
M  V30 15764 H 1444.63 -1.14469 -0.873655 0
M  V30 15765 H 1446.58 -1.30511 -4.0068 0
M  V30 15766 H 1445.3 -0.319189 -3.25037 0
M  V30 15767 H 1443.96 -2.39764 -2.77324 0
M  V30 15768 H 1443.61 -1.13148 -4.90109 0
M  V30 15769 H 1443.31 -2.87308 -5.1257 0
M  V30 15770 H 1444.84 -2.15034 -5.71483 0
M  V30 15771 H 1446.25 -3.86945 -4.23021 0
M  V30 15772 H 1444.65 -4.57855 -3.87929 0
M  V30 15773 H 1445.72 -4.13159 -2.53827 0
M  V30 15774 N 1447.06 0.947303 -1.25952 0
M  V30 15775 C 1448.31 1.69279 -1.11135 0
M  V30 15776 C 1448.63 1.9139 0.346407 0
M  V30 15777 O 1447.89 1.48786 1.27126 0
M  V30 15778 C 1448.19 3.07652 -1.81892 0
M  V30 15779 C 1447.85 3.05317 -3.31802 0
M  V30 15780 C 1446.52 3.04387 -3.72695 0
M  V30 15781 C 1448.87 2.98088 -4.27543 0
M  V30 15782 C 1446.2 2.93987 -5.07729 0
M  V30 15783 C 1448.55 2.89229 -5.62609 0
M  V30 15784 C 1447.21 2.86639 -6.02822 0
M  V30 15785 H 1446.48 0.619435 -0.40667 0
M  V30 15786 H 1449.13 1.10621 -1.56318 0
M  V30 15787 H 1447.43 3.69898 -1.29161 0
M  V30 15788 H 1449.13 3.6417 -1.67873 0
M  V30 15789 H 1445.72 3.06817 -2.99268 0
M  V30 15790 H 1449.91 2.9792 -3.96935 0
M  V30 15791 H 1445.16 2.90355 -5.38056 0
M  V30 15792 H 1449.34 2.82598 -6.36483 0
M  V30 15793 H 1446.96 2.78336 -7.07413 0
M  V30 15794 N 1448.54 1.07657 1.15099 0
M  V30 15795 C 1449.95 0.802696 1.37945 0
M  V30 15796 C 1450.15 -0.591622 1.92619 0
M  V30 15797 O 1449.21 -1.34979 2.13394 0
M  V30 15798 C 1450.52 1.87907 2.34759 0
M  V30 15799 C 1452.07 1.90418 2.48415 0
M  V30 15800 C 1452.55 2.97148 3.48521 0
M  V30 15801 N 1454.04 2.96271 3.56059 0
M  V30 15802 C 1454.77 3.75498 4.33346 0
M  V30 15803 N 1454.27 4.64583 5.1394 0
M  V30 15804 N 1456.06 3.63831 4.28466 0
M  V30 15805 H 1448.21 1.97578 0.779537 0
M  V30 15806 H 1450.48 0.856978 0.405331 0
M  V30 15807 H 1450.18 2.8811 2.01707 0
M  V30 15808 H 1450.06 1.74183 3.34575 0
M  V30 15809 H 1452.44 0.908655 2.80762 0
M  V30 15810 H 1452.52 2.0822 1.48586 0
M  V30 15811 H 1452.17 3.96903 3.16908 0
M  V30 15812 H 1452.1 2.76593 4.48112 0
M  V30 15813 H 1454.59 2.31697 2.98538 0
M  V30 15814 H 1454.9 5.2166 5.70167 0
M  V30 15815 H 1453.25 4.6863 5.13236 0
M  V30 15816 H 1456.44 2.93609 3.6457 0
M  V30 15817 H 1456.61 4.25818 4.8845 0
M  V30 15818 N 1450.02 -1.31994 0.861122 0
M  V30 15819 C 1451.27 -1.96294 0.463868 0
M  V30 15820 C 1451.58 -1.68869 -0.98704 0
M  V30 15821 O 1452.78 -2.26959 -1.49003 0
M  V30 15822 C 1451.24 -3.51377 0.77858 0
M  V30 15823 C 1450.85 -3.87653 2.24565 0
M  V30 15824 C 1452.59 -4.22115 0.449365 0
M  V30 15825 C 1450.5 -5.35809 2.50324 0
M  V30 15826 H 1449.43 -0.734647 0.169733 0
M  V30 15827 H 1452.08 -1.50294 1.0528 0
M  V30 15828 H 1450.46 -3.95821 0.119005 0
M  V30 15829 H 1451.64 -3.54197 2.94755 0
M  V30 15830 H 1449.95 -3.29957 2.54003 0
M  V30 15831 H 1452.55 -5.31103 0.61916 0
M  V30 15832 H 1452.89 -4.11814 -0.609528 0
M  V30 15833 H 1453.42 -3.83276 1.06511 0
M  V30 15834 H 1450.16 -5.51138 3.54863 0
M  V30 15835 H 1449.68 -5.70648 1.84719 0
M  V30 15836 H 1451.36 -6.02968 2.34602 0
M  V30 15837 N 1451.49 -0.619688 -1.44906 0
M  V30 15838 C 1452.42 0.0791121 -2.33366 0
M  V30 15839 C 1453.41 0.846503 -1.47541 0
M  V30 15840 O 1454.59 0.814657 -1.76287 0
M  V30 15841 C 1451.72 1.06901 -3.30438 0
M  V30 15842 C 1450.67 0.41403 -4.25993 0
M  V30 15843 C 1450 1.51303 -5.12846 0
M  V30 15844 C 1451.3 -0.672483 -5.17953 0
M  V30 15845 H 1452.99 -0.659551 -2.92045 0
M  V30 15846 H 1450.54 -0.318623 -1.40431 0
M  V30 15847 H 1452.49 1.56653 -3.912 0
M  V30 15848 H 1451.22 1.83842 -2.69944 0
M  V30 15849 H 1449.88 -0.0627315 -3.66546 0
M  V30 15850 H 1449.52 2.27303 -4.48712 0
M  V30 15851 H 1449.22 1.08022 -5.77586 0
M  V30 15852 H 1450.75 2.01258 -5.76479 0
M  V30 15853 H 1452.16 -0.258542 -5.72717 0
M  V30 15854 H 1450.56 -1.02776 -5.91234 0
M  V30 15855 H 1451.63 -1.54425 -4.59653 0
M  V30 15856 N 1452.97 1.53444 -0.359552 0
M  V30 15857 C 1453.9 2.28475 0.4818 0
M  V30 15858 C 1454.88 1.30664 1.08908 0
M  V30 15859 O 1456.07 1.59527 1.10746 0
M  V30 15860 C 1453.2 3.06951 1.62477 0
M  V30 15861 C 1452.15 4.12399 1.14504 0
M  V30 15862 C 1451.48 4.78922 2.37777 0
M  V30 15863 C 1452.78 5.21775 0.234075 0
M  V30 15864 H 1454.47 2.99053 -0.144162 0
M  V30 15865 H 1452.02 1.43826 -0.0707746 0
M  V30 15866 H 1453.97 3.58186 2.21993 0
M  V30 15867 H 1452.7 2.34053 2.27787 0
M  V30 15868 H 1451.35 3.62101 0.572589 0
M  V30 15869 H 1451 4.02602 3.0153 0
M  V30 15870 H 1450.7 5.50175 2.06353 0
M  V30 15871 H 1452.23 5.32948 2.97991 0
M  V30 15872 H 1453.64 5.68549 0.736548 0
M  V30 15873 H 1452.04 6.00099 0.0109887 0
M  V30 15874 H 1453.11 4.79443 -0.725435 0
M  V30 15875 N 1454.45 0.0885642 1.57351 0
M  V30 15876 C 1455.36 -0.887092 2.17182 0
M  V30 15877 C 1456.38 -1.31498 1.13949 0
M  V30 15878 O 1457.55 -1.38424 1.4629 0
M  V30 15879 C 1454.62 -2.13053 2.73513 0
M  V30 15880 C 1453.68 -1.75747 3.91678 0
M  V30 15881 C 1452.91 -2.94163 4.45313 0
M  V30 15882 O 1453.13 -4.08693 3.97903 0
M  V30 15883 O 1452.07 -2.73008 5.36424 0
M  V30 15884 H 1455.89 -0.408073 3.00946 0
M  V30 15885 H 1453.48 -0.135431 1.48785 0
M  V30 15886 H 1455.36 -2.85937 3.09545 0
M  V30 15887 H 1454.04 -2.6002 1.92798 0
M  V30 15888 H 1452.94 -1.00064 3.60469 0
M  V30 15889 H 1454.28 -1.33549 4.73736 0
M  V30 15890 N 1455.93 -1.56509 -0.185096 0
M  V30 15891 C 1456.88 -1.95336 -1.22934 0
M  V30 15892 C 1457.85 -0.81532 -1.44713 0
M  V30 15893 O 1459.03 -1.07431 -1.57681 0
M  V30 15894 C 1456.17 -2.30671 -2.56681 0
M  V30 15895 C 1455.28 -3.57586 -2.42397 0
M  V30 15896 C 1454.42 -3.82197 -3.68916 0
M  V30 15897 C 1453.46 -5.02505 -3.49507 0
M  V30 15898 N 1452.59 -5.23319 -4.68062 0
M  V30 15899 H 1457.43 -2.84361 -0.89123 0
M  V30 15900 H 1454.97 -1.40715 -0.428689 0
M  V30 15901 H 1456.93 -2.49176 -3.34615 0
M  V30 15902 H 1455.56 -1.44773 -2.88514 0
M  V30 15903 H 1454.61 -3.47072 -1.55709 0
M  V30 15904 H 1455.92 -4.45677 -2.23994 0
M  V30 15905 H 1455.08 -4.00996 -4.55288 0
M  V30 15906 H 1453.82 -2.92455 -3.90284 0
M  V30 15907 H 1452.82 -4.83619 -2.6152 0
M  V30 15908 H 1454.05 -5.93765 -3.29574 0
M  V30 15909 H 1451.99 -4.36526 -4.89674 0
M  V30 15910 H 1451.91 -6.05608 -4.52521 0
M  V30 15911 H 1453.18 -5.46585 -5.55757 0
M  V30 15912 N 1457.41 0.45317 -1.50944 0
M  V30 15913 C 1458.82 0.788393 -1.38768 0
M  V30 15914 C 1459.02 1.96233 -0.457676 0
M  V30 15915 O 1458.08 2.52328 0.0930651 0
M  V30 15916 C 1459.39 1.08363 -2.80496 0
M  V30 15917 C 1460.94 1.18901 -2.89537 0
M  V30 15918 C 1461.41 1.51727 -4.32138 0
M  V30 15919 N 1462.91 1.58683 -4.35171 0
M  V30 15920 C 1463.64 1.85623 -5.42523 0
M  V30 15921 N 1463.14 2.10462 -6.60059 0
M  V30 15922 N 1464.93 1.87274 -5.29986 0
M  V30 15923 H 1457.08 -0.320216 -2.09972 0
M  V30 15924 H 1459.34 -0.0808021 -0.94455 0
M  V30 15925 H 1459.05 0.293897 -3.5047 0
M  V30 15926 H 1458.92 2.01532 -3.18849 0
M  V30 15927 H 1461.31 1.96939 -2.19771 0
M  V30 15928 H 1461.39 0.236691 -2.54703 0
M  V30 15929 H 1461.04 0.74223 -5.02447 0
M  V30 15930 H 1460.97 2.48139 -4.64472 0
M  V30 15931 H 1463.46 1.41455 -3.50427 0
M  V30 15932 H 1463.77 2.30343 -7.37673 0
M  V30 15933 H 1462.11 2.07817 -6.63202 0
M  V30 15934 H 1465.31 1.67377 -4.37153 0
M  V30 15935 H 1465.48 2.07933 -6.13733 0
M  V30 15936 N 1458.88 1.40823 0.707568 0
M  V30 15937 C 1460.11 1.43061 1.50161 0
M  V30 15938 C 1460.53 0.0342144 1.88069 0
M  V30 15939 O 1459.89 -0.959674 1.53818 0
M  V30 15940 C 1459.94 2.33459 2.74826 0
M  V30 15941 O 1459.04 1.78336 3.71847 0
M  V30 15942 H 1458.39 0.48602 0.452417 0
M  V30 15943 H 1460.92 1.85147 0.870742 0
M  V30 15944 H 1460.93 2.48922 3.23267 0
M  V30 15945 H 1459.6 3.34927 2.46571 0
M  V30 15946 H 1458.18 1.7226 3.30728 0
M  V30 15947 N 1460.36 -0.94061 1.26453 0
M  V30 15948 C 1461.33 -2.02096 1.0812 0
M  V30 15949 C 1462.33 -1.60773 0.0293393 0
M  V30 15950 O 1463.52 -1.72051 0.272796 0
M  V30 15951 C 1460.65 -3.34749 0.644646 0
M  V30 15952 H 1461.84 -2.19792 2.04038 0
M  V30 15953 H 1459.39 -1.11965 1.09058 0
M  V30 15954 H 1460.13 -3.22752 -0.316509 0
M  V30 15955 H 1459.91 -3.66095 1.40416 0
M  V30 15956 H 1461.4 -4.14117 0.538233 0
M  V30 15957 N 1461.84 -1.08266 -1.14527 0
M  V30 15958 C 1463.09 -0.812661 -1.85805 0
M  V30 15959 C 1463.42 0.659878 -1.82645 0
M  V30 15960 O 1462.69 1.48498 -1.25612 0
M  V30 15961 C 1462.98 -1.33335 -3.34505 0
M  V30 15962 C 1462.83 -2.87113 -3.46246 0
M  V30 15963 C 1464.15 -0.957435 -4.29559 0
M  V30 15964 H 1461.27 -0.296681 -0.674648 0
M  V30 15965 H 1463.91 -1.34203 -1.34497 0
M  V30 15966 H 1462.06 -0.883056 -3.78331 0
M  V30 15967 H 1463.73 -3.40502 -3.11217 0
M  V30 15968 H 1461.98 -3.24845 -2.87504 0
M  V30 15969 H 1462.65 -3.18618 -4.50762 0
M  V30 15970 H 1465.12 -1.3456 -3.93742 0
M  V30 15971 H 1464 -1.34897 -5.32066 0
M  V30 15972 H 1464.26 0.135689 -4.41892 0
M  V30 15973 N 1463.32 1.31536 -0.86811 0
M  V30 15974 C 1464.27 2.30504 -0.311581 0
M  V30 15975 C 1465.26 1.59439 0.572332 0
M  V30 15976 O 1466.47 1.74059 0.458639 0
M  V30 15977 H 1462.84 0.747508 -0.0820745 0
M  V30 15978 H 1464.81 2.74919 -1.16026 0
M  V30 15979 C 1463.56 3.44459 0.473622 0
M  V30 15980 H 1462.89 3.99313 -0.197259 0
M  V30 15981 H 1464.33 4.15829 0.828393 0
M  V30 15982 C 1462.78 2.92929 1.66416 0
M  V30 15983 O 1463.31 2.91543 2.76344 0
M  V30 15984 N 1461.52 2.49154 1.49568 0
M  V30 15985 H 1461.07 2.50481 0.601408 0
M  V30 15986 H 1461.03 2.15032 2.29366 0
M  V30 15987 N 1464.8 0.627364 1.44575 0
M  V30 15988 C 1466.03 0.137313 2.06444 0
M  V30 15989 C 1466.44 -1.18655 1.46855 0
M  V30 15990 O 1465.8 -1.72699 0.590018 0
M  V30 15991 C 1465.85 0.0123481 3.61498 0
M  V30 15992 O 1465.57 1.28385 4.18866 0
M  V30 15993 C 1467.07 -0.506841 4.40393 0
M  V30 15994 H 1464.29 0.0779387 0.666458 0
M  V30 15995 H 1466.83 0.860701 1.85505 0
M  V30 15996 H 1464.99 -0.66146 3.81711 0
M  V30 15997 H 1465.4 1.12626 5.12265 0
M  V30 15998 H 1466.88 -0.543304 5.4932 0
M  V30 15999 H 1467.35 -1.53314 4.11572 0
M  V30 16000 H 1467.96 0.133589 4.2509 0
M  V30 16001 N 1466.28 -1.53251 0.367684 0
M  V30 16002 C 1467.19 -2.29518 -0.485669 0
M  V30 16003 C 1468.2 -1.35568 -1.09075 0
M  V30 16004 O 1469.38 -1.68626 -1.10124 0
M  V30 16005 C 1466.44 -3.07115 -1.60876 0
M  V30 16006 C 1465.5 -4.16736 -1.031 0
M  V30 16007 C 1464.74 -4.90624 -2.10056 0
M  V30 16008 O 1464.96 -4.64393 -3.31203 0
M  V30 16009 O 1463.89 -5.76503 -1.72996 0
M  V30 16010 H 1467.72 -3.034 0.135017 0
M  V30 16011 H 1465.3 -1.48816 0.132005 0
M  V30 16012 H 1467.19 -3.55564 -2.26168 0
M  V30 16013 H 1465.86 -2.36068 -2.21481 0
M  V30 16014 H 1464.77 -3.72534 -0.341928 0
M  V30 16015 H 1466.1 -4.89956 -0.469473 0
M  V30 16016 N 1467.75 -0.0969077 -1.57302 0
M  V30 16017 C 1468.66 0.875561 -2.17649 0
M  V30 16018 C 1469.68 1.30892 -1.14645 0
M  V30 16019 O 1470.86 1.37646 -1.47022 0
M  V30 16020 C 1467.92 2.116 -2.74639 0
M  V30 16021 C 1466.98 1.73667 -3.92604 0
M  V30 16022 C 1466.21 2.91798 -4.46867 0
M  V30 16023 O 1466.44 4.06577 -4.00064 0
M  V30 16024 O 1465.37 2.70159 -5.37864 0
M  V30 16025 H 1469.2 0.392107 -3.01158 0
M  V30 16026 H 1466.78 0.127539 -1.48855 0
M  V30 16027 H 1468.66 2.84292 -3.11057 0
M  V30 16028 H 1467.34 2.58994 -1.94174 0
M  V30 16029 H 1466.25 0.981505 -3.60995 0
M  V30 16030 H 1467.58 1.31035 -4.74437 0
M  V30 16031 N 1469.23 1.56605 0.176793 0
M  V30 16032 C 1470.14 1.99211 1.23903 0
M  V30 16033 C 1471.16 0.902614 1.48758 0
M  V30 16034 O 1472.33 1.20982 1.61014 0
M  V30 16035 C 1469.4 2.33873 2.55938 0
M  V30 16036 C 1468.46 3.56624 2.38994 0
M  V30 16037 C 1467.69 3.89623 3.64733 0
M  V30 16038 O 1467.92 3.23662 4.6968 0
M  V30 16039 O 1466.85 4.82992 3.5917 0
M  V30 16040 H 1470.68 2.89827 0.907398 0
M  V30 16041 H 1468.26 1.44401 0.383234 0
M  V30 16042 H 1470.14 2.57161 3.33836 0
M  V30 16043 H 1468.82 1.46421 2.88691 0
M  V30 16044 H 1467.72 3.38561 1.59146 0
M  V30 16045 H 1469.06 4.446 2.11167 0
M  V30 16046 N 1470.71 -0.445159 1.51182 0
M  V30 16047 C 1471.66 -1.53975 1.71931 0
M  V30 16048 C 1472.63 -1.56344 0.560865 0
M  V30 16049 O 1473.81 -1.73475 0.794414 0
M  V30 16050 C 1470.95 -2.91756 1.84316 0
M  V30 16051 C 1470.06 -2.98976 3.11829 0
M  V30 16052 C 1469.2 -4.27831 3.14855 0
M  V30 16053 C 1468.24 -4.2889 4.36715 0
M  V30 16054 N 1467.38 -5.49257 4.37334 0
M  V30 16055 H 1472.22 -1.35586 2.65368 0
M  V30 16056 H 1469.75 -0.658787 1.31523 0
M  V30 16057 H 1471.71 -3.7169 1.89479 0
M  V30 16058 H 1470.34 -3.08721 0.942947 0
M  V30 16059 H 1469.39 -2.11753 3.16014 0
M  V30 16060 H 1470.7 -2.95619 4.01759 0
M  V30 16061 H 1469.86 -5.16134 3.1889 0
M  V30 16062 H 1468.6 -4.33833 2.228 0
M  V30 16063 H 1467.6 -3.38982 4.32864 0
M  V30 16064 H 1468.83 -4.24558 5.30026 0
M  V30 16065 H 1466.77 -5.55995 3.48145 0
M  V30 16066 H 1466.69 -5.47748 5.21064 0
M  V30 16067 H 1467.96 -6.39613 4.45551 0
M  V30 16068 N 1472.19 -1.41197 -0.700089 0
M  V30 16069 C 1473.13 -1.42688 -1.81407 0
M  V30 16070 C 1474.1 -0.28182 -1.63692 0
M  V30 16071 O 1475.29 -0.482196 -1.84606 0
M  V30 16072 C 1472.43 -1.31041 -3.19252 0
M  V30 16073 C 1471.54 -2.5538 -3.48432 0
M  V30 16074 C 1470.68 -2.3606 -4.75867 0
M  V30 16075 C 1469.72 -3.55898 -4.97999 0
M  V30 16076 N 1468.85 -3.35676 -6.16657 0
M  V30 16077 H 1473.69 -2.37898 -1.79467 0
M  V30 16078 H 1471.23 -1.18137 -0.87647 0
M  V30 16079 H 1473.19 -1.22292 -3.98874 0
M  V30 16080 H 1471.82 -0.394422 -3.20381 0
M  V30 16081 H 1470.87 -2.74598 -2.6325 0
M  V30 16082 H 1472.18 -3.44535 -3.6069 0
M  V30 16083 H 1471.34 -2.24752 -5.63535 0
M  V30 16084 H 1470.08 -1.44355 -4.65846 0
M  V30 16085 H 1469.08 -3.67665 -4.08781 0
M  V30 16086 H 1470.31 -4.4855 -5.09882 0
M  V30 16087 H 1468.25 -2.46667 -6.07858 0
M  V30 16088 H 1468.17 -4.18404 -6.29662 0
M  V30 16089 H 1469.44 -3.28132 -7.07071 0
M  V30 16090 N 1473.67 0.933891 -1.2695 0
M  V30 16091 C 1474.89 1.72042 -1.15828 0
M  V30 16092 C 1475.32 1.85975 0.28193 0
M  V30 16093 O 1474.67 1.35528 1.20423 0
M  V30 16094 C 1474.72 3.10112 -1.84019 0
M  V30 16095 O 1473.83 3.96504 -1.13394 0
M  V30 16096 H 1473.17 0.527573 -0.40319 0
M  V30 16097 H 1475.7 1.16914 -1.67905 0
M  V30 16098 H 1475.71 3.60461 -1.91133 0
M  V30 16099 H 1474.38 2.99287 -2.8879 0
M  V30 16100 H 1472.96 3.54948 -1.14307 0
M  V30 16101 N 1475.14 1.08871 1.13951 0
M  V30 16102 C 1476.39 0.822504 1.85372 0
M  V30 16103 C 1476.72 -0.650183 1.82993 0
M  V30 16104 O 1476 -1.4783 1.26398 0
M  V30 16105 C 1476.28 1.35107 3.33793 0
M  V30 16106 C 1476.13 2.88945 3.44719 0
M  V30 16107 C 1477.45 0.980203 4.29045 0
M  V30 16108 H 1474.57 0.300255 0.673065 0
M  V30 16109 H 1477.21 1.34914 1.33784 0
M  V30 16110 H 1475.36 0.903108 3.77857 0
M  V30 16111 H 1477.04 3.42148 3.09407 0
M  V30 16112 H 1475.28 3.26365 2.85777 0
M  V30 16113 H 1475.95 3.21004 4.49066 0
M  V30 16114 H 1478.43 1.36646 3.93023 0
M  V30 16115 H 1477.3 1.37717 5.31343 0
M  V30 16116 H 1477.56 -0.112253 4.41957 0
M  V30 16117 N 1476.62 -1.31073 0.875073 0
M  V30 16118 C 1477.85 -2.01223 0.502383 0
M  V30 16119 C 1478.27 -1.65223 -0.899053 0
M  V30 16120 O 1477.63 -0.863559 -1.59412 0
M  V30 16121 C 1477.68 -3.54269 0.672747 0
M  V30 16122 O 1476.78 -4.11409 -0.285718 0
M  V30 16123 H 1476.12 -0.633422 0.199181 0
M  V30 16124 H 1478.65 -1.67152 1.17989 0
M  V30 16125 H 1478.66 -4.04027 0.567973 0
M  V30 16126 H 1477.34 -3.79811 1.69459 0
M  V30 16127 H 1475.91 -3.72654 -0.135472 0
M  V30 16128 N 1478.1 -0.635022 -1.4424 0
M  V30 16129 C 1479.33 -0.148045 -2.06069 0
M  V30 16130 C 1479.74 1.1842 -1.47558 0
M  V30 16131 O 1479.08 1.73817 -0.594425 0
M  V30 16132 C 1479.14 0.0369593 -3.59481 0
M  V30 16133 C 1478.81 -1.21773 -4.40478 0
M  V30 16134 C 1479.8 -2.14233 -4.73709 0
M  V30 16135 C 1477.49 -1.45423 -4.80788 0
M  V30 16136 C 1479.48 -3.2865 -5.46139 0
M  V30 16137 C 1477.17 -2.60136 -5.52967 0
M  V30 16138 C 1478.17 -3.51576 -5.85562 0
M  V30 16139 O 1477.86 -4.64289 -6.5627 0
M  V30 16140 H 1477.59 -0.0787231 -0.671401 0
M  V30 16141 H 1480.14 -0.870639 -1.86035 0
M  V30 16142 H 1478.37 0.814739 -3.7802 0
M  V30 16143 H 1480.06 0.478984 -4.03064 0
M  V30 16144 H 1480.83 -1.97196 -4.43101 0
M  V30 16145 H 1476.71 -0.751378 -4.54835 0
M  V30 16146 H 1480.25 -4.00043 -5.71499 0
M  V30 16147 H 1476.15 -2.77114 -5.82991 0
M  V30 16148 H 1476.92 -4.6332 -6.74742 0
M  V30 16149 N 1479.58 1.53054 -0.375806 0
M  V30 16150 C 1480.99 1.86426 0.101188 0
M  V30 16151 C 1481.34 1.29603 1.47301 0
M  V30 16152 O 1480.47 0.622059 2.07266 0
M  V30 16153 C 1481.06 3.38265 0.190389 0
M  V30 16154 C 1479.62 3.71397 0.611653 0
M  V30 16155 C 1478.77 2.76304 -0.234801 0
M  V30 16156 H 1481.72 1.47156 -0.594211 0
M  V30 16157 H 1481.74 3.66793 1.01207 0
M  V30 16158 H 1481.25 3.79592 -0.80818 0
M  V30 16159 H 1479.35 3.35632 1.61808 0
M  V30 16160 H 1479.46 4.77597 0.379168 0
M  V30 16161 H 1477.83 2.52952 0.297888 0
M  V30 16162 H 1478.61 3.20467 -1.2311 0
M  V30 16163 N 1481.06 0.105248 1.57248 0
M  V30 16164 C 1482.28 -0.567515 1.99484 0
M  V30 16165 C 1482.71 -1.60298 0.984182 0
M  V30 16166 O 1482.06 -1.81242 -0.0459944 0
M  V30 16167 C 1482.11 -1.18271 3.40653 0
M  V30 16168 O 1481.22 -2.29843 3.42412 0
M  V30 16169 H 1480.56 -0.143069 0.648404 0
M  V30 16170 H 1483.09 0.189661 2.03719 0
M  V30 16171 H 1483.1 -1.52157 3.78566 0
M  V30 16172 H 1481.77 -0.424179 4.13731 0
M  V30 16173 H 1480.35 -1.975 3.16304 0
M  V30 16174 N 1482.53 -1.56697 -0.168486 0
M  V30 16175 C 1483.46 -1.99659 -1.21073 0
M  V30 16176 C 1484.45 -0.872625 -1.46011 0
M  V30 16177 O 1485.63 -1.13891 -1.57297 0
M  V30 16178 C 1482.76 -2.35889 -2.54899 0
M  V30 16179 C 1481.71 -3.51272 -2.44524 0
M  V30 16180 C 1481.04 -3.73253 -3.82866 0
M  V30 16181 C 1482.34 -4.84631 -1.94756 0
M  V30 16182 H 1484.03 -2.86974 -0.853593 0
M  V30 16183 H 1481.58 -1.38065 -0.409165 0
M  V30 16184 H 1483.53 -2.64542 -3.28017 0
M  V30 16185 H 1482.26 -1.45486 -2.92406 0
M  V30 16186 H 1480.92 -3.22751 -1.7386 0
M  V30 16187 H 1480.56 -2.80136 -4.17772 0
M  V30 16188 H 1480.26 -4.5089 -3.76792 0
M  V30 16189 H 1481.79 -4.04309 -4.57566 0
M  V30 16190 H 1483.2 -5.12142 -2.5765 0
M  V30 16191 H 1481.6 -5.65925 -1.99623 0
M  V30 16192 H 1482.67 -4.76436 -0.902021 0
M  V30 16193 N 1484.01 0.437135 -1.51416 0
M  V30 16194 C 1484.94 1.538 -1.75692 0
M  V30 16195 C 1485.92 1.5891 -0.606759 0
M  V30 16196 O 1487.11 1.74635 -0.849492 0
M  V30 16197 C 1484.24 2.91877 -1.88215 0
M  V30 16198 C 1483.19 3.01628 -3.03652 0
M  V30 16199 C 1482.52 4.41687 -3.01358 0
M  V30 16200 C 1483.82 2.75691 -4.43612 0
M  V30 16201 H 1485.51 1.33737 -2.67871 0
M  V30 16202 H 1483.06 0.641936 -1.289 0
M  V30 16203 H 1485.01 3.68851 -2.03781 0
M  V30 16204 H 1483.74 3.13173 -0.926847 0
M  V30 16205 H 1482.39 2.27094 -2.87791 0
M  V30 16206 H 1482.04 4.5995 -2.03605 0
M  V30 16207 H 1481.74 4.49141 -3.78875 0
M  V30 16208 H 1483.27 5.20634 -3.19018 0
M  V30 16209 H 1484.68 3.42398 -4.59822 0
M  V30 16210 H 1483.08 2.94554 -5.22836 0
M  V30 16211 H 1484.15 1.71297 -4.53636 0
M  V30 16212 N 1485.49 1.41566 0.692592 0
M  V30 16213 C 1486.72 1.44646 1.48635 0
M  V30 16214 C 1487.14 0.0541597 1.88022 0
M  V30 16215 O 1486.5 -0.943305 1.54827 0
M  V30 16216 C 1486.55 2.3636 2.72335 0
M  V30 16217 O 1485.65 1.8227 3.69934 0
M  V30 16218 H 1484.99 0.490791 0.447236 0
M  V30 16219 H 1487.52 1.8606 0.851056 0
M  V30 16220 H 1487.53 2.52337 3.20609 0
M  V30 16221 H 1486.21 3.37523 2.43004 0
M  V30 16222 H 1484.78 1.75759 3.28882 0
M  V30 16223 N 1486.97 -0.927146 1.27443 0
M  V30 16224 C 1487.92 -2.01402 1.06871 0
M  V30 16225 C 1488.9 -1.609 -0.00345395 0
M  V30 16226 O 1490.09 -1.75688 0.215147 0
M  V30 16227 C 1487.22 -3.35697 0.718508 0
M  V30 16228 C 1486.31 -3.82641 1.82884 0
M  V30 16229 N 1486.7 -4.02091 3.06849 0
M  V30 16230 C 1485 -4.11682 1.71564 0
M  V30 16231 C 1485.7 -4.41195 3.79107 0
M  V30 16232 N 1484.68 -4.48697 3.06874 0
M  V30 16233 H 1488.48 -2.14471 2.00946 0
M  V30 16234 H 1485.99 -1.11402 1.18166 0
M  V30 16235 H 1487.99 -4.13226 0.552238 0
M  V30 16236 H 1486.65 -3.2399 -0.214622 0
M  V30 16237 H 1487.66 -3.88384 3.42605 0
M  V30 16238 H 1484.34 -4.08685 0.853381 0
M  V30 16239 H 1485.73 -4.64318 4.85653 0
M  V30 16240 N 1488.45 -1.09474 -1.13372 0
M  V30 16241 C 1489.7 -0.825968 -1.84013 0
M  V30 16242 C 1490.01 0.650623 -1.84462 0
M  V30 16243 O 1491.21 1.03495 -2.51 0
M  V30 16244 C 1489.67 -1.42769 -3.30371 0
M  V30 16245 C 1489.28 -2.93686 -3.38308 0
M  V30 16246 C 1491.02 -1.23788 -4.0605 0
M  V30 16247 C 1488.93 -3.46942 -4.78942 0
M  V30 16248 H 1487.86 -0.305322 -0.689416 0
M  V30 16249 H 1490.51 -1.31751 -1.27726 0
M  V30 16250 H 1488.89 -0.86384 -3.86463 0
M  V30 16251 H 1490.07 -3.56302 -2.92208 0
M  V30 16252 H 1488.38 -3.11706 -2.76094 0
M  V30 16253 H 1490.98 -1.61031 -5.09876 0
M  V30 16254 H 1491.32 -0.178578 -4.15917 0
M  V30 16255 H 1491.85 -1.76927 -3.56289 0
M  V30 16256 H 1488.59 -4.52495 -4.74267 0
M  V30 16257 H 1488.11 -2.8909 -5.25535 0
M  V30 16258 H 1489.79 -3.44176 -5.47861 0
M  V30 16259 N 1489.92 1.30607 -0.882012 0
M  V30 16260 C 1491.15 2.00418 -0.513815 0
M  V30 16261 C 1491.57 1.66135 0.896916 0
M  V30 16262 O 1490.92 0.89691 1.5894 0
M  V30 16263 C 1490.98 3.55133 -0.675503 0
M  V30 16264 O 1490.7 3.88194 -2.03069 0
M  V30 16265 C 1492.2 4.42215 -0.309906 0
M  V30 16266 H 1489.42 0.640839 -0.198913 0
M  V30 16267 H 1491.96 1.66561 -1.1865 0
M  V30 16268 H 1490.12 3.87367 -0.0502289 0
M  V30 16269 H 1490.53 4.82899 -2.04717 0
M  V30 16270 H 1492 5.49962 -0.473948 0
M  V30 16271 H 1492.48 4.32717 0.751852 0
M  V30 16272 H 1493.09 4.1542 -0.91138 0
M  V30 16273 N 1491.4 0.642663 1.43901 0
M  V30 16274 C 1492.63 0.157518 2.06801 0
M  V30 16275 C 1493.05 -1.16361 1.47789 0
M  V30 16276 O 1492.41 -1.71645 0.583747 0
M  V30 16277 C 1492.46 0.0685904 3.60535 0
M  V30 16278 O 1491.56 -0.972183 4.00777 0
M  V30 16279 H 1490.9 0.0900406 0.657867 0
M  V30 16280 H 1493.43 0.882604 1.84584 0
M  V30 16281 H 1493.44 -0.118212 4.07829 0
M  V30 16282 H 1492.12 1.03307 4.02865 0
M  V30 16283 H 1490.7 -0.75902 3.65094 0
M  V30 16284 N 1492.88 -1.52852 0.383918 0
M  V30 16285 C 1494.11 -2.06406 -0.202764 0
M  V30 16286 C 1494.53 -1.25421 -1.40183 0
M  V30 16287 O 1493.89 -0.277876 -1.79158 0
M  V30 16288 C 1493.94 -3.56281 -0.556414 0
M  V30 16289 O 1493.04 -3.77904 -1.65113 0
M  V30 16290 H 1492.38 -0.663523 -0.0251737 0
M  V30 16291 H 1494.91 -1.97074 0.54983 0
M  V30 16292 H 1494.92 -3.99629 -0.822249 0
M  V30 16293 H 1493.6 -4.14665 0.320253 0
M  V30 16294 H 1492.17 -3.46448 -1.37943 0
M  V30 16295 N 1494.36 -0.113586 -1.5719 0
M  V30 16296 C 1495.29 0.835363 -2.18046 0
M  V30 16297 C 1496.27 1.28114 -1.11897 0
M  V30 16298 O 1497.46 1.34472 -1.40111 0
M  V30 16299 C 1494.59 2.08759 -2.77556 0
M  V30 16300 C 1493.54 1.77979 -3.8924 0
M  V30 16301 C 1492.87 3.10185 -4.35533 0
M  V30 16302 C 1494.17 1.05231 -5.11589 0
M  V30 16303 H 1495.86 0.328275 -2.97595 0
M  V30 16304 H 1493.41 0.156456 -1.43148 0
M  V30 16305 H 1495.36 2.75597 -3.18785 0
M  V30 16306 H 1494.08 2.61783 -1.95288 0
M  V30 16307 H 1492.74 1.13532 -3.48577 0
M  V30 16308 H 1492.39 3.61133 -3.50131 0
M  V30 16309 H 1492.09 2.90367 -5.10843 0
M  V30 16310 H 1493.61 3.78151 -4.7941 0
M  V30 16311 H 1495.03 1.62213 -5.49872 0
M  V30 16312 H 1493.42 0.955269 -5.92448 0
M  V30 16313 H 1494.49 0.038137 -4.84885 0
M  V30 16314 N 1495.84 1.56784 0.160173 0
M  V30 16315 C 1496.77 1.92391 1.22723 0
M  V30 16316 C 1497.75 0.788076 1.42226 0
M  V30 16317 O 1498.93 1.04245 1.57052 0
M  V30 16318 C 1496.06 2.18452 2.58836 0
M  V30 16319 C 1495.11 3.41121 2.56005 0
M  V30 16320 S 1495.94 4.95124 2.03991 0
M  V30 16321 C 1497.09 5.24292 3.4186 0
M  V30 16322 H 1497.33 2.82597 0.92337 0
M  V30 16323 H 1494.86 1.50018 0.365226 0
M  V30 16324 H 1496.82 2.34147 3.37172 0
M  V30 16325 H 1495.48 1.28934 2.86417 0
M  V30 16326 H 1494.67 3.56592 3.56172 0
M  V30 16327 H 1494.27 3.246 1.85771 0
M  V30 16328 H 1496.57 5.16953 4.37911 0
M  V30 16329 H 1497.51 6.2584 3.31255 0
M  V30 16330 H 1497.92 4.51834 3.38387 0
M  V30 16331 N 1497.32 -0.429099 1.51646 0
M  V30 16332 C 1498.26 -1.54202 1.74139 0
M  V30 16333 C 1499.26 -1.58117 0.607905 0
M  V30 16334 O 1500.46 -1.61763 0.789486 0
M  V30 16335 H 1496.84 -0.512456 0.550357 0
M  V30 16336 H 1498.81 -1.32408 2.67415 0
M  V30 16337 C 1497.56 -2.91779 1.89104 0
M  V30 16338 H 1496.88 -2.89502 2.75733 0
M  V30 16339 H 1498.32 -3.68995 2.08851 0
M  V30 16340 C 1496.78 -3.30512 0.652945 0
M  V30 16341 O 1497.31 -4.01257 -0.188553 0
M  V30 16342 N 1495.52 -2.86359 0.494634 0
M  V30 16343 H 1495.06 -2.28959 1.18049 0
M  V30 16344 H 1495.02 -3.12637 -0.332503 0
M  V30 16345 N 1498.79 -1.41931 -0.685074 0
M  V30 16346 C 1499.74 -1.41066 -1.79121 0
M  V30 16347 C 1500.73 -0.283467 -1.58383 0
M  V30 16348 O 1501.92 -0.524931 -1.69037 0
M  V30 16349 C 1499.05 -1.30551 -3.17508 0
M  V30 16350 C 1498.13 -2.48174 -3.43905 0
M  V30 16351 N 1498.53 -3.73621 -3.40941 0
M  V30 16352 C 1496.82 -2.42213 -3.74498 0
M  V30 16353 C 1497.52 -4.51693 -3.66536 0
M  V30 16354 N 1496.5 -3.81955 -3.86796 0
M  V30 16355 H 1500.3 -2.35965 -1.75208 0
M  V30 16356 H 1497.82 -1.36135 -0.885498 0
M  V30 16357 H 1499.81 -1.28013 -3.9676 0
M  V30 16358 H 1498.47 -0.366454 -3.22625 0
M  V30 16359 H 1499.48 -4.0636 -3.21079 0
M  V30 16360 H 1496.16 -1.56835 -3.86923 0
M  V30 16361 H 1497.55 -5.60654 -3.70292 0
M  V30 16362 N 1500.27 0.920374 -1.27933 0
M  V30 16363 C 1501.68 1.48385 -1.13309 0
M  V30 16364 C 1502.03 1.94202 0.279307 0
M  V30 16365 O 1501.16 1.81855 1.17294 0
M  V30 16366 C 1501.75 2.69681 -2.05079 0
M  V30 16367 C 1500.31 3.22229 -1.94539 0
M  V30 16368 C 1499.46 1.94948 -1.97207 0
M  V30 16369 H 1502.41 0.733744 -1.40719 0
M  V30 16370 H 1502.43 3.44717 -1.6109 0
M  V30 16371 H 1501.94 2.36304 -3.07867 0
M  V30 16372 H 1500.04 3.60348 -0.94764 0
M  V30 16373 H 1500.16 3.87927 -2.81157 0
M  V30 16374 H 1498.52 2.1176 -1.41527 0
M  V30 16375 H 1499.3 1.63875 -3.01662 0
M  V30 16376 N 1501.75 1.10074 1.1279 0
M  V30 16377 C 1503 0.842118 1.84489 0
M  V30 16378 C 1503.33 -0.630737 1.83672 0
M  V30 16379 O 1502.6 -1.46481 1.27959 0
M  V30 16380 C 1502.89 1.3864 3.32342 0
M  V30 16381 C 1502.74 2.92585 3.41635 0
M  V30 16382 C 1504.06 1.02565 4.27982 0
M  V30 16383 H 1501.18 0.307376 0.669842 0
M  V30 16384 H 1503.82 1.36326 1.32345 0
M  V30 16385 H 1501.97 0.943134 3.76878 0
M  V30 16386 H 1503.64 3.4541 3.0576 0
M  V30 16387 H 1501.88 3.29378 2.82299 0
M  V30 16388 H 1502.56 3.25749 4.45636 0
M  V30 16389 H 1505.03 1.40807 3.91552 0
M  V30 16390 H 1503.91 1.43345 5.29852 0
M  V30 16391 H 1504.17 -0.0653712 4.42052 0
M  V30 16392 N 1503.23 -1.30138 0.888926 0
M  V30 16393 C 1504.48 -1.95265 0.5054 0
M  V30 16394 C 1504.79 -1.70925 -0.950998 0
M  V30 16395 O 1506 -2.30069 -1.44155 0
M  V30 16396 C 1504.45 -3.49647 0.852937 0
M  V30 16397 C 1504.06 -3.82802 2.32737 0
M  V30 16398 C 1505.8 -4.21067 0.538801 0
M  V30 16399 C 1503.71 -5.30379 2.61633 0
M  V30 16400 H 1502.64 -0.730882 0.185278 0
M  V30 16401 H 1505.29 -1.48027 1.08444 0
M  V30 16402 H 1503.67 -3.9548 0.202937 0
M  V30 16403 H 1504.85 -3.47866 3.02202 0
M  V30 16404 H 1503.16 -3.24495 2.60944 0
M  V30 16405 H 1505.76 -5.2967 0.731676 0
M  V30 16406 H 1506.1 -4.13014 -0.522039 0
M  V30 16407 H 1506.64 -3.8093 1.14617 0
M  V30 16408 H 1503.37 -5.43486 3.66473 0
M  V30 16409 H 1502.89 -5.66601 1.96782 0
M  V30 16410 H 1504.57 -5.97856 2.47339 0
M  V30 16411 N 1504.71 -0.650285 -1.43559 0
M  V30 16412 C 1506.12 -0.24263 -1.85117 0
M  V30 16413 C 1506.47 1.21017 -1.54432 0
M  V30 16414 O 1505.59 1.92332 -0.991839 0
M  V30 16415 C 1506.19 -0.433575 -3.36014 0
M  V30 16416 C 1504.75 -0.0802635 -3.76314 0
M  V30 16417 C 1503.89 -0.737844 -2.67303 0
M  V30 16418 H 1506.84 -0.854158 -1.33753 0
M  V30 16419 H 1506.87 0.321801 -3.79137 0
M  V30 16420 H 1506.38 -1.49102 -3.58316 0
M  V30 16421 H 1504.48 0.974703 -3.59625 0
M  V30 16422 H 1504.59 -0.503683 -4.76445 0
M  V30 16423 H 1502.96 -0.171349 -2.54123 0
M  V30 16424 H 1503.74 -1.79826 -2.92434 0
M  V30 16425 N 1506.18 1.52647 -0.392018 0
M  V30 16426 C 1507.12 2.22965 0.486007 0
M  V30 16427 C 1508.09 1.23138 1.06188 0
M  V30 16428 O 1509.28 1.52133 1.113 0
M  V30 16429 C 1506.41 2.94498 1.67298 0
M  V30 16430 C 1505.45 4.08616 1.22211 0
M  V30 16431 S 1506.28 5.35121 0.201397 0
M  V30 16432 C 1507.44 6.10177 1.39409 0
M  V30 16433 H 1507.67 2.97092 -0.111111 0
M  V30 16434 H 1505.21 1.53391 -0.176221 0
M  V30 16435 H 1507.16 3.3632 2.3537 0
M  V30 16436 H 1505.83 2.20045 2.24141 0
M  V30 16437 H 1505.02 4.57778 2.10844 0
M  V30 16438 H 1504.62 3.68821 0.620272 0
M  V30 16439 H 1506.91 6.36514 2.3207 0
M  V30 16440 H 1507.86 7.01788 0.943337 0
M  V30 16441 H 1508.26 5.4099 1.61213 0
M  V30 16442 N 1507.66 0.121921 1.57128 0
M  V30 16443 C 1508.63 -0.812905 2.143 0
M  V30 16444 C 1509.63 -1.19261 1.07858 0
M  V30 16445 O 1510.82 -1.11764 1.33621 0
M  V30 16446 C 1507.95 -2.09969 2.68562 0
M  V30 16447 H 1509.14 -0.315992 2.98231 0
M  V30 16448 H 1506.69 -0.12734 1.5578 0
M  V30 16449 H 1507.43 -2.64085 1.88228 0
M  V30 16450 H 1507.21 -1.83688 3.46412 0
M  V30 16451 H 1508.7 -2.76788 3.12695 0
M  V30 16452 N 1509.14 -1.56867 -0.151857 0
M  V30 16453 C 1510.09 -1.98842 -1.20685 0
M  V30 16454 C 1511.08 -0.88007 -1.44745 0
M  V30 16455 O 1512.29 -1.06524 -1.45095 0
M  V30 16456 H 1508.66 -0.632904 -0.406123 0
M  V30 16457 H 1510.63 -2.86737 -0.826095 0
M  V30 16458 C 1509.38 -2.38095 -2.53389 0
M  V30 16459 H 1508.71 -3.2293 -2.35703 0
M  V30 16460 H 1510.15 -2.71292 -3.25847 0
M  V30 16461 C 1508.61 -1.23175 -3.13575 0
M  V30 16462 O 1509.14 -0.529864 -3.9819 0
M  V30 16463 N 1507.34 -0.997255 -2.72953 0
M  V30 16464 H 1506.89 -1.56979 -2.04243 0
M  V30 16465 H 1506.85 -0.23022 -3.13556 0
M  V30 16466 N 1510.62 0.421051 -1.51871 0
M  V30 16467 C 1511.57 1.5122 -1.74359 0
M  V30 16468 C 1512.54 1.55432 -0.585667 0
M  V30 16469 O 1513.72 1.7219 -0.821912 0
M  V30 16470 C 1510.86 2.88787 -1.88935 0
M  V30 16471 C 1509.97 2.93977 -3.16546 0
M  V30 16472 C 1509.11 4.22768 -3.21622 0
M  V30 16473 C 1508.15 4.21888 -4.43483 0
M  V30 16474 N 1507.28 5.4223 -4.46017 0
M  V30 16475 H 1512.12 1.31348 -2.67492 0
M  V30 16476 H 1509.66 0.637779 -1.32555 0
M  V30 16477 H 1511.62 3.68629 -1.95368 0
M  V30 16478 H 1510.25 3.07181 -0.991942 0
M  V30 16479 H 1509.3 2.06699 -3.19343 0
M  V30 16480 H 1510.61 2.8919 -4.06412 0
M  V30 16481 H 1509.77 5.10995 -3.27061 0
M  V30 16482 H 1508.51 4.30234 -2.29674 0
M  V30 16483 H 1507.51 3.32052 -4.38202 0
M  V30 16484 H 1508.74 4.16072 -5.36713 0
M  V30 16485 H 1506.68 5.50386 -3.56947 0
M  V30 16486 H 1506.6 5.39389 -5.29713 0
M  V30 16487 H 1507.87 6.32443 -4.55671 0
M  V30 16488 N 1512.1 1.42293 0.677538 0
M  V30 16489 C 1513.34 1.42616 1.4376 0
M  V30 16490 C 1513.67 0.0416268 1.94455 0
M  V30 16491 O 1512.93 -0.949544 1.7112 0
M  V30 16492 C 1513.23 2.3951 2.65273 0
M  V30 16493 C 1512.89 3.85952 2.33135 0
M  V30 16494 C 1511.55 4.25842 2.24081 0
M  V30 16495 C 1513.91 4.78337 2.06987 0
M  V30 16496 C 1511.23 5.561 1.87001 0
M  V30 16497 C 1513.59 6.08934 1.71411 0
M  V30 16498 C 1512.25 6.47826 1.60865 0
M  V30 16499 H 1511.52 0.521869 0.526055 0
M  V30 16500 H 1514.17 1.75214 0.772797 0
M  V30 16501 H 1512.47 2.00229 3.36773 0
M  V30 16502 H 1514.17 2.37025 3.2345 0
M  V30 16503 H 1510.76 3.54369 2.41083 0
M  V30 16504 H 1514.94 4.48308 2.12916 0
M  V30 16505 H 1510.2 5.85097 1.77403 0
M  V30 16506 H 1514.37 6.80009 1.50203 0
M  V30 16507 H 1512 7.48669 1.31902 0
M  V30 16508 N 1513.57 -0.913576 1.28419 0
M  V30 16509 C 1514.8 -1.70178 1.18551 0
M  V30 16510 C 1515.22 -1.864 -0.252307 0
M  V30 16511 O 1514.58 -1.37427 -1.18252 0
M  V30 16512 C 1514.63 -3.07145 1.8893 0
M  V30 16513 O 1513.73 -3.9465 1.19688 0
M  V30 16514 H 1513.08 -0.521092 0.411533 0
M  V30 16515 H 1515.61 -1.14228 1.69744 0
M  V30 16516 H 1515.62 -3.57375 1.96843 0
M  V30 16517 H 1514.29 -2.94655 2.93515 0
M  V30 16518 H 1512.87 -3.53085 1.19939 0
M  V30 16519 N 1515.05 -1.1067 -1.12204 0
M  V30 16520 C 1516.28 -0.873095 -1.88127 0
M  V30 16521 C 1516.7 0.571099 -1.79221 0
M  V30 16522 O 1516.06 1.40251 -1.14888 0
M  V30 16523 C 1516.11 -1.32922 -3.35208 0
M  V30 16524 O 1515.21 -0.495807 -4.09409 0
M  V30 16525 H 1514.55 -0.315138 -0.584452 0
M  V30 16526 H 1517.08 -1.47413 -1.41882 0
M  V30 16527 H 1517.09 -1.32023 -3.86049 0
M  V30 16528 H 1515.77 -2.38091 -3.41007 0
M  V30 16529 H 1514.35 -0.570216 -3.68515 0
M  V30 16530 N 1516.53 1.29665 -0.895815 0
M  V30 16531 C 1517.94 1.77825 -0.568784 0
M  V30 16532 C 1518.29 1.73534 0.915443 0
M  V30 16533 O 1517.42 1.31885 1.71567 0
M  V30 16534 C 1518.01 3.22901 -1.0257 0
M  V30 16535 C 1516.57 3.68854 -0.749903 0
M  V30 16536 C 1515.72 2.49866 -1.20259 0
M  V30 16537 H 1518.67 1.16381 -1.07894 0
M  V30 16538 H 1518.69 3.788 -0.359312 0
M  V30 16539 H 1518.2 3.25991 -2.10597 0
M  V30 16540 H 1516.3 3.71241 0.317916 0
M  V30 16541 H 1516.42 4.59831 -1.34506 0
M  V30 16542 H 1514.78 2.46997 -0.621676 0
M  V30 16543 H 1515.56 2.55687 -2.29083 0
M  V30 16544 N 1518.01 0.657889 1.43212 0
M  V30 16545 C 1519.24 0.181072 2.06106 0
M  V30 16546 C 1519.65 -1.15513 1.49339 0
M  V30 16547 O 1519.01 -1.71409 0.626517 0
M  V30 16548 C 1519.06 0.0890244 3.6139 0
M  V30 16549 O 1518.78 1.37241 4.16049 0
M  V30 16550 C 1520.28 -0.413313 4.41369 0
M  V30 16551 H 1517.5 0.0920577 0.664655 0
M  V30 16552 H 1520.05 0.899855 1.83638 0
M  V30 16553 H 1518.2 -0.580345 3.83028 0
M  V30 16554 H 1518.61 1.23467 5.09761 0
M  V30 16555 H 1520.09 -0.426663 5.50349 0
M  V30 16556 H 1520.57 -1.44549 4.14731 0
M  V30 16557 H 1521.17 0.223727 4.24711 0
M  V30 16558 N 1519.49 -1.52437 0.400108 0
M  V30 16559 C 1520.42 -2.29672 -0.421054 0
M  V30 16560 C 1521.4 -1.33506 -1.05405 0
M  V30 16561 O 1522.58 -1.62408 -1.06477 0
M  V30 16562 C 1519.71 -3.1115 -1.54281 0
M  V30 16563 C 1518.67 -4.1529 -1.0353 0
M  V30 16564 C 1517.99 -4.85058 -2.24996 0
M  V30 16565 C 1519.29 -5.22212 -0.0956529 0
M  V30 16566 H 1520.99 -2.98565 0.2234 0
M  V30 16567 H 1518.53 -1.43588 0.108883 0
M  V30 16568 H 1520.49 -3.63945 -2.12419 0
M  V30 16569 H 1519.21 -2.4001 -2.21501 0
M  V30 16570 H 1517.87 -3.63492 -0.476383 0
M  V30 16571 H 1517.52 -4.10455 -2.9075 0
M  V30 16572 H 1517.22 -5.55452 -1.91694 0
M  V30 16573 H 1518.74 -5.40661 -2.83756 0
M  V30 16574 H 1520.15 -5.70302 -0.585548 0
M  V30 16575 H 1518.55 -5.99917 0.148121 0
M  V30 16576 H 1519.62 -4.77351 0.852296 0
M  V30 16577 N 1520.96 -0.130252 -1.57061 0
M  V30 16578 C 1521.87 0.829198 -2.19457 0
M  V30 16579 C 1522.89 1.2843 -1.17395 0
M  V30 16580 O 1524.07 1.34496 -1.49909 0
M  V30 16581 C 1521.13 2.05727 -2.79065 0
M  V30 16582 C 1520.19 1.65301 -3.962 0
M  V30 16583 C 1519.43 2.82253 -4.52956 0
M  V30 16584 O 1519.65 3.97999 -4.08598 0
M  V30 16585 O 1518.58 2.5869 -5.43473 0
M  V30 16586 H 1522.41 0.328139 -3.01922 0
M  V30 16587 H 1519.99 0.0959361 -1.49092 0
M  V30 16588 H 1521.88 2.7763 -3.17017 0
M  V30 16589 H 1520.55 2.54817 -1.99624 0
M  V30 16590 H 1519.46 0.904712 -3.62996 0
M  V30 16591 H 1520.79 1.20942 -4.7711 0
M  V30 16592 N 1522.44 1.56945 0.143535 0
M  V30 16593 C 1523.37 2.0156 1.17881 0
M  V30 16594 C 1524.35 0.895744 1.44604 0
M  V30 16595 O 1525.54 1.16379 1.55466 0
M  V30 16596 C 1522.67 2.39915 2.51114 0
M  V30 16597 C 1521.62 3.55117 2.38905 0
M  V30 16598 C 1520.95 3.79296 3.7688 0
M  V30 16599 C 1522.25 4.87668 1.87021 0
M  V30 16600 H 1523.94 2.88296 0.80783 0
M  V30 16601 H 1521.49 1.38698 0.387149 0
M  V30 16602 H 1523.44 2.69727 3.23767 0
M  V30 16603 H 1522.17 1.5012 2.90055 0
M  V30 16604 H 1520.83 3.25476 1.68703 0
M  V30 16605 H 1520.47 2.86747 4.13262 0
M  V30 16606 H 1520.17 4.56827 3.69571 0
M  V30 16607 H 1521.7 4.11537 4.51076 0
M  V30 16608 H 1523.11 5.16176 2.4947 0
M  V30 16609 H 1521.51 5.69029 1.90594 0
M  V30 16610 H 1522.58 4.77811 0.82611 0
M  V30 16611 N 1523.92 -0.412991 1.52093 0
M  V30 16612 C 1524.85 -1.52187 1.71382 0
M  V30 16613 C 1525.87 -1.51567 0.594247 0
M  V30 16614 O 1527.06 -1.55902 0.869293 0
M  V30 16615 C 1524.16 -2.91086 1.73557 0
M  V30 16616 C 1523.33 -3.15941 3.0249 0
M  V30 16617 C 1522.39 -4.34692 2.96529 0
M  V30 16618 O 1521.41 -4.3216 3.70441 0
M  V30 16619 N 1522.62 -5.39594 2.14052 0
M  V30 16620 H 1525.38 -1.36036 2.67047 0
M  V30 16621 H 1522.94 -0.602243 1.50282 0
M  V30 16622 H 1524.93 -3.68589 1.67106 0
M  V30 16623 H 1523.5 -3.00714 0.85382 0
M  V30 16624 H 1522.72 -2.26517 3.2262 0
M  V30 16625 H 1524.01 -3.29388 3.87789 0
M  V30 16626 H 1523.41 -5.44498 1.53424 0
M  V30 16627 H 1521.97 -6.15855 2.13461 0
M  V30 16628 N 1525.4 -1.4265 -0.669982 0
M  V30 16629 C 1526.65 -1.43093 -1.42719 0
M  V30 16630 C 1526.97 -0.0501228 -1.94936 0
M  V30 16631 O 1526.24 0.912077 -1.73372 0
M  V30 16632 H 1524.82 -0.526785 -0.529628 0
M  V30 16633 H 1527.48 -1.78113 -0.791324 0
M  V30 16634 H 1526.58 -2.13357 -2.27783 0
M  V30 16635 N 1526.88 0.906753 -1.28902 0
M  V30 16636 C 1527.79 2.04313 -1.15296 0
M  V30 16637 C 1528.8 1.73826 -0.0778619 0
M  V30 16638 O 1529.98 1.99322 -0.288543 0
M  V30 16639 C 1527.04 3.36782 -0.823317 0
M  V30 16640 C 1526.11 3.80834 -1.98152 0
M  V30 16641 C 1525.34 5.06981 -1.66751 0
M  V30 16642 O 1525.56 5.67391 -0.58513 0
M  V30 16643 O 1524.5 5.46915 -2.51332 0
M  V30 16644 H 1528.32 2.18713 -2.10709 0
M  V30 16645 H 1525.91 1.02928 -1.08287 0
M  V30 16646 H 1527.79 4.16298 -0.653735 0
M  V30 16647 H 1526.46 3.23542 0.101097 0
M  V30 16648 H 1525.37 3.02115 -2.2063 0
M  V30 16649 H 1526.7 3.98648 -2.88688 0
M  V30 16650 N 1528.36 1.11264 1.11616 0
M  V30 16651 C 1529.6 0.860364 1.83314 0
M  V30 16652 C 1529.93 -0.614011 1.84554 0
M  V30 16653 O 1529.19 -1.4692 1.29279 0
M  V30 16654 C 1529.48 1.36481 3.30315 0
M  V30 16655 C 1529.15 2.85209 3.49237 0
M  V30 16656 C 1527.81 3.25822 3.54109 0
M  V30 16657 C 1530.16 3.81009 3.55642 0
M  V30 16658 C 1527.49 4.60968 3.62941 0
M  V30 16659 C 1529.84 5.15968 3.66005 0
M  V30 16660 C 1528.51 5.56142 3.69137 0
M  V30 16661 H 1527.78 0.314829 0.670793 0
M  V30 16662 H 1530.43 1.39073 1.31647 0
M  V30 16663 H 1528.73 0.754639 3.84464 0
M  V30 16664 H 1530.43 1.14597 3.84276 0
M  V30 16665 H 1527.02 2.52791 3.46114 0
M  V30 16666 H 1531.2 3.50734 3.5114 0
M  V30 16667 H 1526.46 4.91503 3.63641 0
M  V30 16668 H 1530.63 5.90037 3.69904 0
M  V30 16669 H 1528.26 6.60855 3.75732 0
M  V30 16670 N 1529.83 -1.29188 0.902679 0
M  V30 16671 C 1531.06 -2.00113 0.544953 0
M  V30 16672 C 1531.48 -1.67093 -0.863805 0
M  V30 16673 O 1530.84 -0.897179 -1.57545 0
M  V30 16674 C 1530.89 -3.52762 0.747741 0
M  V30 16675 O 1529.99 -4.11923 -0.198388 0
M  V30 16676 H 1529.33 -0.629054 0.212572 0
M  V30 16677 H 1531.86 -1.64611 1.21508 0
M  V30 16678 H 1531.87 -4.02732 0.653546 0
M  V30 16679 H 1530.55 -3.76131 1.77478 0
M  V30 16680 H 1529.13 -3.72857 -0.0563959 0
M  V30 16681 N 1531.31 -0.665475 -1.42861 0
M  V30 16682 C 1532.72 -0.26225 -1.84849 0
M  V30 16683 C 1533.07 1.19372 -1.55707 0
M  V30 16684 O 1532.2 1.91269 -1.01218 0
M  V30 16685 C 1532.79 -0.469189 -3.35535 0
M  V30 16686 C 1531.35 -0.120172 -3.76208 0
M  V30 16687 C 1530.5 -0.766153 -2.66506 0
M  V30 16688 H 1533.45 -0.868296 -1.32839 0
M  V30 16689 H 1533.47 0.281571 -3.79457 0
M  V30 16690 H 1532.98 -1.52894 -3.56714 0
M  V30 16691 H 1531.08 0.936505 -3.60639 0
M  V30 16692 H 1531.2 -0.554188 -4.75884 0
M  V30 16693 H 1529.56 -0.198292 -2.53927 0
M  V30 16694 H 1530.34 -1.82918 -2.9051 0
M  V30 16695 N 1532.79 1.52222 -0.408187 0
M  V30 16696 C 1533.72 2.29892 0.408868 0
M  V30 16697 C 1534.7 1.34063 1.04695 0
M  V30 16698 O 1535.89 1.6297 1.05615 0
M  V30 16699 C 1533.02 3.11964 1.52629 0
M  V30 16700 C 1531.97 4.15833 1.01326 0
M  V30 16701 C 1531.3 4.86244 2.2242 0
M  V30 16702 C 1532.6 5.22256 0.0679573 0
M  V30 16703 H 1534.29 2.98443 -0.23923 0
M  V30 16704 H 1531.84 1.43528 -0.116496 0
M  V30 16705 H 1533.79 3.65067 2.10486 0
M  V30 16706 H 1532.51 2.41181 2.20225 0
M  V30 16707 H 1531.17 3.63739 0.4571 0
M  V30 16708 H 1530.82 4.11991 2.88569 0
M  V30 16709 H 1530.52 5.56461 1.88746 0
M  V30 16710 H 1532.04 5.42159 2.80885 0
M  V30 16711 H 1533.46 5.70604 0.555295 0
M  V30 16712 H 1531.85 5.9983 -0.179934 0
M  V30 16713 H 1532.92 4.76892 -0.877599 0
M  V30 16714 N 1534.27 0.138579 1.5699 0
M  V30 16715 C 1535.2 -0.835134 2.13444 0
M  V30 16716 C 1536.21 -1.21657 1.08183 0
M  V30 16717 O 1537.4 -1.16211 1.35489 0
M  V30 16718 C 1534.5 -2.13086 2.63529 0
M  V30 16719 C 1533.67 -1.9181 3.931 0
M  V30 16720 C 1532.73 -3.05293 4.28582 0
M  V30 16721 O 1531.76 -2.77351 4.97056 0
M  V30 16722 N 1532.96 -4.32248 3.87482 0
M  V30 16723 H 1535.73 -0.352693 2.97617 0
M  V30 16724 H 1533.29 -0.0452536 1.61837 0
M  V30 16725 H 1535.28 -2.88036 2.84284 0
M  V30 16726 H 1533.85 -2.52619 1.84127 0
M  V30 16727 H 1533.07 -1.00943 3.81057 0
M  V30 16728 H 1534.36 -1.74923 4.77786 0
M  V30 16729 H 1533.76 -4.5782 3.32292 0
M  V30 16730 H 1532.31 -5.04006 4.13305 0
M  V30 16731 N 1535.75 -1.57019 -0.13521 0
M  V30 16732 C 1536.97 -1.88528 -0.864399 0
M  V30 16733 C 1537.4 -0.728852 -1.73405 0
M  V30 16734 O 1536.75 0.321196 -1.78432 0
M  V30 16735 C 1536.8 -3.18694 -1.6872 0
M  V30 16736 O 1535.91 -3.03458 -2.79262 0
M  V30 16737 H 1535.25 -0.61909 -0.24005 0
M  V30 16738 H 1537.78 -2.04233 -0.12248 0
M  V30 16739 H 1537.79 -3.51011 -2.0798 0
M  V30 16740 H 1536.46 -4.02462 -1.04868 0
M  V30 16741 H 1535.04 -2.82575 -2.43323 0
M  V30 16742 N 1537.22 0.404919 -1.52309 0
M  V30 16743 C 1538.45 1.17764 -1.70723 0
M  V30 16744 C 1538.87 1.83403 -0.417744 0
M  V30 16745 O 1538.23 1.70181 0.625157 0
M  V30 16746 C 1538.28 2.2133 -2.84685 0
M  V30 16747 O 1537.38 3.27566 -2.50548 0
M  V30 16748 H 1536.73 0.343572 -0.568203 0
M  V30 16749 H 1539.26 0.474093 -1.99031 0
M  V30 16750 H 1539.27 2.6559 -3.09719 0
M  V30 16751 H 1537.94 1.72939 -3.78239 0
M  V30 16752 H 1536.52 2.88556 -2.36199 0
M  V30 16753 N 1538.7 1.43003 0.662408 0
M  V30 16754 C 1539.63 1.50248 1.78739 0
M  V30 16755 C 1540.61 0.357934 1.66291 0
M  V30 16756 O 1541.8 0.573919 1.85526 0
M  V30 16757 C 1538.93 1.41618 3.17114 0
M  V30 16758 C 1537.88 2.54228 3.44314 0
M  V30 16759 C 1537.21 2.30653 4.82393 0
M  V30 16760 C 1538.51 3.96505 3.39972 0
M  V30 16761 H 1540.2 2.44406 1.72934 0
M  V30 16762 H 1537.75 1.17633 0.830569 0
M  V30 16763 H 1539.7 1.45293 3.9556 0
M  V30 16764 H 1538.43 0.439605 3.23628 0
M  V30 16765 H 1537.08 2.49891 2.68235 0
M  V30 16766 H 1536.73 1.3126 4.85572 0
M  V30 16767 H 1536.43 3.06134 5.01554 0
M  V30 16768 H 1537.96 2.36096 5.63108 0
M  V30 16769 H 1539.37 4.02378 4.08368 0
M  V30 16770 H 1537.77 4.71937 3.70668 0
M  V30 16771 H 1538.84 4.22295 2.38318 0
M  V30 16772 N 1540.18 -0.899904 1.29381 0
M  V30 16773 C 1541.59 -1.46563 1.15655 0
M  V30 16774 C 1541.94 -1.94622 -0.248375 0
M  V30 16775 O 1541.07 -1.83698 -1.14386 0
M  V30 16776 C 1541.66 -2.66384 2.09344 0
M  V30 16777 C 1540.22 -3.19093 1.99641 0
M  V30 16778 C 1539.37 -1.91786 2.00283 0
M  V30 16779 H 1542.32 -0.711264 1.41869 0
M  V30 16780 H 1542.34 -3.42111 1.66554 0
M  V30 16781 H 1541.85 -2.31376 3.11587 0
M  V30 16782 H 1539.95 -3.58795 1.00485 0
M  V30 16783 H 1540.07 -3.83405 2.87293 0
M  V30 16784 H 1538.43 -2.09482 1.44878 0
M  V30 16785 H 1539.21 -1.59055 3.04231 0
M  V30 16786 N 1541.66 -1.11854 -1.11024 0
M  V30 16787 C 1542.9 -0.880082 -1.84483 0
M  V30 16788 C 1543.26 0.583659 -1.82914 0
M  V30 16789 O 1544.46 0.939053 -2.51864 0
M  V30 16790 C 1542.73 -1.43158 -3.27476 0
M  V30 16791 S 1544.29 -1.33075 -4.18135 0
M  V30 16792 H 1541.11 -0.317635 -0.636105 0
M  V30 16793 H 1543.71 -1.42688 -1.33642 0
M  V30 16794 H 1542.42 -2.49061 -3.26185 0
M  V30 16795 H 1541.95 -0.882005 -3.83385 0
M  V30 16796 H 1543.96 -0.298149 -4.95303 0
M  V30 16797 N 1543.14 1.28707 -0.909517 0
M  V30 16798 C 1544.41 1.90124 -0.459585 0
M  V30 16799 C 1544.79 1.82477 1.06139 0
M  V30 16800 O 1544.14 1.25792 1.90758 0
M  V30 16801 C 1544.35 3.34806 -0.985188 0
M  V30 16802 C 1545.7 4.11799 -1.03475 0
M  V30 16803 O 1546.72 3.43749 -0.933536 0
M  V30 16804 O 1545.58 5.33426 -1.18825 0
M  V30 16805 H 1542.68 0.814199 -0.144948 0
M  V30 16806 H 1545.22 1.37104 -1.00002 0
M  V30 16807 H 1543.99 3.34575 -2.02917 0
M  V30 16808 H 1543.62 3.95318 -0.425329 0
M  V30 16809 N 1544.61 0.673042 1.42506 0
M  V30 16810 C 1545.86 0.1918 2.00786 0
M  V30 16811 C 1546.18 -1.20814 1.53829 0
M  V30 16812 O 1547.38 -1.78566 2.04515 0
M  V30 16813 C 1545.84 0.292045 3.58713 0
M  V30 16814 C 1545.45 1.69593 4.14659 0
M  V30 16815 C 1547.19 -0.130575 4.24299 0
M  V30 16816 C 1545.1 1.74904 5.64945 0
M  V30 16817 H 1544.03 0.0679452 0.750932 0
M  V30 16818 H 1546.68 0.837968 1.63249 0
M  V30 16819 H 1545.06 -0.421985 3.93745 0
M  V30 16820 H 1546.23 2.4369 3.9109 0
M  V30 16821 H 1544.55 2.06625 3.61518 0
M  V30 16822 H 1547.15 -0.11102 5.34585 0
M  V30 16823 H 1547.49 -1.16552 3.99651 0
M  V30 16824 H 1548.02 0.532386 3.94221 0
M  V30 16825 H 1544.76 2.76374 5.94388 0
M  V30 16826 H 1544.28 1.0516 5.9051 0
M  V30 16827 H 1545.96 1.50168 6.29332 0
M  V30 16828 N 1546.09 -1.52004 0.416254 0
M  V30 16829 C 1547.04 -2.24037 -0.423226 0
M  V30 16830 C 1548.03 -1.25444 -1.0076 0
M  V30 16831 O 1549.22 -1.50646 -0.92924 0
M  V30 16832 C 1546.35 -3.07048 -1.53547 0
M  V30 16833 C 1545.43 -4.13056 -0.961518 0
M  V30 16834 N 1545.82 -5.0567 -0.114849 0
M  V30 16835 C 1544.12 -4.28667 -1.2313 0
M  V30 16836 C 1544.82 -5.81338 0.205249 0
M  V30 16837 N 1543.8 -5.42084 -0.405736 0
M  V30 16838 H 1547.6 -2.93 0.229864 0
M  V30 16839 H 1545.12 -1.60804 0.227087 0
M  V30 16840 H 1547.11 -3.57212 -2.14954 0
M  V30 16841 H 1545.77 -2.39626 -2.19111 0
M  V30 16842 H 1546.78 -5.17296 0.250006 0
M  V30 16843 H 1543.46 -3.72474 -1.88599 0
M  V30 16844 H 1544.85 -6.6594 0.892938 0
M  V30 16845 N 1547.57 -0.146903 -1.56914 0
M  V30 16846 C 1548.5 0.788924 -2.19769 0
M  V30 16847 C 1549.48 1.25712 -1.14589 0
M  V30 16848 O 1550.67 1.3147 -1.42931 0
M  V30 16849 C 1547.8 2.02824 -2.81921 0
M  V30 16850 C 1546.75 1.69683 -3.92927 0
M  V30 16851 C 1546.08 3.00877 -4.42015 0
M  V30 16852 C 1547.38 0.943559 -5.13706 0
M  V30 16853 H 1549.07 0.265076 -2.98224 0
M  V30 16854 H 1546.62 0.126057 -1.43447 0
M  V30 16855 H 1548.57 2.68773 -3.2456 0
M  V30 16856 H 1547.29 2.57581 -2.00797 0
M  V30 16857 H 1545.95 1.06112 -3.50907 0
M  V30 16858 H 1545.6 3.53625 -3.57713 0
M  V30 16859 H 1545.3 2.79466 -5.16888 0
M  V30 16860 H 1546.82 3.67897 -4.87323 0
M  V30 16861 H 1548.24 1.50513 -5.5319 0
M  V30 16862 H 1546.64 0.829387 -5.94341 0
M  V30 16863 H 1547.71 -0.0647228 -4.84857 0
M  V30 16864 N 1549.05 1.57088 0.126881 0
M  V30 16865 C 1550.29 1.84709 0.837287 0
M  V30 16866 C 1550.63 0.731496 1.79897 0
M  V30 16867 O 1549.9 -0.263319 1.92709 0
M  V30 16868 C 1550.19 3.22893 1.59412 0
M  V30 16869 C 1550.04 4.45041 0.652578 0
M  V30 16870 C 1551.36 3.58547 2.5521 0
M  V30 16871 H 1548.48 0.671862 0.302937 0
M  V30 16872 H 1551.12 1.89727 0.101783 0
M  V30 16873 H 1549.27 3.18746 2.22112 0
M  V30 16874 H 1550.94 4.61287 0.0350382 0
M  V30 16875 H 1549.18 4.33785 -0.0364578 0
M  V30 16876 H 1549.85 5.38381 1.21861 0
M  V30 16877 H 1552.33 3.63434 2.0262 0
M  V30 16878 H 1551.21 4.56227 3.05202 0
M  V30 16879 H 1551.47 2.85552 3.37509 0
M  V30 16880 N 1550.53 -0.396836 1.52522 0
M  V30 16881 C 1551.47 -1.50474 1.77371 0
M  V30 16882 C 1552.47 -1.56792 0.641307 0
M  V30 16883 O 1553.67 -1.60052 0.823621 0
M  V30 16884 H 1550.05 -0.500667 0.561103 0
M  V30 16885 H 1552.02 -1.26706 2.70163 0
M  V30 16886 C 1550.77 -2.87702 1.95251 0
M  V30 16887 H 1550.09 -2.83588 2.81812 0
M  V30 16888 H 1551.53 -3.64482 2.16631 0
M  V30 16889 C 1549.99 -3.29053 0.722904 0
M  V30 16890 O 1550.52 -4.01567 -0.103398 0
M  V30 16891 N 1548.73 -2.85246 0.555263 0
M  V30 16892 H 1548.27 -2.26403 1.22879 0
M  V30 16893 H 1548.23 -3.13272 -0.266113 0
M  V30 16894 N 1552.01 -1.43353 -0.654814 0
M  V30 16895 C 1552.94 -1.51194 -1.7794 0
M  V30 16896 C 1553.92 -0.366747 -1.66099 0
M  V30 16897 O 1555.1 -0.58375 -1.85219 0
M  V30 16898 C 1552.23 -1.43298 -3.16359 0
M  V30 16899 C 1551.19 -2.5605 -3.42961 0
M  V30 16900 C 1550.51 -2.33208 -4.81163 0
M  V30 16901 C 1551.81 -3.98303 -3.37864 0
M  V30 16902 H 1553.51 -2.4532 -1.71635 0
M  V30 16903 H 1551.05 -1.18072 -0.824319 0
M  V30 16904 H 1553 -1.47388 -3.94784 0
M  V30 16905 H 1551.73 -0.456761 -3.2339 0
M  V30 16906 H 1550.39 -2.5131 -2.66906 0
M  V30 16907 H 1550.04 -1.33833 -4.84869 0
M  V30 16908 H 1549.74 -3.08789 -4.99923 0
M  V30 16909 H 1551.26 -2.39079 -5.61848 0
M  V30 16910 H 1552.67 -4.04538 -4.06229 0
M  V30 16911 H 1551.07 -4.73897 -3.6816 0
M  V30 16912 H 1552.14 -4.23552 -2.36075 0
M  V30 16913 N 1553.48 0.89303 -1.29857 0
M  V30 16914 C 1554.9 1.17496 -1.08013 0
M  V30 16915 C 1555.1 2.00829 0.164302 0
M  V30 16916 O 1554.16 2.37396 0.860194 0
M  V30 16917 C 1555.47 1.88944 -2.33924 0
M  V30 16918 C 1557.02 2.01742 -2.3931 0
M  V30 16919 C 1557.49 2.76601 -3.65042 0
M  V30 16920 N 1558.98 2.84152 -3.65803 0
M  V30 16921 C 1559.72 3.42628 -4.59776 0
M  V30 16922 N 1559.21 4.02218 -5.64086 0
M  V30 16923 N 1561.01 3.40366 -4.47334 0
M  V30 16924 H 1553.16 0.33719 -2.09706 0
M  V30 16925 H 1555.42 0.211899 -0.924014 0
M  V30 16926 H 1555.13 1.35151 -3.24695 0
M  V30 16927 H 1555 2.89379 -2.4195 0
M  V30 16928 H 1557.39 2.54708 -1.49022 0
M  V30 16929 H 1557.47 1.0042 -2.35265 0
M  V30 16930 H 1557.11 2.24309 -4.55684 0
M  V30 16931 H 1557.04 3.78283 -3.66346 0
M  V30 16932 H 1559.53 2.41835 -2.90386 0
M  V30 16933 H 1559.85 4.4488 -6.31903 0
M  V30 16934 H 1558.19 4.00661 -5.67887 0
M  V30 16935 H 1561.38 2.93035 -3.65031 0
M  V30 16936 H 1561.56 3.85644 -5.20752 0
M  V30 16937 N 1554.96 1.12442 1.10429 0
M  V30 16938 C 1556.19 0.902599 1.86174 0
M  V30 16939 C 1556.6 -0.548147 1.80668 0
M  V30 16940 O 1555.96 -1.37898 1.19543 0
M  V30 16941 C 1556.01 1.36912 3.34571 0
M  V30 16942 O 1555.73 2.763 3.39985 0
M  V30 16943 C 1557.23 1.18424 4.27189 0
M  V30 16944 H 1554.45 0.322534 0.588399 0
M  V30 16945 H 1557 1.49439 1.396 0
M  V30 16946 H 1555.15 0.82055 3.7861 0
M  V30 16947 H 1555.57 2.96772 4.32466 0
M  V30 16948 H 1557.04 1.55954 5.29511 0
M  V30 16949 H 1557.52 0.12483 4.39023 0
M  V30 16950 H 1558.12 1.72032 3.88954 0
M  V30 16951 N 1556.44 -1.28223 0.91633 0
M  V30 16952 C 1557.69 -1.94149 0.546705 0
M  V30 16953 C 1558 -1.72904 -0.914529 0
M  V30 16954 O 1559.21 -2.33075 -1.39243 0
M  V30 16955 C 1557.66 -3.47759 0.92691 0
M  V30 16956 C 1557.27 -3.77779 2.40805 0
M  V30 16957 C 1559.02 -4.19829 0.627994 0
M  V30 16958 C 1556.92 -5.2471 2.72825 0
M  V30 16959 H 1555.85 -0.726787 0.200739 0
M  V30 16960 H 1558.5 -1.45694 1.1156 0
M  V30 16961 H 1556.89 -3.9496 0.286779 0
M  V30 16962 H 1558.06 -3.41377 3.09513 0
M  V30 16963 H 1556.37 -3.18887 2.67769 0
M  V30 16964 H 1558.97 -5.27999 0.843862 0
M  V30 16965 H 1559.31 -4.14028 -0.434315 0
M  V30 16966 H 1559.85 -3.78413 1.22671 0
M  V30 16967 H 1556.59 -5.35591 3.77919 0
M  V30 16968 H 1556.11 -5.623 2.08756 0
M  V30 16969 H 1557.79 -5.92475 2.59965 0
M  V30 16970 N 1557.92 -0.68059 -1.42147 0
M  V30 16971 C 1558.85 0.0331442 -2.29176 0
M  V30 16972 C 1559.86 0.759652 -1.4399 0
M  V30 16973 O 1561.05 0.612846 -1.6765 0
M  V30 16974 C 1558.15 1.07077 -3.2154 0
M  V30 16975 C 1557.32 0.416914 -4.35409 0
M  V30 16976 C 1556.38 1.3551 -5.08452 0
M  V30 16977 O 1555.41 0.853198 -5.62769 0
M  V30 16978 N 1556.61 2.68815 -5.14508 0
M  V30 16979 H 1559.38 -0.713963 -2.91072 0
M  V30 16980 H 1556.94 -0.525451 -1.53136 0
M  V30 16981 H 1558.93 1.6998 -3.67272 0
M  V30 16982 H 1557.5 1.71955 -2.61056 0
M  V30 16983 H 1556.72 -0.391734 -3.92249 0
M  V30 16984 H 1558.01 -0.0383564 -5.08786 0
M  V30 16985 H 1557.41 3.12125 -4.71799 0
M  V30 16986 H 1555.96 3.26951 -5.63867 0
M  V30 16987 N 1559.4 1.51781 -0.424309 0
M  V30 16988 C 1560.62 2.06871 0.147968 0
M  V30 16989 C 1561.05 1.29093 1.36808 0
M  V30 16990 O 1560.4 0.325279 1.78358 0
M  V30 16991 C 1560.45 3.57631 0.461757 0
M  V30 16992 O 1559.56 3.82149 1.55035 0
M  V30 16993 H 1558.9 0.663957 0.00757275 0
M  V30 16994 H 1561.43 1.95547 -0.601888 0
M  V30 16995 H 1561.44 4.01668 0.716005 0
M  V30 16996 H 1560.11 4.1367 -0.430081 0
M  V30 16997 H 1558.69 3.49984 1.28709 0
M  V30 16998 N 1560.87 0.155222 1.56834 0
M  V30 16999 C 1561.82 -0.781315 2.17173 0
M  V30 17000 C 1562.79 -1.23835 1.10699 0
M  V30 17001 O 1563.98 -1.3094 1.38778 0
M  V30 17002 C 1561.12 -2.01174 2.80398 0
M  V30 17003 C 1560.23 -1.59976 4.01287 0
M  V30 17004 C 1559.36 -2.78262 4.52486 0
M  V30 17005 C 1558.4 -2.33477 5.65822 0
M  V30 17006 N 1557.54 -3.44799 6.11603 0
M  V30 17007 H 1562.38 -0.259968 2.96864 0
M  V30 17008 H 1559.92 -0.116599 1.46637 0
M  V30 17009 H 1561.87 -2.73318 3.15203 0
M  V30 17010 H 1560.5 -2.50706 2.03338 0
M  V30 17011 H 1559.56 -0.775668 3.72408 0
M  V30 17012 H 1560.87 -1.2309 4.83374 0
M  V30 17013 H 1560.02 -3.58585 4.89389 0
M  V30 17014 H 1558.76 -3.18398 3.69424 0
M  V30 17015 H 1557.77 -1.51596 5.28487 0
M  V30 17016 H 1558.99 -1.94417 6.50676 0
M  V30 17017 H 1556.94 -3.84541 5.31474 0
M  V30 17018 H 1556.85 -3.11955 6.88637 0
M  V30 17019 H 1558.12 -4.25454 6.53153 0
M  V30 17020 N 1562.35 -1.57153 -0.118549 0
M  V30 17021 C 1563.6 -1.8515 -0.82748 0
M  V30 17022 C 1563.93 -0.741026 -1.79506 0
M  V30 17023 O 1563.21 0.253095 -1.92846 0
M  V30 17024 C 1563.49 -3.23734 -1.57698 0
M  V30 17025 C 1563.34 -4.45381 -0.628967 0
M  V30 17026 C 1564.66 -3.59895 -2.53305 0
M  V30 17027 H 1561.78 -0.673459 -0.29937 0
M  V30 17028 H 1564.42 -1.89778 -0.0917198 0
M  V30 17029 H 1562.57 -3.19919 -2.20418 0
M  V30 17030 H 1564.24 -4.61299 -0.0105746 0
M  V30 17031 H 1562.49 -4.33759 0.059462 0
M  V30 17032 H 1563.16 -5.3902 -1.19004 0
M  V30 17033 H 1565.63 -3.64503 -2.0069 0
M  V30 17034 H 1564.51 -4.57839 -3.02778 0
M  V30 17035 H 1564.77 -2.87338 -3.3599 0
M  V30 17036 N 1563.83 0.388742 -1.5273 0
M  V30 17037 C 1565.08 1.13151 -1.67455 0
M  V30 17038 C 1565.4 1.90487 -0.417095 0
M  V30 17039 O 1564.67 1.87469 0.568509 0
M  V30 17040 H 1563.25 0.4207 -0.617269 0
M  V30 17041 H 1565.91 0.44098 -1.89846 0
M  V30 17042 H 1565.01 1.83427 -2.52509 0
M  V30 17043 N 1565.31 1.43698 0.647203 0
M  V30 17044 C 1566.26 1.49599 1.78109 0
M  V30 17045 C 1567.25 0.369047 1.65331 0
M  V30 17046 O 1568.46 0.543303 1.71605 0
M  V30 17047 H 1564.83 0.46911 0.587741 0
M  V30 17048 H 1566.8 2.45064 1.70253 0
M  V30 17049 C 1565.55 1.44192 3.16392 0
M  V30 17050 H 1564.87 2.30216 3.26865 0
M  V30 17051 H 1566.31 1.52382 3.95671 0
M  V30 17052 C 1564.77 0.16036 3.36518 0
M  V30 17053 O 1565.3 -0.77593 3.94135 0
M  V30 17054 N 1563.51 0.0686236 2.90519 0
M  V30 17055 H 1563.06 0.831363 2.43816 0
M  V30 17056 H 1563.01 -0.78814 3.04361 0
M  V30 17057 N 1566.79 -0.886131 1.30328 0
M  V30 17058 C 1568.03 -1.6346 1.18849 0
M  V30 17059 C 1568.36 -1.93295 -0.257285 0
M  V30 17060 O 1567.63 -1.56858 -1.17356 0
M  V30 17061 H 1566.21 -0.605932 0.43687 0
M  V30 17062 H 1568.87 -1.06177 1.63439 0
M  V30 17063 H 1567.96 -2.58522 1.7485 0
M  V30 17064 N 1568.26 -1.13026 -1.09832 0
M  V30 17065 C 1569.21 -0.772653 -2.14509 0
M  V30 17066 C 1570.2 0.231327 -1.59228 0
M  V30 17067 O 1571.39 0.0358767 -1.76964 0
M  V30 17068 C 1568.52 -0.235762 -3.42489 0
M  V30 17069 C 1567.61 -1.2684 -4.04688 0
M  V30 17070 N 1568 -2.46801 -4.41501 0
M  V30 17071 C 1566.29 -1.11521 -4.31832 0
M  V30 17072 C 1567 -3.12791 -4.90445 0
M  V30 17073 N 1565.97 -2.40224 -4.87641 0
M  V30 17074 H 1569.77 -1.68541 -2.40772 0
M  V30 17075 H 1567.29 -1.01195 -1.27017 0
M  V30 17076 H 1569.28 0.038649 -4.16882 0
M  V30 17077 H 1567.94 0.671377 -3.17683 0
M  V30 17078 H 1568.96 -2.84137 -4.32997 0
M  V30 17079 H 1565.63 -0.26589 -4.16652 0
M  V30 17080 H 1567.02 -4.14988 -5.28427 0
M  V30 17081 N 1569.74 1.27735 -0.923117 0
M  V30 17082 C 1570.97 1.9922 -0.57672 0
M  V30 17083 C 1571.39 1.68446 0.837113 0
M  V30 17084 O 1570.75 0.922129 1.56098 0
M  V30 17085 C 1570.8 3.51528 -0.803768 0
M  V30 17086 O 1569.9 4.12186 0.132829 0
M  V30 17087 H 1569.24 0.625593 -0.222553 0
M  V30 17088 H 1571.77 1.62657 -1.24112 0
M  V30 17089 H 1571.78 4.01641 -0.717534 0
M  V30 17090 H 1570.46 3.7326 -1.83439 0
M  V30 17091 H 1569.04 3.729 -0.00292957 0
M  V30 17092 N 1571.22 0.688118 1.41784 0
M  V30 17093 C 1572.17 0.00661035 2.32599 0
M  V30 17094 C 1573.16 -0.776475 1.50556 0
M  V30 17095 O 1574.37 -0.682937 1.66541 0
M  V30 17096 H 1570.74 -0.0166615 0.751815 0
M  V30 17097 H 1572.71 0.789718 2.8776 0
M  V30 17098 C 1571.46 -0.921251 3.35273 0
M  V30 17099 H 1570.79 -0.328099 3.98451 0
M  V30 17100 H 1572.23 -1.36655 4.01374 0
M  V30 17101 C 1570.69 -2.03393 2.68576 0
M  V30 17102 O 1571.22 -3.1219 2.52785 0
M  V30 17103 N 1569.42 -1.8095 2.27389 0
M  V30 17104 H 1568.97 -0.924692 2.40431 0
M  V30 17105 H 1568.93 -2.55584 1.83096 0
M  V30 17106 N 1572.7 -1.51554 0.432352 0
M  V30 17107 C 1573.61 -2.31371 -0.387885 0
M  V30 17108 C 1574.62 -1.40072 -1.03227 0
M  V30 17109 O 1575.8 -1.73145 -1.02873 0
M  V30 17110 C 1572.87 -3.13662 -1.47705 0
M  V30 17111 C 1571.93 -4.20734 -0.853315 0
M  V30 17112 C 1571.16 -4.99092 -1.89058 0
M  V30 17113 O 1571.38 -4.78022 -3.11209 0
M  V30 17114 O 1570.32 -5.83322 -1.48389 0
M  V30 17115 H 1574.14 -3.02554 0.263578 0
M  V30 17116 H 1571.73 -1.48122 0.195004 0
M  V30 17117 H 1573.61 -3.64837 -2.10884 0
M  V30 17118 H 1572.28 -2.45249 -2.11269 0
M  V30 17119 H 1571.19 -3.73649 -0.183616 0
M  V30 17120 H 1572.52 -4.91506 -0.261244 0
M  V30 17121 N 1574.18 -0.163538 -1.56749 0
M  V30 17122 C 1575.14 0.755801 -2.1638 0
M  V30 17123 C 1576.14 1.16359 -1.10982 0
M  V30 17124 O 1577.33 1.08182 -1.36537 0
M  V30 17125 C 1574.46 2.02775 -2.74035 0
M  V30 17126 H 1575.65 0.23681 -2.98964 0
M  V30 17127 H 1573.21 0.0859925 -1.56063 0
M  V30 17128 H 1573.94 2.59002 -1.95163 0
M  V30 17129 H 1573.73 1.74439 -3.5116 0
M  V30 17130 H 1575.22 2.684 -3.19923 0
M  V30 17131 N 1575.65 1.57214 0.110213 0
M  V30 17132 C 1576.62 2.00034 1.11888 0
M  V30 17133 C 1577.62 0.891697 1.33811 0
M  V30 17134 O 1578.81 1.15754 1.3018 0
M  V30 17135 C 1575.94 2.34806 2.47142 0
M  V30 17136 H 1577.13 2.90354 0.750647 0
M  V30 17137 H 1574.69 1.5222 0.35479 0
M  V30 17138 H 1575.42 1.47393 2.8887 0
M  V30 17139 H 1575.21 3.15671 2.32581 0
M  V30 17140 H 1576.7 2.68644 3.19719 0
M  V30 17141 N 1577.13 -0.380637 1.52934 0
M  V30 17142 C 1578.06 -1.47174 1.81279 0
M  V30 17143 C 1579.04 -1.56549 0.665319 0
M  V30 17144 O 1580.23 -1.71362 0.913722 0
M  V30 17145 C 1577.36 -2.84691 1.98918 0
M  V30 17146 C 1576.31 -2.90151 3.14637 0
M  V30 17147 C 1575.64 -4.30198 3.17544 0
M  V30 17148 C 1576.94 -2.59037 4.53539 0
M  V30 17149 H 1578.63 -1.23703 2.7265 0
M  V30 17150 H 1576.18 -0.593654 1.31194 0
M  V30 17151 H 1578.13 -3.61034 2.1733 0
M  V30 17152 H 1576.86 -3.09517 1.04244 0
M  V30 17153 H 1575.51 -2.16257 2.96021 0
M  V30 17154 H 1575.16 -4.52076 2.20536 0
M  V30 17155 H 1574.86 -4.3477 3.95284 0
M  V30 17156 H 1576.39 -5.08435 3.38121 0
M  V30 17157 H 1577.8 -3.25096 4.72214 0
M  V30 17158 H 1576.2 -2.74946 5.33408 0
M  V30 17159 H 1577.27 -1.54342 4.59681 0
M  V30 17160 N 1578.61 -1.44039 -0.639573 0
M  V30 17161 C 1579.86 -1.4566 -1.39521 0
M  V30 17162 C 1580.17 -0.0897878 -1.95394 0
M  V30 17163 O 1581.38 0.0165074 -2.71495 0
M  V30 17164 C 1579.83 -2.56395 -2.52566 0
M  V30 17165 C 1579.44 -3.99245 -2.03243 0
M  V30 17166 C 1581.19 -2.67226 -3.29834 0
M  V30 17167 C 1579.09 -5.01419 -3.1358 0
M  V30 17168 H 1578.02 -0.541894 -0.524277 0
M  V30 17169 H 1580.67 -1.70076 -0.688941 0
M  V30 17170 H 1579.06 -2.25204 -3.25729 0
M  V30 17171 H 1580.23 -4.39963 -1.37002 0
M  V30 17172 H 1578.55 -3.9258 -1.38816 0
M  V30 17173 H 1581.14 -3.40736 -4.12072 0
M  V30 17174 H 1581.49 -1.72756 -3.78763 0
M  V30 17175 H 1582.02 -2.97786 -2.63758 0
M  V30 17176 H 1578.76 -5.97489 -2.69605 0
M  V30 17177 H 1578.28 -4.65301 -3.7849 0
M  V30 17178 H 1579.96 -5.2474 -3.78493 0
M  V30 17179 N 1580.09 0.879207 -1.30796 0
M  V30 17180 C 1581.02 2.00158 -1.20246 0
M  V30 17181 C 1582 1.69852 -0.091769 0
M  V30 17182 O 1583.18 1.92246 -0.274792 0
M  V30 17183 C 1580.31 3.3545 -0.899472 0
M  V30 17184 C 1579.27 3.80033 -1.96873 0
M  V30 17185 C 1578.59 5.12681 -1.51861 0
M  V30 17186 C 1579.89 3.98136 -3.38061 0
M  V30 17187 H 1581.59 2.09242 -2.14145 0
M  V30 17188 H 1579.13 1.00535 -1.03096 0
M  V30 17189 H 1581.09 4.13497 -0.812299 0
M  V30 17190 H 1579.81 3.26513 0.075189 0
M  V30 17191 H 1578.47 3.04219 -2.04564 0
M  V30 17192 H 1578.12 5.00178 -0.532063 0
M  V30 17193 H 1577.82 5.43482 -2.23386 0
M  V30 17194 H 1579.34 5.93247 -1.44534 0
M  V30 17195 H 1580.76 4.66604 -3.33096 0
M  V30 17196 H 1579.15 4.40321 -4.07722 0
M  V30 17197 H 1580.22 3.01807 -3.79526 0
M  V30 17198 N 1581.57 1.13606 1.09231 0
M  V30 17199 C 1582.52 0.784018 2.14096 0
M  V30 17200 C 1583.5 -0.22288 1.59349 0
M  V30 17201 O 1584.69 -0.0264914 1.7698 0
M  V30 17202 C 1581.82 0.253922 3.4236 0
M  V30 17203 C 1580.91 1.28985 4.0401 0
M  V30 17204 N 1581.3 2.49138 4.40186 0
M  V30 17205 C 1579.6 1.1381 4.31235 0
M  V30 17206 C 1580.3 3.15388 4.8878 0
M  V30 17207 N 1579.27 2.42806 4.8636 0
M  V30 17208 H 1583.08 1.69816 2.39874 0
M  V30 17209 H 1580.59 1.01867 1.26478 0
M  V30 17210 H 1582.59 -0.0165402 4.16897 0
M  V30 17211 H 1581.25 -0.65452 3.18035 0
M  V30 17212 H 1582.26 2.8643 4.31484 0
M  V30 17213 H 1578.94 0.287982 4.16506 0
M  V30 17214 H 1580.33 4.17784 5.26219 0
M  V30 17215 N 1583.05 -1.27244 0.929878 0
M  V30 17216 C 1584.46 -1.4662 0.630451 0
M  V30 17217 C 1584.66 -1.84077 -0.819633 0
M  V30 17218 O 1583.72 -1.95555 -1.59733 0
M  V30 17219 C 1585.03 -2.55709 1.58219 0
M  V30 17220 C 1586.58 -2.69569 1.59065 0
M  V30 17221 C 1587.05 -3.81818 2.52941 0
M  V30 17222 N 1588.54 -3.89195 2.51161 0
M  V30 17223 C 1589.28 -4.75474 3.20488 0
M  V30 17224 N 1588.78 -5.66225 3.99201 0
M  V30 17225 N 1590.57 -4.69222 3.09495 0
M  V30 17226 H 1582.72 -1.01216 1.86733 0
M  V30 17227 H 1584.98 -0.505737 0.801832 0
M  V30 17228 H 1584.69 -2.34985 2.61677 0
M  V30 17229 H 1584.56 -3.53141 1.32556 0
M  V30 17230 H 1586.95 -2.89672 0.563375 0
M  V30 17231 H 1587.03 -1.72616 1.88778 0
M  V30 17232 H 1586.67 -3.62467 3.55781 0
M  V30 17233 H 1586.6 -4.78202 2.20524 0
M  V30 17234 H 1589.1 -3.24305 1.93997 0
M  V30 17235 H 1589.41 -6.28925 4.4908 0
M  V30 17236 H 1587.75 -5.66013 4.03304 0
M  V30 17237 H 1590.94 -3.97322 2.47493 0
M  V30 17238 H 1591.12 -5.36244 3.63794 0
M  V30 17239 N 1584.52 -0.695628 -1.41417 0
M  V30 17240 C 1585.47 -0.0303383 -2.3078 0
M  V30 17241 C 1586.44 0.771218 -1.4711 0
M  V30 17242 O 1587.63 0.739239 -1.75897 0
M  V30 17243 C 1584.77 0.900034 -3.33157 0
M  V30 17244 C 1583.88 0.0900862 -4.31906 0
M  V30 17245 C 1583.01 1.01811 -5.21352 0
M  V30 17246 C 1582.05 0.201068 -6.1177 0
M  V30 17247 N 1581.19 1.0829 -6.93699 0
M  V30 17248 H 1586.03 -0.798148 -2.87113 0
M  V30 17249 H 1583.57 -0.405311 -1.41406 0
M  V30 17250 H 1585.52 1.45349 -3.91062 0
M  V30 17251 H 1584.15 1.63424 -2.78375 0
M  V30 17252 H 1583.21 -0.58029 -3.75948 0
M  V30 17253 H 1584.52 -0.543336 -4.95832 0
M  V30 17254 H 1583.67 1.64079 -5.84092 0
M  V30 17255 H 1582.41 1.68538 -4.57653 0
M  V30 17256 H 1581.42 -0.434686 -5.48079 0
M  V30 17257 H 1582.64 -0.462416 -6.77524 0
M  V30 17258 H 1580.59 1.73619 -6.32608 0
M  V30 17259 H 1580.5 0.505046 -7.54311 0
M  V30 17260 H 1581.77 1.69239 -7.60906 0
M  V30 17261 N 1586 1.51322 -0.440383 0
M  V30 17262 C 1587.25 2.01714 0.124815 0
M  V30 17263 C 1587.57 1.32634 1.42945 0
M  V30 17264 O 1586.84 0.461849 1.90378 0
M  V30 17265 H 1585.42 0.745384 0.049116 0
M  V30 17266 H 1588.08 1.85951 -0.583787 0
M  V30 17267 H 1587.18 3.10669 0.29853 0
M  V30 17268 N 1587.48 0.171848 1.5666 0
M  V30 17269 C 1588.73 -0.472968 1.96899 0
M  V30 17270 C 1589.05 -1.63217 1.05785 0
M  V30 17271 O 1588.31 -1.95483 0.0920511 0
M  V30 17272 C 1588.61 -0.99711 3.43209 0
M  V30 17273 C 1588.27 0.0462519 4.50876 0
M  V30 17274 C 1586.94 0.333002 4.80046 0
M  V30 17275 C 1589.29 0.754424 5.15711 0
M  V30 17276 C 1586.62 1.3333 5.71349 0
M  V30 17277 C 1588.97 1.74371 6.08093 0
M  V30 17278 C 1587.63 2.03791 6.3563 0
M  V30 17279 H 1586.9 -0.173071 0.720505 0
M  V30 17280 H 1589.55 0.263921 1.89673 0
M  V30 17281 H 1587.85 -1.81183 3.4739 0
M  V30 17282 H 1589.55 -1.50503 3.71685 0
M  V30 17283 H 1586.14 -0.187419 4.2819 0
M  V30 17284 H 1590.33 0.546102 4.93286 0
M  V30 17285 H 1585.58 1.56741 5.90967 0
M  V30 17286 H 1589.76 2.29782 6.57399 0
M  V30 17287 H 1587.38 2.8145 7.0618 0
M  V30 17288 N 1588.96 -1.5727 -0.101874 0
M  V30 17289 C 1590.23 -1.76745 -0.837888 0
M  V30 17290 C 1590.61 -0.751766 -1.9726 0
M  V30 17291 O 1589.96 0.221046 -2.27428 0
M  V30 17292 C 1590.17 -3.22302 -1.33875 0
M  V30 17293 C 1591.52 -3.85292 -1.78425 0
M  V30 17294 O 1592.54 -3.2601 -1.43514 0
M  V30 17295 O 1591.4 -4.89526 -2.42953 0
M  V30 17296 H 1588.5 -0.724294 -0.399157 0
M  V30 17297 H 1591.04 -1.69491 -0.0842821 0
M  V30 17298 H 1589.82 -3.87756 -0.525434 0
M  V30 17299 H 1589.44 -3.34162 -2.15456 0
M  V30 17300 N 1590.44 0.372521 -1.53134 0
M  V30 17301 C 1591.68 1.12465 -1.70678 0
M  V30 17302 C 1592.04 1.8676 -0.445503 0
M  V30 17303 O 1593.24 2.64155 -0.497531 0
M  V30 17304 C 1591.51 2.06389 -2.91785 0
M  V30 17305 S 1593.07 2.89216 -3.3 0
M  V30 17306 H 1589.89 0.380458 -0.600644 0
M  V30 17307 H 1592.49 0.406831 -1.9122 0
M  V30 17308 H 1591.19 1.50559 -3.81786 0
M  V30 17309 H 1590.73 2.82654 -2.73624 0
M  V30 17310 H 1592.74 4.08642 -2.81471 0
M  V30 17311 N 1591.91 1.44376 0.631925 0
M  V30 17312 C 1593.33 1.28245 0.950014 0
M  V30 17313 C 1593.53 0.217644 2.00321 0
M  V30 17314 O 1592.59 -0.396736 2.49364 0
M  V30 17315 C 1593.9 2.65378 1.41404 0
M  V30 17316 C 1595.45 2.73081 1.52956 0
M  V30 17317 C 1595.92 4.10682 2.02742 0
M  V30 17318 N 1597.41 4.12854 2.10014 0
M  V30 17319 C 1598.15 5.16173 2.49705 0
M  V30 17320 N 1597.64 6.29855 2.88539 0
M  V30 17321 N 1599.44 5.03528 2.49832 0
M  V30 17322 H 1591.59 2.12302 -0.0646167 0
M  V30 17323 H 1593.85 0.9474 0.0337162 0
M  V30 17324 H 1593.56 3.44366 0.714476 0
M  V30 17325 H 1593.43 2.92213 2.3852 0
M  V30 17326 H 1595.82 1.94412 2.22009 0
M  V30 17327 H 1595.9 2.49988 0.542176 0
M  V30 17328 H 1595.54 4.89827 1.34285 0
M  V30 17329 H 1595.47 4.31152 3.02351 0
M  V30 17330 H 1597.96 3.30806 1.8269 0
M  V30 17331 H 1598.28 7.04505 3.17637 0
M  V30 17332 H 1596.62 6.33294 2.86293 0
M  V30 17333 H 1599.81 4.13773 2.18883 0
M  V30 17334 H 1599.99 5.84172 2.80441 0
M  V30 17335 N 1593.39 -0.872258 1.31261 0
M  V30 17336 C 1594.64 -1.62511 1.20815 0
M  V30 17337 C 1594.97 -1.93084 -0.234231 0
M  V30 17338 O 1594.22 -1.55945 -1.18236 0
M  V30 17339 C 1594.52 -2.96524 1.9952 0
M  V30 17340 C 1594.19 -2.85453 3.49038 0
M  V30 17341 C 1592.85 -2.8214 3.89808 0
M  V30 17342 C 1595.2 -2.72654 4.44195 0
M  V30 17343 C 1592.53 -2.63885 5.24005 0
M  V30 17344 C 1594.88 -2.55936 5.78515 0
M  V30 17345 C 1593.54 -2.51005 6.18508 0
M  V30 17346 H 1592.81 -0.594672 0.442093 0
M  V30 17347 H 1595.46 -1.01319 1.62501 0
M  V30 17348 H 1593.77 -3.61739 1.50507 0
M  V30 17349 H 1595.46 -3.53763 1.8882 0
M  V30 17350 H 1592.05 -2.88847 3.16647 0
M  V30 17351 H 1596.24 -2.7427 4.1363 0
M  V30 17352 H 1591.49 -2.58491 5.54069 0
M  V30 17353 H 1595.67 -2.45009 6.51877 0
M  V30 17354 H 1593.29 -2.36619 7.22437 0
M  V30 17355 N 1594.87 -1.14184 -1.08627 0
M  V30 17356 C 1596.09 -0.932504 -1.85254 0
M  V30 17357 C 1596.52 0.513792 -1.80947 0
M  V30 17358 O 1595.88 1.36525 -1.19292 0
M  V30 17359 C 1595.93 -1.43519 -3.30809 0
M  V30 17360 O 1595.03 -0.625806 -4.07624 0
M  V30 17361 H 1594.37 -0.333573 -0.57413 0
M  V30 17362 H 1596.9 -1.51853 -1.3712 0
M  V30 17363 H 1596.91 -1.44238 -3.81654 0
M  V30 17364 H 1595.59 -2.48819 -3.3326 0
M  V30 17365 H 1594.16 -0.687168 -3.66514 0
M  V30 17366 N 1596.35 1.26749 -0.936613 0
M  V30 17367 C 1597.57 1.98597 -0.597817 0
M  V30 17368 C 1598 1.69324 0.8192 0
M  V30 17369 O 1597.36 0.938634 1.55111 0
M  V30 17370 C 1597.4 3.50656 -0.841007 0
M  V30 17371 O 1596.51 4.12304 0.0891038 0
M  V30 17372 H 1595.85 0.623197 -0.229176 0
M  V30 17373 H 1598.38 1.61332 -1.2583 0
M  V30 17374 H 1598.39 4.00857 -0.760093 0
M  V30 17375 H 1597.06 3.71293 -1.87388 0
M  V30 17376 H 1595.64 3.72876 -0.0424804 0
M  V30 17377 N 1597.83 0.703118 1.41046 0
M  V30 17378 C 1598.77 0.0425767 2.30761 0
M  V30 17379 C 1599.74 -0.763406 1.47517 0
M  V30 17380 O 1600.93 -0.7299 1.76287 0
M  V30 17381 C 1598.07 -0.882353 3.33629 0
M  V30 17382 C 1597.18 -0.0671799 4.31948 0
M  V30 17383 C 1596.32 -0.990443 5.21885 0
M  V30 17384 C 1595.36 -0.168622 6.11868 0
M  V30 17385 N 1594.49 -1.04609 6.94263 0
M  V30 17386 H 1599.33 0.813363 2.86685 0
M  V30 17387 H 1596.87 0.412804 1.41189 0
M  V30 17388 H 1598.83 -1.43273 3.91827 0
M  V30 17389 H 1597.46 -1.61946 2.79237 0
M  V30 17390 H 1596.51 0.600219 3.75635 0
M  V30 17391 H 1597.82 0.569624 4.95537 0
M  V30 17392 H 1596.98 -1.60979 5.84954 0
M  V30 17393 H 1595.71 -1.66109 4.5854 0
M  V30 17394 H 1594.72 0.463746 5.47841 0
M  V30 17395 H 1595.94 0.49834 6.77269 0
M  V30 17396 H 1593.89 -1.70262 6.33519 0
M  V30 17397 H 1593.81 -0.465036 7.54568 0
M  V30 17398 H 1595.08 -1.65201 7.61793 0
M  V30 17399 N 1599.3 -1.51086 0.448402 0
M  V30 17400 C 1600.55 -2.01778 -0.114116 0
M  V30 17401 C 1600.87 -1.3339 -1.4224 0
M  V30 17402 O 1600.14 -0.471938 -1.9013 0
M  V30 17403 H 1598.72 -0.745634 -0.0451624 0
M  V30 17404 H 1601.39 -1.85639 0.59364 0
M  V30 17405 H 1600.48 -3.10823 -0.28205 0
M  V30 17406 N 1600.78 -0.180154 -1.56567 0
M  V30 17407 C 1602.01 0.46854 -2.01525 0
M  V30 17408 C 1602.43 1.56211 -1.06036 0
M  V30 17409 O 1601.78 1.82392 -0.06269 0
M  V30 17410 C 1601.83 1.0387 -3.46256 0
M  V30 17411 O 1601.55 -0.0112203 -4.38099 0
M  V30 17412 C 1603.06 1.76475 -4.06659 0
M  V30 17413 H 1600.28 0.119098 -0.660346 0
M  V30 17414 H 1602.82 -0.284477 -2.02512 0
M  V30 17415 H 1600.97 1.74217 -3.46016 0
M  V30 17416 H 1601.39 0.41099 -5.22887 0
M  V30 17417 H 1602.86 2.11618 -5.09825 0
M  V30 17418 H 1603.34 2.66301 -3.49257 0
M  V30 17419 H 1603.95 1.10749 -4.10627 0
M  V30 17420 N 1602.26 1.57322 0.0935319 0
M  V30 17421 C 1603.51 1.858 0.795165 0
M  V30 17422 C 1603.83 0.769078 1.79193 0
M  V30 17423 O 1603.1 -0.204511 1.9483 0
M  V30 17424 H 1601.68 0.68557 0.296653 0
M  V30 17425 H 1604.34 1.94756 0.0747892 0
M  V30 17426 H 1603.44 2.82588 1.32479 0
M  V30 17427 N 1603.74 -0.364395 1.53329 0
M  V30 17428 C 1604.67 -1.45243 1.8283 0
M  V30 17429 C 1605.65 -1.55834 0.681886 0
M  V30 17430 O 1606.83 -1.70383 0.931845 0
M  V30 17431 C 1603.96 -2.82565 2.01926 0
M  V30 17432 C 1602.92 -2.86797 3.17697 0
M  V30 17433 C 1602.24 -4.26806 3.22089 0
M  V30 17434 C 1603.54 -2.54212 4.56261 0
M  V30 17435 H 1605.24 -1.20804 2.73946 0
M  V30 17436 H 1602.78 -0.579705 1.31816 0
M  V30 17437 H 1604.74 -3.58709 2.21147 0
M  V30 17438 H 1603.46 -3.08394 1.07521 0
M  V30 17439 H 1602.12 -2.13105 2.98298 0
M  V30 17440 H 1601.77 -4.49712 2.25318 0
M  V30 17441 H 1601.47 -4.30553 3.99873 0
M  V30 17442 H 1602.99 -5.04821 3.43495 0
M  V30 17443 H 1604.41 -3.20069 4.75635 0
M  V30 17444 H 1602.8 -2.69273 5.36295 0
M  V30 17445 H 1603.87 -1.49458 4.61292 0
M  V30 17446 N 1605.22 -1.44709 -0.62426 0
M  V30 17447 C 1606.46 -1.47853 -1.38368 0
M  V30 17448 C 1606.79 -0.113769 -1.94167 0
M  V30 17449 O 1606.05 0.88538 -1.74527 0
M  V30 17450 C 1606.35 -2.4919 -2.56201 0
M  V30 17451 C 1606.01 -3.94339 -2.1865 0
M  V30 17452 C 1604.67 -4.33865 -2.08122 0
M  V30 17453 C 1607.03 -4.85689 -1.89091 0
M  V30 17454 C 1604.35 -5.62658 -1.66233 0
M  V30 17455 C 1606.71 -6.14877 -1.48693 0
M  V30 17456 C 1605.37 -6.5335 -1.36711 0
M  V30 17457 H 1604.64 -0.541034 -0.506324 0
M  V30 17458 H 1607.29 -1.77962 -0.707235 0
M  V30 17459 H 1605.59 -2.1259 -3.29109 0
M  V30 17460 H 1607.29 -2.48867 -3.1443 0
M  V30 17461 H 1603.88 -3.63072 -2.27764 0
M  V30 17462 H 1608.06 -4.55902 -1.96131 0
M  V30 17463 H 1603.32 -5.91278 -1.55565 0
M  V30 17464 H 1607.49 -6.85115 -1.24861 0
M  V30 17465 H 1605.12 -7.53049 -1.04025 0
M  V30 17466 N 1606.69 0.865285 -1.31722 0
M  V30 17467 C 1607.93 1.63264 -1.2298 0
M  V30 17468 C 1608.3 1.90873 0.207754 0
M  V30 17469 O 1609.5 2.65518 0.418737 0
M  V30 17470 C 1607.77 2.92412 -2.05499 0
M  V30 17471 S 1609.33 3.83263 -2.13669 0
M  V30 17472 H 1606.15 0.560119 -0.437936 0
M  V30 17473 H 1608.75 1.02554 -1.66442 0
M  V30 17474 H 1607.45 2.7006 -3.09024 0
M  V30 17475 H 1606.98 3.58145 -1.62774 0
M  V30 17476 H 1609 4.79448 -1.27843 0
M  V30 17477 N 1608.17 1.14759 1.0802 0
M  V30 17478 C 1609.4 0.942316 1.84757 0
M  V30 17479 C 1609.82 -0.504188 1.81217 0
M  V30 17480 O 1609.18 -1.35891 1.20014 0
M  V30 17481 C 1609.23 1.45271 3.30043 0
M  V30 17482 O 1608.33 0.647414 4.07287 0
M  V30 17483 H 1607.67 0.336613 0.572353 0
M  V30 17484 H 1610.2 1.52578 1.36313 0
M  V30 17485 H 1610.21 1.4626 3.80883 0
M  V30 17486 H 1608.89 2.50583 3.31935 0
M  V30 17487 H 1607.47 0.706595 3.66144 0
M  V30 17488 N 1609.65 -1.26251 0.943322 0
M  V30 17489 C 1610.88 -1.97739 0.608852 0
M  V30 17490 C 1611.29 -1.70225 -0.81663 0
M  V30 17491 O 1610.65 -0.97172 -1.54479 0
M  V30 17492 C 1610.7 -3.51505 0.844172 0
M  V30 17493 O 1610.42 -3.78063 2.21359 0
M  V30 17494 C 1611.92 -4.40233 0.52054 0
M  V30 17495 H 1609.14 -0.630619 0.229262 0
M  V30 17496 H 1611.69 -1.6071 1.26461 0
M  V30 17497 H 1609.84 -3.86687 0.23499 0
M  V30 17498 H 1610.26 -4.72582 2.27523 0
M  V30 17499 H 1611.73 -5.47074 0.735802 0
M  V30 17500 H 1612.21 -4.35811 -0.544541 0
M  V30 17501 H 1612.81 -4.10599 1.10854 0
M  V30 17502 N 1611.13 -0.710588 -1.40671 0
M  V30 17503 C 1612.36 -0.257442 -2.05292 0
M  V30 17504 C 1612.77 1.09891 -1.53523 0
M  V30 17505 O 1612.13 1.68966 -0.689703 0
M  V30 17506 C 1612.18 -0.223091 -3.60811 0
M  V30 17507 O 1611.9 -1.52588 -4.10668 0
M  V30 17508 C 1613.4 0.249217 -4.42599 0
M  V30 17509 H 1610.62 -0.116663 -0.66078 0
M  V30 17510 H 1613.17 -0.967391 -1.80172 0
M  V30 17511 H 1611.32 0.437787 -3.84918 0
M  V30 17512 H 1611.74 -1.42301 -5.04827 0
M  V30 17513 H 1613.21 0.22211 -5.51553 0
M  V30 17514 H 1613.69 1.29057 -4.19811 0
M  V30 17515 H 1614.29 -0.381202 -4.23588 0
M  V30 17516 N 1612.61 1.50847 -0.456408 0
M  V30 17517 C 1613.54 2.26004 0.381421 0
M  V30 17518 C 1614.55 1.30757 0.969872 0
M  V30 17519 O 1615.74 1.56375 0.86077 0
M  V30 17520 C 1612.84 3.01506 1.54748 0
M  V30 17521 C 1612.01 4.23997 1.07448 0
M  V30 17522 C 1611.07 4.81917 2.11288 0
M  V30 17523 O 1610.1 5.43238 1.69945 0
M  V30 17524 N 1611.3 4.67622 3.43962 0
M  V30 17525 H 1614.07 2.98545 -0.262823 0
M  V30 17526 H 1611.63 1.59347 -0.286357 0
M  V30 17527 H 1613.62 3.37137 2.23877 0
M  V30 17528 H 1612.19 2.31856 2.0967 0
M  V30 17529 H 1611.41 3.93642 0.209584 0
M  V30 17530 H 1612.7 5.03446 0.736144 0
M  V30 17531 H 1612.1 4.18821 3.8027 0
M  V30 17532 H 1610.65 5.07562 4.0893 0
M  V30 17533 N 1614.09 0.188454 1.56469 0
M  V30 17534 C 1615.33 -0.451165 1.97 0
M  V30 17535 C 1615.65 -1.6261 1.07624 0
M  V30 17536 O 1614.92 -1.95354 0.146125 0
M  V30 17537 H 1613.5 -0.16967 0.727476 0
M  V30 17538 H 1616.17 0.273638 1.9297 0
M  V30 17539 H 1615.26 -0.799741 3.0168 0
M  V30 17540 N 1615.56 -1.5737 -0.0851874 0
M  V30 17541 C 1616.51 -2.02758 -1.10262 0
M  V30 17542 C 1617.48 -0.905702 -1.39235 0
M  V30 17543 O 1618.67 -1.17241 -1.50529 0
M  V30 17544 C 1615.81 -2.46528 -2.41492 0
M  V30 17545 C 1614.92 -3.72278 -2.19165 0
M  V30 17546 C 1614.05 -4.04885 -3.43863 0
M  V30 17547 C 1613.09 -5.23715 -3.16842 0
M  V30 17548 N 1612.23 -5.52026 -4.33833 0
M  V30 17549 H 1617.07 -2.89453 -0.708583 0
M  V30 17550 H 1614.61 -1.43156 -0.338332 0
M  V30 17551 H 1616.56 -2.69952 -3.18091 0
M  V30 17552 H 1615.19 -1.62829 -2.78723 0
M  V30 17553 H 1614.25 -3.56272 -1.33321 0
M  V30 17554 H 1615.56 -4.5902 -1.95197 0
M  V30 17555 H 1614.71 -4.29138 -4.28865 0
M  V30 17556 H 1613.45 -3.16683 -3.70895 0
M  V30 17557 H 1612.46 -4.99272 -2.30234 0
M  V30 17558 H 1613.68 -6.13523 -2.91146 0
M  V30 17559 H 1611.63 -4.66784 -4.60922 0
M  V30 17560 H 1611.54 -6.3316 -4.13091 0
M  V30 17561 H 1612.81 -5.80822 -5.19871 0
M  V30 17562 N 1617.04 0.356258 -1.53521 0
M  V30 17563 C 1618.29 1.09526 -1.69372 0
M  V30 17564 C 1618.6 1.90189 -0.456912 0
M  V30 17565 O 1619.81 2.66928 -0.496141 0
M  V30 17566 C 1618.27 1.99643 -2.99451 0
M  V30 17567 C 1617.87 1.24248 -4.30426 0
M  V30 17568 C 1619.62 2.73478 -3.24669 0
M  V30 17569 C 1617.52 2.13321 -5.51587 0
M  V30 17570 H 1616.45 0.412594 -0.631096 0
M  V30 17571 H 1619.11 0.355603 -1.80021 0
M  V30 17572 H 1617.49 2.77377 -2.82627 0
M  V30 17573 H 1618.66 0.515123 -4.57912 0
M  V30 17574 H 1616.98 0.622355 -4.11723 0
M  V30 17575 H 1619.57 3.40366 -4.12377 0
M  V30 17576 H 1619.92 3.39355 -2.4113 0
M  V30 17577 H 1620.45 2.02823 -3.4221 0
M  V30 17578 H 1617.19 1.52006 -6.37632 0
M  V30 17579 H 1616.71 2.8388 -5.28368 0
M  V30 17580 H 1618.39 2.72666 -5.86739 0
M  V30 17581 N 1618.52 1.45038 0.616577 0
M  V30 17582 C 1619.45 1.55858 1.73869 0
M  V30 17583 C 1620.43 0.410657 1.65069 0
M  V30 17584 O 1621.62 0.632652 1.83606 0
M  V30 17585 C 1618.75 1.51635 3.12448 0
M  V30 17586 C 1617.7 2.65053 3.36052 0
M  V30 17587 C 1617.03 2.45883 4.74811 0
M  V30 17588 C 1618.33 4.07121 3.27185 0
M  V30 17589 H 1620.02 2.49784 1.6507 0
M  V30 17590 H 1617.57 1.20216 0.792724 0
M  V30 17591 H 1619.52 1.57803 3.90738 0
M  V30 17592 H 1618.24 0.542342 3.22066 0
M  V30 17593 H 1616.9 2.58299 2.60149 0
M  V30 17594 H 1616.55 1.46641 4.8115 0
M  V30 17595 H 1616.25 3.21935 4.9156 0
M  V30 17596 H 1617.77 2.53892 5.55312 0
M  V30 17597 H 1619.19 4.15167 3.9536 0
M  V30 17598 H 1617.58 4.83491 3.55466 0
M  V30 17599 H 1618.65 4.29663 2.24762 0
M  V30 17600 N 1620 -0.858287 1.32179 0
M  V30 17601 C 1621.24 -1.6146 1.22713 0
M  V30 17602 C 1621.58 -1.93045 -0.211479 0
M  V30 17603 O 1620.85 -1.57034 -1.14764 0
M  V30 17604 C 1621.13 -2.93728 2.08317 0
M  V30 17605 C 1620.99 -2.68947 3.60538 0
M  V30 17606 C 1622.31 -3.94959 1.94153 0
M  V30 17607 H 1619.43 -0.585872 0.447128 0
M  V30 17608 H 1622.07 -0.99134 1.62088 0
M  V30 17609 H 1620.22 -3.4692 1.74867 0
M  V30 17610 H 1621.89 -2.22336 4.04183 0
M  V30 17611 H 1620.13 -2.02974 3.83385 0
M  V30 17612 H 1620.8 -3.63112 4.15756 0
M  V30 17613 H 1623.28 -3.51013 2.23449 0
M  V30 17614 H 1622.16 -4.85371 2.56332 0
M  V30 17615 H 1622.42 -4.32672 0.908132 0
M  V30 17616 N 1621.48 -1.1533 -1.07409 0
M  V30 17617 C 1622.41 -0.807289 -2.14512 0
M  V30 17618 C 1623.42 0.18043 -1.61797 0
M  V30 17619 O 1624.61 -0.042733 -1.78449 0
M  V30 17620 C 1621.71 -0.179338 -3.38425 0
M  V30 17621 C 1620.88 -1.20433 -4.20493 0
M  V30 17622 C 1619.94 -0.598268 -5.22788 0
M  V30 17623 O 1618.97 -1.26405 -5.54987 0
M  V30 17624 N 1620.17 0.620283 -5.77177 0
M  V30 17625 H 1622.93 -1.729 -2.44797 0
M  V30 17626 H 1620.5 -1.0491 -1.23311 0
M  V30 17627 H 1622.49 0.238867 -4.03994 0
M  V30 17628 H 1621.06 0.645706 -3.05858 0
M  V30 17629 H 1620.28 -1.79912 -3.5075 0
M  V30 17630 H 1621.57 -1.89642 -4.72137 0
M  V30 17631 H 1620.96 1.17958 -5.53265 0
M  V30 17632 H 1619.52 0.980853 -6.44378 0
M  V30 17633 N 1622.95 1.25748 -0.950004 0
M  V30 17634 C 1623.9 2.26061 -0.46531 0
M  V30 17635 C 1624.87 1.59021 0.479742 0
M  V30 17636 O 1626.06 1.86687 0.394011 0
M  V30 17637 C 1623.2 3.44156 0.255146 0
M  V30 17638 C 1622.31 4.25846 -0.726604 0
M  V30 17639 C 1621.44 5.31198 0.0159429 0
M  V30 17640 C 1620.48 6.04572 -0.957046 0
M  V30 17641 N 1619.62 7.0167 -0.245676 0
M  V30 17642 H 1624.46 2.66891 -1.32563 0
M  V30 17643 H 1622 1.31216 -0.664882 0
M  V30 17644 H 1623.95 4.11465 0.689381 0
M  V30 17645 H 1622.58 3.04213 1.07954 0
M  V30 17646 H 1621.64 3.58242 -1.27933 0
M  V30 17647 H 1622.95 4.76669 -1.46928 0
M  V30 17648 H 1622.1 6.04561 0.509037 0
M  V30 17649 H 1620.84 4.81235 0.791442 0
M  V30 17650 H 1619.85 5.30028 -1.46118 0
M  V30 17651 H 1621.07 6.56624 -1.7327 0
M  V30 17652 H 1619.02 6.54005 0.51117 0
M  V30 17653 H 1618.93 7.50289 -0.927527 0
M  V30 17654 H 1620.2 7.79172 0.226034 0
M  V30 17655 N 1624.43 0.718038 1.40292 0
M  V30 17656 C 1625.36 0.0818367 2.33357 0
M  V30 17657 C 1626.34 -0.742854 1.53022 0
M  V30 17658 O 1627.53 -0.691281 1.8148 0
M  V30 17659 C 1624.66 -0.838843 3.37017 0
M  V30 17660 C 1623.61 -0.119589 4.27833 0
M  V30 17661 C 1622.94 -1.15615 5.22051 0
M  V30 17662 C 1624.24 1.02769 5.1209 0
M  V30 17663 H 1625.93 0.859167 2.86808 0
M  V30 17664 H 1623.48 0.414606 1.37902 0
M  V30 17665 H 1625.43 -1.29332 4.01063 0
M  V30 17666 H 1624.15 -1.6481 2.81967 0
M  V30 17667 H 1622.81 0.315088 3.65243 0
M  V30 17668 H 1622.46 -1.95852 4.63304 0
M  V30 17669 H 1622.16 -0.679767 5.83655 0
M  V30 17670 H 1623.69 -1.61068 5.88973 0
M  V30 17671 H 1625.1 0.652461 5.69575 0
M  V30 17672 H 1623.5 1.4326 5.82749 0
M  V30 17673 H 1624.57 1.85723 4.47923 0
M  V30 17674 N 1625.91 -1.50602 0.464402 0
M  V30 17675 C 1626.84 -2.31252 -0.323263 0
M  V30 17676 C 1627.82 -1.37856 -0.996476 0
M  V30 17677 O 1629.01 -1.66777 -0.994933 0
M  V30 17678 C 1626.14 -3.17414 -1.40945 0
M  V30 17679 C 1625.09 -4.19307 -0.858226 0
M  V30 17680 C 1624.42 -4.94164 -2.0422 0
M  V30 17681 C 1625.72 -5.22148 0.125921 0
M  V30 17682 H 1627.41 -2.97349 0.34983 0
M  V30 17683 H 1624.96 -1.42997 0.169685 0
M  V30 17684 H 1626.91 -3.72627 -1.96791 0
M  V30 17685 H 1625.63 -2.49189 -2.11122 0
M  V30 17686 H 1624.29 -3.65185 -0.321785 0
M  V30 17687 H 1623.94 -4.22417 -2.7308 0
M  V30 17688 H 1623.64 -5.63083 -1.67963 0
M  V30 17689 H 1625.16 -5.5221 -2.60569 0
M  V30 17690 H 1626.58 -5.72272 -0.343136 0
M  V30 17691 H 1624.98 -5.98749 0.402433 0
M  V30 17692 H 1626.05 -4.73307 1.05399 0
M  V30 17693 N 1627.39 -0.19675 -1.56367 0
M  V30 17694 C 1628.34 0.740138 -2.2051 0
M  V30 17695 C 1629.33 1.21854 -1.17677 0
M  V30 17696 O 1630.54 1.18124 -1.35819 0
M  V30 17697 H 1626.91 0.257034 -0.706709 0
M  V30 17698 H 1628.88 0.175454 -2.97884 0
M  V30 17699 C 1627.63 1.94841 -2.8798 0
M  V30 17700 H 1626.95 1.58936 -3.66851 0
M  V30 17701 H 1628.39 2.58227 -3.36296 0
M  V30 17702 C 1626.85 2.78821 -1.89104 0
M  V30 17703 O 1627.38 3.76797 -1.39237 0
M  V30 17704 N 1625.59 2.44348 -1.57297 0
M  V30 17705 H 1625.14 1.64732 -1.98043 0
M  V30 17706 H 1625.09 3.00822 -0.913978 0
M  V30 17707 N 1628.87 1.57413 0.0768405 0
M  V30 17708 C 1629.81 2.0334 1.09185 0
M  V30 17709 C 1630.78 0.913073 1.38752 0
M  V30 17710 O 1631.97 1.18038 1.49906 0
M  V30 17711 C 1629.11 2.47805 2.40181 0
M  V30 17712 C 1628.22 3.73435 2.17188 0
M  V30 17713 C 1627.36 4.06703 3.41711 0
M  V30 17714 C 1626.4 5.25388 3.1406 0
M  V30 17715 N 1625.53 5.54319 4.309 0
M  V30 17716 H 1630.37 2.89825 0.693223 0
M  V30 17717 H 1627.91 1.43334 0.330736 0
M  V30 17718 H 1629.87 2.71635 3.16655 0
M  V30 17719 H 1628.5 1.64305 2.77856 0
M  V30 17720 H 1627.55 3.56974 1.3143 0
M  V30 17721 H 1628.86 4.60049 1.9276 0
M  V30 17722 H 1628.02 4.31407 4.26583 0
M  V30 17723 H 1626.75 3.18646 3.6921 0
M  V30 17724 H 1625.76 5.00486 2.27583 0
M  V30 17725 H 1626.98 6.15059 2.87888 0
M  V30 17726 H 1624.93 4.69222 4.5844 0
M  V30 17727 H 1624.85 6.35342 4.09727 0
M  V30 17728 H 1626.12 5.83571 5.16783 0
M  V30 17729 N 1630.34 -0.348112 1.53707 0
M  V30 17730 C 1631.59 -1.08886 1.70734 0
M  V30 17731 C 1631.92 -1.88782 0.468142 0
M  V30 17732 O 1631.17 -1.8781 -0.550081 0
M  V30 17733 C 1631.47 -2.06123 2.91973 0
M  V30 17734 C 1631.14 -1.42574 4.27766 0
M  V30 17735 C 1629.8 -1.24971 4.64689 0
M  V30 17736 C 1632.15 -0.967538 5.12141 0
M  V30 17737 C 1629.48 -0.601597 5.83607 0
M  V30 17738 C 1631.83 -0.33335 6.31721 0
M  V30 17739 C 1630.5 -0.144967 6.67343 0
M  V30 17740 H 1629.77 -0.398444 0.624759 0
M  V30 17741 H 1632.41 -0.368657 1.87918 0
M  V30 17742 H 1630.72 -2.84509 2.69373 0
M  V30 17743 H 1632.42 -2.63423 3.0234 0
M  V30 17744 H 1629.01 -1.57271 3.98702 0
M  V30 17745 H 1633.19 -1.0914 4.84151 0
M  V30 17746 H 1628.45 -0.444216 6.09784 0
M  V30 17747 H 1632.62 0.0298081 6.96394 0
M  V30 17748 H 1630.25 0.359291 7.5935 0
M  V30 17749 N 1631.82 -1.45363 -0.608876 0
M  V30 17750 C 1633.07 -1.48586 -1.364 0
M  V30 17751 C 1633.38 -0.131213 -1.95159 0
M  V30 17752 O 1634.59 -0.0410845 -2.71469 0
M  V30 17753 C 1633.05 -2.61694 -2.47071 0
M  V30 17754 C 1632.65 -4.03466 -1.94729 0
M  V30 17755 C 1634.4 -2.74162 -3.24091 0
M  V30 17756 C 1632.31 -5.07958 -3.02874 0
M  V30 17757 H 1631.24 -0.552893 -0.512665 0
M  V30 17758 H 1633.89 -1.71499 -0.65271 0
M  V30 17759 H 1632.27 -2.32062 -3.20879 0
M  V30 17760 H 1633.44 -4.4277 -1.27638 0
M  V30 17761 H 1631.76 -3.95436 -1.30457 0
M  V30 17762 H 1634.35 -3.494 -4.04752 0
M  V30 17763 H 1634.7 -1.80751 -3.75013 0
M  V30 17764 H 1635.23 -3.03313 -2.57383 0
M  V30 17765 H 1631.97 -6.03073 -2.56871 0
M  V30 17766 H 1631.49 -4.73225 -3.68535 0
M  V30 17767 H 1633.17 -5.3265 -3.67277 0
M  V30 17768 N 1633.3 0.851265 -1.32632 0
M  V30 17769 C 1634.55 1.60807 -1.23568 0
M  V30 17770 C 1634.88 1.93155 0.201238 0
M  V30 17771 O 1634.15 1.5764 1.13929 0
M  V30 17772 C 1634.44 2.92619 -2.09872 0
M  V30 17773 C 1634.29 2.67031 -3.61959 0
M  V30 17774 C 1635.61 3.93924 -1.96244 0
M  V30 17775 H 1632.73 0.583492 -0.450229 0
M  V30 17776 H 1635.37 0.98273 -1.62611 0
M  V30 17777 H 1633.52 3.45988 -1.76704 0
M  V30 17778 H 1635.19 2.2019 -4.05357 0
M  V30 17779 H 1633.44 2.00938 -3.84456 0
M  V30 17780 H 1634.11 3.60902 -4.17676 0
M  V30 17781 H 1636.58 3.49823 -2.25307 0
M  V30 17782 H 1635.46 4.84005 -2.58902 0
M  V30 17783 H 1635.72 4.32185 -0.931065 0
M  V30 17784 N 1634.78 1.15898 1.06796 0
M  V30 17785 C 1635.69 0.87507 2.17669 0
M  V30 17786 C 1636.7 -0.150763 1.73346 0
M  V30 17787 O 1637.88 0.0246621 2.01385 0
M  V30 17788 C 1634.95 0.374555 3.44671 0
M  V30 17789 C 1634.01 1.46498 4.0353 0
M  V30 17790 C 1633.24 0.988256 5.2447 0
M  V30 17791 O 1633.46 -0.163992 5.70164 0
M  V30 17792 O 1632.4 1.7744 5.75151 0
M  V30 17793 H 1636.22 1.80208 2.44456 0
M  V30 17794 H 1633.81 0.93854 1.1624 0
M  V30 17795 H 1635.69 0.102161 4.21276 0
M  V30 17796 H 1634.36 -0.524513 3.19422 0
M  V30 17797 H 1633.27 1.79105 3.28439 0
M  V30 17798 H 1634.6 2.33917 4.33063 0
M  V30 17799 N 1636.26 -1.25243 0.956659 0
M  V30 17800 C 1637.48 -1.97621 0.629337 0
M  V30 17801 C 1637.91 -1.70606 -0.792158 0
M  V30 17802 O 1637.26 -0.963192 -1.53598 0
M  V30 17803 C 1637.31 -3.49273 0.896687 0
M  V30 17804 O 1636.42 -4.12393 -0.0234986 0
M  V30 17805 H 1635.76 -0.619472 0.239061 0
M  V30 17806 H 1638.29 -1.5931 1.28381 0
M  V30 17807 H 1638.3 -3.99597 0.82377 0
M  V30 17808 H 1636.97 -3.68265 1.93271 0
M  V30 17809 H 1635.55 -3.72761 0.101796 0
M  V30 17810 N 1637.73 -0.725468 -1.3991 0
M  V30 17811 C 1638.66 -0.094211 -2.3331 0
M  V30 17812 C 1639.65 0.734728 -1.53414 0
M  V30 17813 O 1640.83 0.681647 -1.81844 0
M  V30 17814 C 1637.96 0.820958 -3.37457 0
M  V30 17815 C 1636.91 0.0968983 -4.2789 0
M  V30 17816 C 1636.24 1.12845 -5.22657 0
M  V30 17817 C 1637.54 -1.05483 -5.11537 0
M  V30 17818 H 1639.23 -0.874365 -2.86348 0
M  V30 17819 H 1636.78 -0.421913 -1.3768 0
M  V30 17820 H 1638.73 1.27203 -4.01743 0
M  V30 17821 H 1637.46 1.63312 -2.82837 0
M  V30 17822 H 1636.12 -0.334454 -3.65071 0
M  V30 17823 H 1635.76 1.93392 -4.64337 0
M  V30 17824 H 1635.46 0.648805 -5.84007 0
M  V30 17825 H 1636.99 1.57942 -5.89819 0
M  V30 17826 H 1638.4 -0.682657 -5.69221 0
M  V30 17827 H 1636.8 -1.46349 -5.81981 0
M  V30 17828 H 1637.87 -1.88095 -4.46932 0
M  V30 17829 N 1639.21 1.50354 -0.472382 0
M  V30 17830 C 1640.44 2.06746 0.0798134 0
M  V30 17831 C 1640.86 1.3361 1.33393 0
M  V30 17832 O 1640.21 0.405765 1.77932 0
M  V30 17833 C 1640.26 3.59636 0.3666 0
M  V30 17834 O 1639.98 4.30015 -0.837776 0
M  V30 17835 C 1641.49 4.32655 0.965618 0
M  V30 17836 H 1638.71 0.670956 -0.00765904 0
M  V30 17837 H 1641.25 1.93504 -0.661535 0
M  V30 17838 H 1639.4 3.72676 1.05788 0
M  V30 17839 H 1639.82 5.21248 -0.583161 0
M  V30 17840 H 1641.29 5.406 1.11604 0
M  V30 17841 H 1641.77 3.93237 1.95606 0
M  V30 17842 H 1642.38 4.24149 0.312676 0
M  V30 17843 N 1640.69 0.205039 1.56261 0
M  V30 17844 C 1642.1 -0.305792 1.84179 0
M  V30 17845 C 1642.45 -1.60672 1.126 0
M  V30 17846 O 1641.58 -2.12855 0.390118 0
M  V30 17847 C 1642.17 -0.561596 3.34113 0
M  V30 17848 C 1640.73 -1.01677 3.62407 0
M  V30 17849 C 1639.88 -0.0707844 2.7721 0
M  V30 17850 H 1642.83 0.428609 1.52803 0
M  V30 17851 H 1642.85 -1.40969 3.53423 0
M  V30 17852 H 1642.36 0.38541 3.86182 0
M  V30 17853 H 1640.46 -1.97771 3.1578 0
M  V30 17854 H 1640.58 -0.902607 4.70521 0
M  V30 17855 H 1638.94 -0.574529 2.48136 0
M  V30 17856 H 1639.72 0.870844 3.32071 0
M  V30 17857 N 1642.17 -1.57451 -0.0684915 0
M  V30 17858 C 1643.39 -1.92025 -0.78366 0
M  V30 17859 C 1643.82 -0.801743 -1.70158 0
M  V30 17860 O 1643.18 0.245227 -1.79634 0
M  V30 17861 C 1643.23 -3.25563 -1.55051 0
M  V30 17862 O 1642.33 -3.15029 -2.6614 0
M  V30 17863 H 1641.67 -0.628714 -0.213576 0
M  V30 17864 H 1644.2 -2.04569 -0.0357474 0
M  V30 17865 H 1644.21 -3.59516 -1.92905 0
M  V30 17866 H 1642.89 -4.06547 -0.87704 0
M  V30 17867 H 1641.46 -2.9264 -2.31119 0
M  V30 17868 N 1643.65 0.339955 -1.5389 0
M  V30 17869 C 1644.87 1.10417 -1.75564 0
M  V30 17870 C 1645.3 1.81466 -0.495156 0
M  V30 17871 O 1644.66 1.72679 0.552415 0
M  V30 17872 C 1644.7 2.09056 -2.93816 0
M  V30 17873 O 1643.81 3.16645 -2.64215 0
M  V30 17874 H 1643.15 0.319164 -0.582263 0
M  V30 17875 H 1645.68 0.389251 -2.00863 0
M  V30 17876 H 1645.69 2.52215 -3.20705 0
M  V30 17877 H 1644.36 1.56741 -3.85234 0
M  V30 17878 H 1642.94 2.78278 -2.48225 0
M  V30 17879 N 1645.13 1.45684 0.601159 0
M  V30 17880 C 1646.06 1.57694 1.72206 0
M  V30 17881 C 1647.04 0.428141 1.64624 0
M  V30 17882 O 1648.22 0.65209 1.82925 0
M  V30 17883 C 1645.35 1.54941 3.10822 0
M  V30 17884 C 1644.31 2.68603 3.33222 0
M  V30 17885 C 1643.63 2.50906 4.72176 0
M  V30 17886 C 1644.93 4.10568 3.22849 0
M  V30 17887 H 1646.63 2.51521 1.62412 0
M  V30 17888 H 1644.17 1.2105 0.779929 0
M  V30 17889 H 1646.12 1.61939 3.89042 0
M  V30 17890 H 1644.85 0.576471 3.21472 0
M  V30 17891 H 1643.51 2.61043 2.57394 0
M  V30 17892 H 1643.16 1.51736 4.79568 0
M  V30 17893 H 1642.86 3.27131 4.88118 0
M  V30 17894 H 1644.38 2.59767 5.52588 0
M  V30 17895 H 1645.79 4.19336 3.90935 0
M  V30 17896 H 1644.19 4.87234 3.50318 0
M  V30 17897 H 1645.26 4.32022 2.20192 0
M  V30 17898 N 1646.6 -0.84422 1.33082 0
M  V30 17899 C 1647.83 -1.63654 1.27405 0
M  V30 17900 C 1648.25 -1.87476 -0.153146 0
M  V30 17901 O 1647.61 -1.43502 -1.10801 0
M  V30 17902 C 1647.66 -2.96698 2.04945 0
M  V30 17903 O 1646.76 -3.87751 1.40439 0
M  V30 17904 H 1646.1 -0.498545 0.438576 0
M  V30 17905 H 1648.63 -1.0507 1.7556 0
M  V30 17906 H 1648.64 -3.46438 2.1551 0
M  V30 17907 H 1647.32 -2.78682 3.08722 0
M  V30 17908 H 1645.9 -3.46231 1.38487 0
M  V30 17909 N 1648.08 -1.16463 -1.0618 0
M  V30 17910 C 1649.01 -0.895399 -2.1565 0
M  V30 17911 C 1649.99 0.158729 -1.69358 0
M  V30 17912 O 1651.18 0.010586 -1.94197 0
M  V30 17913 C 1648.31 -0.396959 -3.45024 0
M  V30 17914 C 1647.26 -1.38913 -4.0483 0
M  V30 17915 C 1646.59 -0.749043 -5.29427 0
M  V30 17916 C 1647.89 -2.7591 -4.43476 0
M  V30 17917 H 1649.58 -1.81085 -2.38429 0
M  V30 17918 H 1647.13 -0.872098 -1.14588 0
M  V30 17919 H 1649.08 -0.196086 -4.20944 0
M  V30 17920 H 1647.8 0.554002 -3.21867 0
M  V30 17921 H 1646.46 -1.57657 -3.30968 0
M  V30 17922 H 1646.11 0.208439 -5.02568 0
M  V30 17923 H 1645.81 -1.41128 -5.704 0
M  V30 17924 H 1647.34 -0.558217 -6.08043 0
M  V30 17925 H 1648.75 -2.60942 -5.10473 0
M  V30 17926 H 1647.15 -3.38618 -4.95437 0
M  V30 17927 H 1648.22 -3.31076 -3.54284 0
M  V30 17928 N 1649.56 1.24734 -0.963288 0
M  V30 17929 C 1650.49 2.24024 -0.434573 0
M  V30 17930 C 1651.47 1.55076 0.488889 0
M  V30 17931 O 1652.65 1.83732 0.421281 0
M  V30 17932 C 1649.78 3.36638 0.373148 0
M  V30 17933 C 1648.83 4.23653 -0.491959 0
M  V30 17934 S 1649.66 4.99531 -1.92949 0
M  V30 17935 C 1650.82 6.15607 -1.13043 0
M  V30 17936 H 1651.05 2.68524 -1.27601 0
M  V30 17937 H 1648.58 1.33945 -0.767994 0
M  V30 17938 H 1650.54 4.01955 0.833211 0
M  V30 17939 H 1649.2 2.90705 1.18951 0
M  V30 17940 H 1648.39 5.03837 0.127976 0
M  V30 17941 H 1648 3.63315 -0.887574 0
M  V30 17942 H 1650.29 6.76415 -0.383296 0
M  V30 17943 H 1651.23 6.81952 -1.9065 0
M  V30 17944 H 1651.64 5.60667 -0.656746 0
M  V30 17945 N 1651.04 0.732878 1.39523 0
M  V30 17946 C 1651.99 0.0676184 2.279 0
M  V30 17947 C 1652.97 -0.7148 1.44151 0
M  V30 17948 O 1654.16 -0.584158 1.67083 0
M  V30 17949 C 1651.29 -0.840482 3.32853 0
M  V30 17950 C 1650.38 -0.052326 4.24068 0
M  V30 17951 N 1650.77 0.973429 4.96345 0
M  V30 17952 C 1649.07 -0.282301 4.45106 0
M  V30 17953 C 1649.77 1.44851 5.63376 0
M  V30 17954 N 1648.74 0.767499 5.38155 0
M  V30 17955 H 1652.55 0.853533 2.81233 0
M  V30 17956 H 1650.06 0.567016 1.5218 0
M  V30 17957 H 1652.06 -1.33254 3.95031 0
M  V30 17958 H 1650.72 -1.62558 2.81078 0
M  V30 17959 H 1651.73 1.35474 4.99867 0
M  V30 17960 H 1648.41 -1.04237 4.04278 0
M  V30 17961 H 1649.8 2.30179 6.31242 0
M  V30 17962 N 1652.52 -1.50101 0.480349 0
M  V30 17963 C 1653.74 -2.07278 -0.0710872 0
M  V30 17964 C 1654.17 -1.34082 -1.31923 0
M  V30 17965 O 1653.52 -0.391251 -1.77028 0
M  V30 17966 C 1653.57 -3.59099 -0.328706 0
M  V30 17967 O 1652.68 -3.8764 -1.40745 0
M  V30 17968 H 1652.02 -0.66378 0.0170748 0
M  V30 17969 H 1654.55 -1.93178 0.674049 0
M  V30 17970 H 1654.56 -4.04049 -0.566435 0
M  V30 17971 H 1653.23 -4.11789 0.583316 0
M  V30 17972 H 1651.81 -3.54519 -1.15631 0
M  V30 17973 N 1653.99 -0.213323 -1.5615 0
M  V30 17974 C 1655.4 0.29602 -1.84338 0
M  V30 17975 C 1655.76 1.60073 -1.13451 0
M  V30 17976 O 1654.88 2.12645 -0.4014 0
M  V30 17977 C 1655.48 0.54387 -3.34406 0
M  V30 17978 C 1654.03 0.997539 -3.62941 0
M  V30 17979 C 1653.18 0.0560823 -2.77243 0
M  V30 17980 H 1656.13 -0.436707 -1.52573 0
M  V30 17981 H 1656.15 1.39093 -3.54166 0
M  V30 17982 H 1655.67 -0.405885 -3.85972 0
M  V30 17983 H 1653.77 1.96094 -3.16825 0
M  V30 17984 H 1653.88 0.877642 -4.70993 0
M  V30 17985 H 1652.24 0.561362 -2.48437 0
M  V30 17986 H 1653.03 -0.888442 -3.31605 0
M  V30 17987 N 1655.47 1.57485 0.0601405 0
M  V30 17988 C 1656.88 1.76433 0.610583 0
M  V30 17989 C 1657.23 0.840353 1.77292 0
M  V30 17990 O 1656.36 0.0273238 2.16383 0
M  V30 17991 C 1656.95 3.19947 1.11441 0
M  V30 17992 C 1655.51 3.402 1.61062 0
M  V30 17993 C 1654.66 2.72089 0.535055 0
M  V30 17994 H 1657.61 1.57829 -0.166062 0
M  V30 17995 H 1657.63 3.24749 1.98288 0
M  V30 17996 H 1657.14 3.87172 0.268233 0
M  V30 17997 H 1655.25 2.78106 2.47967 0
M  V30 17998 H 1655.36 4.48696 1.67954 0
M  V30 17999 H 1653.72 2.34972 0.982855 0
M  V30 18000 H 1654.51 3.41977 -0.301135 0
M  V30 18001 N 1656.95 -0.331789 1.54068 0
M  V30 18002 C 1658.2 -1.06858 1.71539 0
M  V30 18003 C 1658.52 -1.88808 0.487506 0
M  V30 18004 O 1657.79 -1.8945 -0.498539 0
M  V30 18005 H 1656.37 -0.3975 0.632457 0
M  V30 18006 H 1659.03 -0.370216 1.91352 0
M  V30 18007 H 1658.13 -1.73929 2.59143 0
M  V30 18008 N 1658.43 -1.46001 -0.593424 0
M  V30 18009 C 1659.66 -1.54307 -1.3783 0
M  V30 18010 C 1660.07 -0.18048 -1.87935 0
M  V30 18011 O 1659.43 0.820427 -1.63019 0
M  V30 18012 C 1659.48 -2.53911 -2.57316 0
M  V30 18013 O 1659.2 -3.84876 -2.09289 0
M  V30 18014 C 1660.7 -2.72054 -3.50002 0
M  V30 18015 H 1657.92 -0.522149 -0.421428 0
M  V30 18016 H 1660.47 -1.91315 -0.722423 0
M  V30 18017 H 1658.62 -2.19937 -3.18915 0
M  V30 18018 H 1659.03 -4.38996 -2.87025 0
M  V30 18019 H 1660.51 -3.45692 -4.3035 0
M  V30 18020 H 1660.99 -1.78583 -4.01254 0
M  V30 18021 H 1661.59 -3.07082 -2.94246 0
M  V30 18022 N 1659.91 0.83715 -1.33527 0
M  V30 18023 C 1660.84 1.95423 -1.1976 0
M  V30 18024 C 1661.85 1.62295 -0.128147 0
M  V30 18025 O 1663.04 1.74436 -0.378725 0
M  V30 18026 C 1660.14 3.2896 -0.814775 0
M  V30 18027 C 1659.31 3.9021 -1.97623 0
M  V30 18028 C 1658.37 5.02104 -1.5741 0
M  V30 18029 O 1657.4 5.2116 -2.28868 0
M  V30 18030 N 1658.6 5.78511 -0.480081 0
M  V30 18031 H 1661.37 2.0777 -2.15991 0
M  V30 18032 H 1658.93 1.01297 -1.26295 0
M  V30 18033 H 1660.92 4.01243 -0.527823 0
M  V30 18034 H 1659.49 3.12548 0.0569031 0
M  V30 18035 H 1658.71 3.10495 -2.42871 0
M  V30 18036 H 1660 4.27865 -2.75334 0
M  V30 18037 H 1659.39 5.65585 0.114287 0
M  V30 18038 H 1657.95 6.5131 -0.252808 0
M  V30 18039 N 1661.38 1.17024 1.05561 0
M  V30 18040 C 1662.33 0.879696 2.15323 0
M  V30 18041 C 1663.33 -0.154191 1.68697 0
M  V30 18042 O 1664.53 -0.00746608 1.79998 0
M  V30 18043 H 1660.91 0.266916 0.703036 0
M  V30 18044 H 1662.88 1.81264 2.37035 0
M  V30 18045 C 1661.63 0.405371 3.45329 0
M  V30 18046 H 1660.95 1.19238 3.81605 0
M  V30 18047 H 1662.39 0.240923 4.23315 0
M  V30 18048 C 1660.85 -0.876349 3.25303 0
M  V30 18049 O 1661.38 -1.94397 3.51529 0
M  V30 18050 N 1659.59 -0.823031 2.78702 0
M  V30 18051 H 1659.13 0.0459847 2.57559 0
M  V30 18052 H 1659.09 -1.68108 2.65682 0
M  V30 18053 N 1662.86 -1.24221 0.969889 0
M  V30 18054 C 1664.11 -1.91656 0.628559 0
M  V30 18055 C 1664.42 -1.76627 -0.840371 0
M  V30 18056 O 1665.63 -2.38771 -1.29232 0
M  V30 18057 C 1664.09 -3.43515 1.07357 0
M  V30 18058 C 1663.69 -3.67226 2.56611 0
M  V30 18059 C 1665.44 -4.16788 0.805493 0
M  V30 18060 C 1663.35 -5.12667 2.94834 0
M  V30 18061 H 1662.28 -0.717619 0.231384 0
M  V30 18062 H 1664.93 -1.40831 1.17639 0
M  V30 18063 H 1663.31 -3.93388 0.454037 0
M  V30 18064 H 1664.48 -3.27942 3.23713 0
M  V30 18065 H 1662.8 -3.07243 2.81053 0
M  V30 18066 H 1665.39 -5.23945 1.06705 0
M  V30 18067 H 1665.74 -4.15498 -0.258321 0
M  V30 18068 H 1666.27 -3.7287 1.3861 0
M  V30 18069 H 1663.01 -5.1908 4.00295 0
M  V30 18070 H 1662.53 -5.5294 2.32417 0
M  V30 18071 H 1664.21 -5.80916 2.8486 0
M  V30 18072 N 1664.34 -0.740267 -1.39132 0
M  V30 18073 C 1665.57 -0.299605 -2.05225 0
M  V30 18074 C 1665.99 1.05904 -1.55454 0
M  V30 18075 O 1665.35 1.67216 -0.700603 0
M  V30 18076 C 1665.4 -0.316792 -3.59206 0
M  V30 18077 O 1664.5 0.693786 -4.06522 0
M  V30 18078 H 1663.84 -0.135146 -0.650101 0
M  V30 18079 H 1666.37 -1.00766 -1.78065 0
M  V30 18080 H 1666.38 -0.163013 -4.07674 0
M  V30 18081 H 1665.06 -1.30814 -3.94792 0
M  V30 18082 H 1663.63 0.505712 -3.69455 0
M  V30 18083 N 1665.82 1.49844 -0.488302 0
M  V30 18084 C 1666.73 2.32651 0.301746 0
M  V30 18085 C 1667.74 1.43807 0.979573 0
M  V30 18086 O 1668.92 1.76844 0.963758 0
M  V30 18087 C 1665.99 3.18928 1.35962 0
M  V30 18088 C 1665.05 4.23611 0.696575 0
M  V30 18089 C 1664.28 5.05765 1.70404 0
M  V30 18090 O 1664.5 4.89243 2.93253 0
M  V30 18091 O 1663.44 5.88427 1.26637 0
M  V30 18092 H 1667.26 3.01367 -0.375687 0
M  V30 18093 H 1664.85 1.47296 -0.249844 0
M  V30 18094 H 1666.73 3.72413 1.97198 0
M  V30 18095 H 1665.4 2.52921 2.02021 0
M  V30 18096 H 1664.31 3.74073 0.0448118 0
M  V30 18097 H 1665.64 4.92137 0.0786446 0
M  V30 18098 N 1667.3 0.221601 1.56034 0
M  V30 18099 C 1668.55 -0.410442 1.9748 0
M  V30 18100 C 1668.86 -1.60895 1.1123 0
M  V30 18101 O 1670.06 -2.31052 1.42574 0
M  V30 18102 C 1668.52 -0.781624 3.5131 0
M  V30 18103 C 1668.13 0.394077 4.46263 0
M  V30 18104 C 1669.87 -1.37927 4.01468 0
M  V30 18105 C 1667.78 0.000458181 5.914 0
M  V30 18106 H 1666.71 -0.157122 0.737447 0
M  V30 18107 H 1669.36 0.317821 1.80727 0
M  V30 18108 H 1667.74 -1.56731 3.63664 0
M  V30 18109 H 1668.92 1.17161 4.45657 0
M  V30 18110 H 1667.23 0.904959 4.06447 0
M  V30 18111 H 1669.83 -1.68667 5.07401 0
M  V30 18112 H 1670.17 -2.29507 3.47322 0
M  V30 18113 H 1670.7 -0.657015 3.92337 0
M  V30 18114 H 1667.44 0.882743 6.49529 0
M  V30 18115 H 1666.96 -0.741386 5.952 0
M  V30 18116 H 1668.64 -0.42621 6.45595 0
M  V30 18117 N 1668.77 -1.57515 -0.0517878 0
M  V30 18118 C 1669.72 -2.06114 -1.07795 0
M  V30 18119 C 1670.72 -0.97034 -1.38855 0
M  V30 18120 O 1671.92 -1.15536 -1.38027 0
M  V30 18121 H 1668.3 -0.657451 -0.365051 0
M  V30 18122 H 1670.27 -2.9141 -0.642068 0
M  V30 18123 C 1669.02 -2.53728 -2.37734 0
M  V30 18124 H 1668.34 -3.37266 -2.14689 0
M  V30 18125 H 1669.78 -2.91466 -3.07934 0
M  V30 18126 C 1668.24 -1.42868 -3.05107 0
M  V30 18127 O 1668.77 -0.782025 -3.94014 0
M  V30 18128 N 1666.98 -1.16882 -2.66058 0
M  V30 18129 H 1666.52 -1.6965 -1.93847 0
M  V30 18130 H 1666.48 -0.429164 -3.11457 0
M  V30 18131 N 1670.25 0.323614 -1.54242 0
M  V30 18132 C 1671.18 1.40344 -1.86616 0
M  V30 18133 C 1672.16 1.53972 -0.722963 0
M  V30 18134 O 1673.35 1.67852 -0.976692 0
M  V30 18135 C 1670.48 2.77112 -2.09347 0
M  V30 18136 C 1669.43 2.78273 -3.25189 0
M  V30 18137 C 1668.76 4.18116 -3.33291 0
M  V30 18138 C 1670.06 2.42025 -4.6284 0
M  V30 18139 H 1671.75 1.13499 -2.77053 0
M  V30 18140 H 1669.3 0.544553 -1.33306 0
M  V30 18141 H 1671.25 3.52719 -2.3058 0
M  V30 18142 H 1669.98 3.05435 -1.1566 0
M  V30 18143 H 1668.64 2.05121 -3.03844 0
M  V30 18144 H 1668.28 4.4358 -2.37163 0
M  V30 18145 H 1667.98 4.19799 -4.11147 0
M  V30 18146 H 1669.51 4.95536 -3.56758 0
M  V30 18147 H 1670.92 3.07346 -4.83954 0
M  V30 18148 H 1669.32 2.5496 -5.43245 0
M  V30 18149 H 1670.39 1.37175 -4.65092 0
M  V30 18150 N 1671.73 1.46313 0.585673 0
M  V30 18151 C 1672.96 1.55273 1.37496 0
M  V30 18152 C 1673.38 0.193481 1.87102 0
M  V30 18153 O 1672.74 -0.825859 1.61398 0
M  V30 18154 C 1672.79 2.5591 2.54052 0
M  V30 18155 O 1671.89 2.09208 3.55395 0
M  V30 18156 H 1671.23 0.522614 0.409598 0
M  V30 18157 H 1673.76 1.9186 0.710697 0
M  V30 18158 H 1673.77 2.75424 3.01008 0
M  V30 18159 H 1672.45 3.54619 2.17298 0
M  V30 18160 H 1671.02 1.9967 3.14939 0
M  V30 18161 N 1673.21 -0.830057 1.33969 0
M  V30 18162 C 1674.62 -1.40227 1.23261 0
M  V30 18163 C 1674.97 -1.95664 -0.144862 0
M  V30 18164 O 1674.1 -1.89503 -1.04488 0
M  V30 18165 C 1674.69 -2.54913 2.2317 0
M  V30 18166 C 1673.25 -3.08062 2.16274 0
M  V30 18167 C 1672.4 -1.809 2.10168 0
M  V30 18168 H 1675.35 -0.635062 1.4544 0
M  V30 18169 H 1675.37 -3.32801 1.84455 0
M  V30 18170 H 1674.88 -2.14534 3.23414 0
M  V30 18171 H 1672.98 -3.52964 1.19362 0
M  V30 18172 H 1673.1 -3.67637 3.07213 0
M  V30 18173 H 1671.46 -2.01508 1.55778 0
M  V30 18174 H 1672.24 -1.42705 3.12234 0
M  V30 18175 N 1674.69 -1.17582 -1.04939 0
M  V30 18176 C 1675.62 -0.838287 -2.12245 0
M  V30 18177 C 1676.6 0.196015 -1.61414 0
M  V30 18178 O 1677.78 0.0769706 -1.88343 0
M  V30 18179 C 1674.91 -0.250934 -3.37769 0
M  V30 18180 C 1673.96 -1.26103 -4.07431 0
M  V30 18181 S 1674.79 -2.81338 -4.55641 0
M  V30 18182 C 1675.94 -2.2409 -5.8441 0
M  V30 18183 H 1676.18 -1.74709 -2.40549 0
M  V30 18184 H 1673.71 -1.00075 -1.17577 0
M  V30 18185 H 1675.67 0.0814566 -4.10419 0
M  V30 18186 H 1674.33 0.635851 -3.07597 0
M  V30 18187 H 1673.52 -0.798761 -4.9763 0
M  V30 18188 H 1673.12 -1.5392 -3.40859 0
M  V30 18189 H 1675.42 -1.61804 -6.57895 0
M  V30 18190 H 1676.36 -3.12554 -6.35386 0
M  V30 18191 H 1676.77 -1.67444 -5.39094 0
M  V30 18192 N 1676.17 1.23705 -0.976463 0
M  V30 18193 C 1677.08 2.28728 -0.521605 0
M  V30 18194 C 1678.09 1.68813 0.421691 0
M  V30 18195 O 1679.27 1.99263 0.292579 0
M  V30 18196 C 1676.33 3.4627 0.172545 0
M  V30 18197 C 1675.39 4.21557 -0.811664 0
M  V30 18198 C 1674.63 5.33488 -0.150546 0
M  V30 18199 O 1674.85 5.60478 1.05926 0
M  V30 18200 O 1673.78 5.95909 -0.847132 0
M  V30 18201 H 1677.61 2.6977 -1.39491 0
M  V30 18202 H 1675.19 1.29562 -0.743909 0
M  V30 18203 H 1677.08 4.17634 0.562103 0
M  V30 18204 H 1675.75 3.07187 1.02067 0
M  V30 18205 H 1674.66 3.52533 -1.25185 0
M  V30 18206 H 1675.99 4.6448 -1.62848 0
M  V30 18207 N 1677.64 0.747635 1.38738 0
M  V30 18208 C 1678.89 0.297962 1.99487 0
M  V30 18209 C 1679.21 -1.1249 1.60016 0
M  V30 18210 O 1680.41 -1.67474 2.13693 0
M  V30 18211 C 1678.87 0.48178 3.56661 0
M  V30 18212 C 1678.48 1.91335 4.05086 0
M  V30 18213 C 1680.22 0.0945202 4.24395 0
M  V30 18214 C 1678.13 2.04604 5.54879 0
M  V30 18215 H 1677.06 0.107655 0.746275 0
M  V30 18216 H 1679.71 0.923325 1.58578 0
M  V30 18217 H 1678.09 -0.212676 3.95428 0
M  V30 18218 H 1679.26 2.64079 3.77623 0
M  V30 18219 H 1677.58 2.25497 3.50057 0
M  V30 18220 H 1680.18 0.172508 5.34422 0
M  V30 18221 H 1680.52 -0.952037 4.05268 0
M  V30 18222 H 1681.05 0.740606 3.90845 0
M  V30 18223 H 1677.79 3.07493 5.78903 0
M  V30 18224 H 1677.31 1.36313 5.84105 0
M  V30 18225 H 1678.99 1.83317 6.20487 0
M  V30 18226 N 1679.12 -1.49583 0.496242 0
M  V30 18227 C 1680.35 -2.07342 -0.0490986 0
M  V30 18228 C 1680.77 -1.35474 -1.30493 0
M  V30 18229 O 1680.13 -0.410005 -1.76603 0
M  V30 18230 C 1680.18 -3.59427 -0.290601 0
M  V30 18231 O 1679.28 -3.89111 -1.36626 0
M  V30 18232 H 1678.62 -0.663562 0.0241141 0
M  V30 18233 H 1681.15 -1.92452 0.6945 0
M  V30 18234 H 1681.16 -4.04627 -0.523549 0
M  V30 18235 H 1679.84 -4.11147 0.626959 0
M  V30 18236 H 1678.41 -3.55726 -1.11864 0
M  V30 18237 N 1680.6 -0.229873 -1.55915 0
M  V30 18238 C 1681.83 0.404189 -2.02914 0
M  V30 18239 C 1682.24 1.52758 -1.10952 0
M  V30 18240 O 1681.6 1.82101 -0.120685 0
M  V30 18241 C 1681.65 0.928016 -3.49385 0
M  V30 18242 O 1681.37 -0.150592 -4.37841 0
M  V30 18243 C 1682.87 1.63448 -4.12067 0
M  V30 18244 H 1680.09 0.0980294 -0.663801 0
M  V30 18245 H 1682.64 -0.34876 -2.01504 0
M  V30 18246 H 1680.79 1.63121 -3.51384 0
M  V30 18247 H 1681.21 0.244429 -5.2393 0
M  V30 18248 H 1682.68 1.95292 -5.16299 0
M  V30 18249 H 1683.16 2.55055 -3.57553 0
M  V30 18250 H 1683.76 0.976292 -4.13943 0
M  V30 18251 N 1682.08 1.5754 0.0434337 0
M  V30 18252 C 1683.32 1.88608 0.737108 0
M  V30 18253 C 1683.65 0.825342 1.7612 0
M  V30 18254 O 1682.91 -0.175437 1.94912 0
M  V30 18255 C 1683.21 3.26402 1.45591 0
M  V30 18256 C 1682.87 4.47294 0.56915 0
M  V30 18257 C 1681.53 4.80102 0.324866 0
M  V30 18258 C 1683.89 5.21181 -0.0439735 0
M  V30 18259 C 1681.21 5.84195 -0.541556 0
M  V30 18260 C 1683.57 6.26194 -0.898013 0
M  V30 18261 C 1682.23 6.57486 -1.1519 0
M  V30 18262 H 1681.5 0.690166 0.269727 0
M  V30 18263 H 1684.15 1.915 -0.00275199 0
M  V30 18264 H 1682.45 3.19431 2.26872 0
M  V30 18265 H 1684.15 3.47684 1.99793 0
M  V30 18266 H 1680.74 4.21632 0.769694 0
M  V30 18267 H 1684.92 4.96125 0.131816 0
M  V30 18268 H 1680.18 6.06823 -0.746711 0
M  V30 18269 H 1684.35 6.82596 -1.37969 0
M  V30 18270 H 1681.98 7.37969 -1.82501 0
M  V30 18271 N 1683.56 -0.31543 1.54411 0
M  V30 18272 C 1684.97 -0.660254 1.45302 0
M  V30 18273 C 1685.17 -1.91316 0.632493 0
M  V30 18274 O 1684.23 -2.52142 0.134493 0
M  V30 18275 C 1685.54 -0.826685 2.89113 0
M  V30 18276 C 1687.09 -0.923503 2.99066 0
M  V30 18277 C 1687.56 -1.12204 4.44043 0
M  V30 18278 N 1689.05 -1.18859 4.47691 0
M  V30 18279 C 1689.79 -1.36024 5.57032 0
M  V30 18280 N 1689.29 -1.5018 6.76327 0
M  V30 18281 N 1691.08 -1.38797 5.44694 0
M  V30 18282 H 1683.23 0.507961 2.06237 0
M  V30 18283 H 1685.49 0.165515 0.933439 0
M  V30 18284 H 1685.2 0.0228371 3.51693 0
M  V30 18285 H 1685.07 -1.72007 3.35698 0
M  V30 18286 H 1687.46 -1.76352 2.36609 0
M  V30 18287 H 1687.54 -0.00641189 2.55799 0
M  V30 18288 H 1687.18 -0.286844 5.07089 0
M  V30 18289 H 1687.11 -2.05313 4.84927 0
M  V30 18290 H 1689.61 -1.0933 3.61739 0
M  V30 18291 H 1689.92 -1.62992 7.55416 0
M  V30 18292 H 1688.26 -1.47262 6.79219 0
M  V30 18293 H 1691.45 -1.27339 4.50447 0
M  V30 18294 H 1691.63 -1.51832 6.29961 0
M  V30 18295 N 1685.03 -1.46622 -0.577906 0
M  V30 18296 C 1686.28 -1.51446 -1.33218 0
M  V30 18297 C 1686.6 -0.17258 -1.94837 0
M  V30 18298 O 1687.8 -0.0986578 -2.71321 0
M  V30 18299 C 1686.26 -2.66876 -2.41465 0
M  V30 18300 C 1685.87 -4.07506 -1.86127 0
M  V30 18301 C 1687.61 -2.80975 -3.18203 0
M  V30 18302 C 1685.52 -5.14268 -2.92031 0
M  V30 18303 H 1684.45 -0.563643 -0.500822 0
M  V30 18304 H 1687.1 -1.72845 -0.616186 0
M  V30 18305 H 1685.48 -2.38816 -3.15884 0
M  V30 18306 H 1686.65 -4.45378 -1.18218 0
M  V30 18307 H 1684.97 -3.98115 -1.2204 0
M  V30 18308 H 1687.57 -3.57906 -3.97249 0
M  V30 18309 H 1687.91 -1.88665 -3.71095 0
M  V30 18310 H 1688.44 -3.08705 -2.50891 0
M  V30 18311 H 1685.18 -6.08386 -2.44021 0
M  V30 18312 H 1684.7 -4.80936 -3.58414 0
M  V30 18313 H 1686.38 -5.40321 -3.55896 0
M  V30 18314 N 1686.51 0.822941 -1.34408 0
M  V30 18315 C 1687.44 1.94142 -1.21826 0
M  V30 18316 C 1688.46 1.6215 -0.145353 0
M  V30 18317 O 1689.65 1.74025 -0.397205 0
M  V30 18318 C 1686.75 3.28077 -0.849619 0
M  V30 18319 C 1685.92 3.88092 -2.0175 0
M  V30 18320 C 1684.98 5.00406 -1.62726 0
M  V30 18321 O 1684 5.18703 -2.34383 0
M  V30 18322 N 1685.21 5.7797 -0.541413 0
M  V30 18323 H 1687.97 2.05467 -2.18182 0
M  V30 18324 H 1685.53 0.999521 -1.27362 0
M  V30 18325 H 1687.52 4.00661 -0.57035 0
M  V30 18326 H 1686.09 3.12591 0.0237499 0
M  V30 18327 H 1685.31 3.07902 -2.46151 0
M  V30 18328 H 1686.6 4.24921 -2.79856 0
M  V30 18329 H 1686 5.65674 0.0542929 0
M  V30 18330 H 1684.56 6.51005 -0.321874 0
M  V30 18331 N 1687.99 1.18137 1.04314 0
M  V30 18332 C 1688.92 0.929593 2.14198 0
M  V30 18333 C 1689.9 -0.131766 1.69589 0
M  V30 18334 O 1691.09 0.0203104 1.94189 0
M  V30 18335 C 1688.22 0.451799 3.44349 0
M  V30 18336 C 1687.17 1.45336 4.02569 0
M  V30 18337 C 1686.5 0.833176 5.28169 0
M  V30 18338 C 1687.8 2.8293 4.39031 0
M  V30 18339 H 1689.49 1.84856 2.35518 0
M  V30 18340 H 1687.04 0.890217 1.13186 0
M  V30 18341 H 1688.99 0.26303 4.20578 0
M  V30 18342 H 1687.71 -0.502725 3.22708 0
M  V30 18343 H 1686.37 1.62902 3.28418 0
M  V30 18344 H 1686.02 -0.128459 5.02836 0
M  V30 18345 H 1685.72 1.50185 5.68083 0
M  V30 18346 H 1687.24 0.654881 6.07078 0
M  V30 18347 H 1688.66 2.6903 5.06257 0
M  V30 18348 H 1687.06 3.46458 4.89987 0
M  V30 18349 H 1688.13 3.3667 3.48972 0
M  V30 18350 N 1689.47 -1.23186 0.98301 0
M  V30 18351 C 1690.88 -1.43814 0.69207 0
M  V30 18352 C 1691.08 -1.87387 -0.740823 0
M  V30 18353 O 1690.14 -2.02154 -1.51295 0
M  V30 18354 C 1691.45 -2.48769 1.68922 0
M  V30 18355 C 1693 -2.62579 1.70356 0
M  V30 18356 C 1693.48 -3.70746 2.68908 0
M  V30 18357 N 1694.97 -3.78192 2.67442 0
M  V30 18358 C 1695.7 -4.61453 3.40366 0
M  V30 18359 N 1695.2 -5.48784 4.22857 0
M  V30 18360 N 1696.99 -4.55673 3.29118 0
M  V30 18361 H 1689.14 -0.932046 1.90858 0
M  V30 18362 H 1691.41 -0.471274 0.82256 0
M  V30 18363 H 1691.11 -2.23675 2.71408 0
M  V30 18364 H 1690.99 -3.47201 1.47415 0
M  V30 18365 H 1693.37 -2.87022 0.685728 0
M  V30 18366 H 1693.45 -1.64454 1.9593 0
M  V30 18367 H 1693.1 -3.47051 3.70834 0
M  V30 18368 H 1693.03 -4.68418 2.40607 0
M  V30 18369 H 1695.52 -3.15785 2.07577 0
M  V30 18370 H 1695.83 -6.09312 4.75351 0
M  V30 18371 H 1694.18 -5.48398 4.26948 0
M  V30 18372 H 1697.37 -3.86468 2.64122 0
M  V30 18373 H 1697.54 -5.20332 3.8621 0
M  V30 18374 O 1690.99 -0.892221 -1.34617 0
M  V30 18375 H 1691.68 -0.500419 -1.87124 0
M  V30 END ATOM
M  V30 BEGIN BOND
M  V30 END BOND
M  V30 END CTAB
M  END
$$$$
