drugbank_target|Q16798 NADP-dependent malic enzyme, mitochondrial (DB00157; DB03680)
 OpenBabel12092119293D

  0  0  0     0  0            999 V3000
M  V30 BEGIN CTAB
M  V30 COUNTS 9473 9582 0 0 0
M  V30 BEGIN ATOM
M  V30 1 H -0.908 1.98254 -0.117106 0
M  V30 2 N 0 1.576 0 0
M  V30 3 C 0.933 2.03868 1.02534 0
M  V30 4 C 1.911 0.928543 1.3348 0
M  V30 5 O 3.095 1.19667 1.45644 0
M  V30 6 C 0.222 2.43627 2.35294 0
M  V30 7 C -0.732 3.65373 2.2001 0
M  V30 8 S 0.101 5.13292 1.52614 0
M  V30 9 C 1.257 5.56322 2.86805 0
M  V30 10 H 1.49 2.90518 0.631377 0
M  V30 11 H -0.977 1.52953 0.210867 0
M  V30 12 H 0.981 2.67203 3.11629 0
M  V30 13 H -0.358 1.57376 2.7183 0
M  V30 14 H -1.165 3.90944 3.18086 0
M  V30 15 H -1.563 3.418 1.51819 0
M  V30 16 H 0.729 5.58782 3.83104 0
M  V30 17 H 1.672 6.56266 2.65933 0
M  V30 18 H 2.08 4.83886 2.90714 0
M  V30 19 N 1.4781 -0.272755 1.55222 0
M  V30 20 C 2.7261 -1.00234 1.75492 0
M  V30 21 C 3.0471 -1.8681 0.5592 0
M  V30 22 O 2.3171 -1.91215 -0.425882 0
M  V30 23 H 0.8971 -0.373076 0.647166 0
M  V30 24 H 3.5591 -0.296926 1.92625 0
M  V30 25 H 2.6551 -1.63913 2.65592 0
M  V30 26 N 2.9562 -1.48159 -0.537278 0
M  V30 27 C 3.9192 -1.61665 -1.62472 0
M  V30 28 C 4.9192 -0.490395 -1.5314 0
M  V30 29 O 6.1092 -0.755998 -1.5694 0
M  V30 30 C 3.2412 -1.57997 -3.02076 0
M  V30 31 H 4.4342 -2.58621 -1.51839 0
M  V30 32 H 1.9872 -1.36647 -0.758771 0
M  V30 33 H 2.7222 -0.624913 -3.18222 0
M  V30 34 H 2.5072 -2.39755 -3.10258 0
M  V30 35 H 3.9972 -1.70627 -3.81151 0
M  V30 36 N 4.4343 0.785586 -1.36625 0
M  V30 37 C 5.3973 1.87999 -1.31107 0
M  V30 38 C 6.3973 1.59316 -0.217959 0
M  V30 39 O 7.5873 1.67656 -0.472977 0
M  V30 40 C 4.7193 3.24861 -1.03334 0
M  V30 41 H 5.9123 1.94307 -2.2844 0
M  V30 42 H 3.4653 0.983813 -1.21453 0
M  V30 43 H 4.2003 3.24235 -0.0647432 0
M  V30 44 H 3.9853 3.4707 -1.82441 0
M  V30 45 H 5.4753 4.04929 -1.02088 0
M  V30 46 N 5.9124 1.20967 1.01018 0
M  V30 47 C 6.8424 0.988272 2.11555 0
M  V30 48 C 7.8234 -0.0849778 1.69888 0
M  V30 49 O 9.0084 0.0738202 1.9406 0
M  V30 50 C 6.1384 0.546528 3.42973 0
M  V30 51 C 5.0924 1.56375 3.9841 0
M  V30 52 C 4.4184 0.97842 5.25672 0
M  V30 53 C 5.7184 2.94922 4.31066 0
M  V30 54 H 7.4124 1.91276 2.30334 0
M  V30 55 H 4.9584 0.921073 1.1069 0
M  V30 56 H 6.9114 0.378839 4.19694 0
M  V30 57 H 5.6354 -0.413598 3.23971 0
M  V30 58 H 4.2944 1.71891 3.23804 0
M  V30 59 H 3.9424 0.0101688 5.02999 0
M  V30 60 H 3.6424 1.65784 5.63728 0
M  V30 61 H 5.1664 0.821939 6.05043 0
M  V30 62 H 6.5804 2.8288 4.9865 0
M  V30 63 H 4.9774 3.5983 4.80253 0
M  V30 64 H 6.0474 3.4616 3.39561 0
M  V30 65 N 7.3905 -1.2043 1.01659 0
M  V30 66 C 8.6385 -1.89423 0.704522 0
M  V30 67 C 8.9595 -1.79231 -0.768197 0
M  V30 68 O 8.2295 -1.1947 -1.55254 0
M  V30 69 H 6.8095 -0.701178 0.257602 0
M  V30 70 H 9.4715 -1.4626 1.28818 0
M  V30 71 H 8.5675 -2.96052 0.987916 0
M  V30 72 N 8.8686 -0.792821 -1.36206 0
M  V30 73 C 10.0966 -0.378825 -2.03402 0
M  V30 74 C 10.5116 1.00586 -1.59774 0
M  V30 75 O 9.8686 1.64574 -0.788764 0
M  V30 76 C 9.9196 -0.43683 -3.58851 0
M  V30 77 O 9.6406 -1.76691 -4.00889 0
M  V30 78 C 11.1416 -0.0138943 -4.43298 0
M  V30 79 H 8.3616 -0.155673 -0.652692 0
M  V30 80 H 10.9056 -1.07261 -1.74113 0
M  V30 81 H 9.0606 0.208575 -3.86838 0
M  V30 82 H 9.4746 -1.72011 -4.95492 0
M  V30 83 H 10.9486 -0.105615 -5.51899 0
M  V30 84 H 11.4256 1.03915 -4.2673 0
M  V30 85 H 12.0316 -0.63192 -4.20579 0
M  V30 86 N 10.3467 1.47872 -0.545128 0
M  V30 87 C 11.5947 2.02093 -0.016553 0
M  V30 88 C 11.9157 1.42305 1.3332 0
M  V30 89 O 11.1857 0.593853 1.86682 0
M  V30 90 H 9.7657 0.746993 -0.00313038 0
M  V30 91 H 12.4277 1.81414 -0.712397 0
M  V30 92 H 11.5237 3.11996 0.0805422 0
M  V30 93 N 11.8248 0.280983 1.55075 0
M  V30 94 C 13.0528 -0.337293 2.04132 0
M  V30 95 C 13.4678 -1.4903 1.15912 0
M  V30 96 O 12.8248 -1.81606 0.180459 0
M  V30 97 C 12.8758 -0.812706 3.52246 0
M  V30 98 O 12.5968 0.294387 4.3711 0
M  V30 99 C 14.0978 -1.4982 4.17216 0
M  V30 100 H 11.3178 -0.0761638 0.666663 0
M  V30 101 H 13.8618 0.414787 2.00249 0
M  V30 102 H 12.0168 -1.51486 3.56554 0
M  V30 103 H 12.4308 -0.0721325 5.2445 0
M  V30 104 H 13.9048 -1.7822 5.22438 0
M  V30 105 H 14.3818 -2.43168 3.65741 0
M  V30 106 H 14.9878 -0.839742 4.16927 0
M  V30 107 N 13.3029 -1.57598 0.00835791 0
M  V30 108 C 14.7189 -1.55764 -0.347822 0
M  V30 109 C 14.9189 -1.01186 -1.74252 0
M  V30 110 O 13.9749 -0.649371 -2.44007 0
M  V30 111 C 15.2879 -2.99927 -0.215407 0
M  V30 112 C 16.8359 -3.11656 -0.289725 0
M  V30 113 C 17.3109 -4.57621 -0.18634 0
M  V30 114 N 18.8019 -4.62557 -0.243978 0
M  V30 115 C 19.5369 -5.73094 -0.18745 0
M  V30 116 N 19.0329 -6.92753 -0.0810331 0
M  V30 117 N 20.8259 -5.61588 -0.239925 0
M  V30 118 H 12.9769 -1.91411 0.92062 0
M  V30 119 H 15.2399 -0.879562 0.353659 0
M  V30 120 H 14.9459 -3.43729 0.744512 0
M  V30 121 H 14.8199 -3.63865 -0.994097 0
M  V30 122 H 17.2069 -2.67779 -1.24009 0
M  V30 123 H 17.2879 -2.5048 0.51898 0
M  V30 124 H 16.9319 -5.02174 0.760519 0
M  V30 125 H 16.8619 -5.16752 -1.01364 0
M  V30 126 H 19.3529 -3.76481 -0.327217 0
M  V30 127 H 19.6659 -7.72787 -0.0440241 0
M  V30 128 H 18.0109 -6.94984 -0.0465419 0
M  V30 129 H 21.2019 -4.66996 -0.321317 0
M  V30 130 H 21.3749 -6.47714 -0.192407 0
M  V30 131 N 14.781 0.264519 -1.55364 0
M  V30 132 C 15.711 1.33121 -1.91836 0
M  V30 133 C 16.692 1.51101 -0.781192 0
M  V30 134 O 17.877 1.64003 -1.04003 0
M  V30 135 C 15.007 2.68921 -2.19769 0
M  V30 136 C 13.961 2.65661 -3.35571 0
M  V30 137 C 13.287 4.05093 -3.49004 0
M  V30 138 C 14.587 2.24187 -4.71739 0
M  V30 139 H 16.281 1.02844 -2.81182 0
M  V30 140 H 13.827 0.493286 -1.35287 0
M  V30 141 H 15.78 3.43663 -2.43872 0
M  V30 142 H 14.504 3.00799 -1.27231 0
M  V30 143 H 13.163 1.93377 -3.1145 0
M  V30 144 H 12.811 4.34206 -2.53917 0
M  V30 145 H 12.511 4.03804 -4.26868 0
M  V30 146 H 14.035 4.81561 -3.75408 0
M  V30 147 H 15.449 2.88654 -4.9533 0
M  V30 148 H 13.846 2.34044 -5.52579 0
M  V30 149 H 14.916 1.19327 -4.69988 0
M  V30 150 N 16.2591 1.48442 0.529413 0
M  V30 151 C 17.2221 1.62524 1.61612 0
M  V30 152 C 18.2221 0.498509 1.52877 0
M  V30 153 O 19.4121 0.76431 1.56537 0
M  V30 154 C 16.5441 1.59597 3.01233 0
M  V30 155 H 17.7371 2.59423 1.50465 0
M  V30 156 H 15.2901 1.37047 0.751514 0
M  V30 157 H 16.0251 0.641781 3.17886 0
M  V30 158 H 15.8101 2.41397 3.08982 0
M  V30 159 H 17.3001 1.72646 3.80241 0
M  V30 160 N 17.7372 -0.778329 1.37039 0
M  V30 161 C 19.1482 -1.35421 1.28523 0
M  V30 162 C 19.4992 -1.96075 -0.0700901 0
M  V30 163 O 18.6242 -1.93352 -0.971801 0
M  V30 164 C 19.2192 -2.46211 2.32735 0
M  V30 165 C 17.7782 -2.99585 2.27873 0
M  V30 166 C 16.9252 -1.72748 2.16918 0
M  V30 167 H 19.8762 -0.5791 1.47757 0
M  V30 168 H 19.8972 -3.2552 1.9702 0
M  V30 169 H 19.4092 -2.02036 3.31365 0
M  V30 170 H 17.5102 -3.48152 1.32745 0
M  V30 171 H 17.6232 -3.55646 3.21018 0
M  V30 172 H 15.9872 -1.95416 1.63354 0
M  V30 173 H 16.7702 -1.30686 3.17452 0
M  V30 174 N 19.2153 -1.21501 -1.00376 0
M  V30 175 C 20.4613 -1.04457 -1.74529 0
M  V30 176 C 20.8163 0.417386 -1.87818 0
M  V30 177 O 20.1093 1.30556 -1.40234 0
M  V30 178 C 20.3033 -1.67673 -3.15627 0
M  V30 179 C 20.1323 -3.19865 -3.16096 0
M  V30 180 C 18.9023 -3.88915 -3.22604 0
M  V30 181 C 21.1003 -4.16936 -3.01112 0
M  V30 182 N 19.0823 -5.28284 -3.12712 0
M  V30 183 C 20.4533 -5.43066 -2.99131 0
M  V30 184 C 22.5083 -4.07968 -2.85423 0
M  V30 185 C 21.2113 -6.6126 -2.83068 0
M  V30 186 C 23.2373 -5.258 -2.70718 0
M  V30 187 C 22.5993 -6.50842 -2.69414 0
M  V30 188 H 18.6983 -0.436584 -0.648782 0
M  V30 189 H 21.2823 -1.53875 -1.19293 0
M  V30 190 H 19.4533 -1.20822 -3.6913 0
M  V30 191 H 21.1853 -1.43824 -3.78281 0
M  V30 192 H 17.9403 -3.39847 -3.2985 0
M  V30 193 H 18.3643 -6.01284 -3.11105 0
M  V30 194 H 23.0063 -3.1209 -2.85236 0
M  V30 195 H 20.7243 -7.57298 -2.82002 0
M  V30 196 H 24.3103 -5.20683 -2.59577 0
M  V30 197 H 23.1903 -7.40485 -2.5817 0
M  V30 198 N 20.6934 1.19889 -1.02296 0
M  V30 199 C 22.1044 1.71124 -0.746568 0
M  V30 200 C 22.4554 1.81939 0.734335 0
M  V30 201 O 21.5804 1.48639 1.57275 0
M  V30 202 C 22.1754 3.10804 -1.34857 0
M  V30 203 C 20.7344 3.59323 -1.1209 0
M  V30 204 C 19.8814 2.3635 -1.45031 0
M  V30 205 H 22.8324 1.04813 -1.19163 0
M  V30 206 H 22.8534 3.73186 -0.742437 0
M  V30 207 H 22.3654 3.029 -2.42638 0
M  V30 208 H 20.4664 3.7255 -0.0610337 0
M  V30 209 H 20.5794 4.4378 -1.80544 0
M  V30 210 H 18.9434 2.39399 -0.869487 0
M  V30 211 H 19.7264 2.31081 -2.53883 0
M  V30 212 N 22.1715 0.800033 1.35784 0
M  V30 213 C 23.4195 0.376597 1.9856 0
M  V30 214 C 23.7405 -1.05812 1.63795 0
M  V30 215 O 23.0105 -1.73103 0.917171 0
M  V30 216 H 21.5905 0.136261 0.734467 0
M  V30 217 H 24.2525 1.02442 1.65806 0
M  V30 218 H 23.3485 0.477002 3.08433 0
M  V30 219 N 23.6496 -1.47581 0.552962 0
M  V30 220 C 25.0656 -1.5818 0.212424 0
M  V30 221 C 25.2656 -1.55213 -1.28496 0
M  V30 222 O 24.3216 -1.45329 -2.06484 0
M  V30 223 C 25.6346 -2.88865 0.835318 0
M  V30 224 C 27.1826 -3.0244 0.806156 0
M  V30 225 C 27.6576 -4.35819 1.40804 0
M  V30 226 N 29.1486 -4.42444 1.37103 0
M  V30 227 C 29.8836 -5.44202 1.80641 0
M  V30 228 N 29.3796 -6.52795 2.32015 0
M  V30 229 N 31.1726 -5.35222 1.71738 0
M  V30 230 H 23.3236 -1.47753 1.52587 0
M  V30 231 H 25.5866 -0.702941 0.636064 0
M  V30 232 H 25.2926 -2.9676 1.88749 0
M  V30 233 H 25.1666 -3.7579 0.325848 0
M  V30 234 H 27.5536 -2.94144 -0.237317 0
M  V30 235 H 27.6346 -2.17068 1.35334 0
M  V30 236 H 27.2786 -4.44871 2.45056 0
M  V30 237 H 27.2086 -5.19916 0.836338 0
M  V30 238 H 29.6996 -3.6456 0.995202 0
M  V30 239 H 30.0126 -7.26609 2.63171 0
M  V30 240 H 28.3576 -6.53696 2.36023 0
M  V30 241 H 31.5486 -4.49284 1.31382 0
M  V30 242 H 31.7216 -6.14389 2.05987 0
M  V30 243 N 25.1277 -0.289203 -1.54924 0
M  V30 244 C 26.0907 0.579144 -2.21762 0
M  V30 245 C 27.0907 1.07047 -1.1999 0
M  V30 246 O 28.2807 0.968384 -1.44803 0
M  V30 247 C 25.4127 1.80055 -2.8947 0
M  V30 248 H 26.6057 -0.00464908 -2.999 0
M  V30 249 H 24.1587 -0.0399306 -1.56249 0
M  V30 250 H 24.8937 2.42449 -2.15381 0
M  V30 251 H 24.6787 1.45602 -3.64064 0
M  V30 252 H 26.1687 2.41773 -3.40493 0
M  V30 253 N 26.6058 1.57591 -0.0167156 0
M  V30 254 C 27.8458 1.93145 0.668902 0
M  V30 255 C 28.2098 0.892406 1.7 0
M  V30 256 O 29.4108 1.13373 2.43721 0
M  V30 257 C 27.6818 3.33678 1.28039 0
M  V30 258 S 29.2408 3.91142 1.9888 0
M  V30 259 H 26.0588 0.67593 0.220545 0
M  V30 260 H 28.6608 1.95347 -0.0774105 0
M  V30 261 H 27.3648 4.07126 0.517339 0
M  V30 262 H 26.8958 3.3489 2.06427 0
M  V30 263 H 28.9108 3.73571 3.26587 0
M  V30 264 N 28.0839 -0.256276 1.55502 0
M  V30 265 C 29.3319 -0.983672 1.76545 0
M  V30 266 C 29.6529 -1.86206 0.578982 0
M  V30 267 O 28.9229 -1.91656 -0.405577 0
M  V30 268 H 27.5029 -0.366191 0.651086 0
M  V30 269 H 30.1649 -0.276479 1.92929 0
M  V30 270 H 29.2609 -1.61087 2.67315 0
M  V30 271 N 29.562 -1.4872 -0.521534 0
M  V30 272 C 30.525 -1.63379 -1.60748 0
M  V30 273 C 31.525 -0.50661 -1.52611 0
M  V30 274 O 32.715 -0.772601 -1.5613 0
M  V30 275 C 29.847 -1.61192 -3.00383 0
M  V30 276 H 31.04 -2.60217 -1.49087 0
M  V30 277 H 28.593 -1.37444 -0.744235 0
M  V30 278 H 29.328 -0.65863 -3.17541 0
M  V30 279 H 29.113 -2.43032 -3.07698 0
M  V30 280 H 30.603 -1.7466 -3.7932 0
M  V30 281 N 31.0401 0.771051 -1.3745 0
M  V30 282 C 31.9701 1.89827 -1.3597 0
M  V30 283 C 32.9511 1.68562 -0.228216 0
M  V30 284 O 34.1361 1.8941 -0.428675 0
M  V30 285 C 31.2661 3.2712 -1.16662 0
M  V30 286 C 30.2201 3.6295 -2.2683 0
M  V30 287 C 29.5461 4.98791 -1.92644 0
M  V30 288 C 30.8461 3.69627 -3.69017 0
M  V30 289 H 32.5401 1.91323 -2.30295 0
M  V30 290 H 30.0861 0.919082 -1.10855 0
M  V30 291 H 32.0391 4.05615 -1.14256 0
M  V30 292 H 30.7631 3.26059 -0.187926 0
M  V30 293 H 29.4221 2.86763 -2.28392 0
M  V30 294 H 29.0701 4.94271 -0.933021 0
M  V30 295 H 28.7701 5.23733 -2.66416 0
M  V30 296 H 30.2941 5.79685 -1.91826 0
M  V30 297 H 31.7081 4.38273 -3.69581 0
M  V30 298 H 30.1051 4.06067 -4.41848 0
M  V30 299 H 31.1751 2.70273 -4.02592 0
M  V30 300 N 32.5182 1.22032 0.997298 0
M  V30 301 C 33.9292 1.0397 1.55071 0
M  V30 302 C 34.2802 -0.398192 1.92117 0
M  V30 303 O 33.4052 -1.28254 1.74298 0
M  V30 304 C 34.0002 1.88109 2.81781 0
M  V30 305 C 32.5592 1.74357 3.33581 0
M  V30 306 C 31.7062 1.84846 2.06706 0
M  V30 307 H 34.6572 1.35941 0.818883 0
M  V30 308 H 34.6782 1.39589 3.53971 0
M  V30 309 H 34.1902 2.92754 2.54787 0
M  V30 310 H 32.2912 0.72427 3.65493 0
M  V30 311 H 32.4042 2.56772 4.04481 0
M  V30 312 H 30.7682 1.28238 2.20062 0
M  V30 313 H 31.5512 2.91014 1.82114 0
M  V30 314 N 33.9963 -1.19345 1.0293 0
M  V30 315 C 35.4123 -1.41069 0.746446 0
M  V30 316 C 35.6123 -1.90078 -0.668776 0
M  V30 317 O 34.6683 -2.0778 -1.4347 0
M  V30 318 C 35.9813 -2.42141 1.78292 0
M  V30 319 C 37.5293 -2.55887 1.80252 0
M  V30 320 C 38.0043 -3.60214 2.8286 0
M  V30 321 N 39.4953 -3.67711 2.81679 0
M  V30 322 C 40.2303 -4.48128 3.57727 0
M  V30 323 N 39.7263 -5.32248 4.43491 0
M  V30 324 N 41.5193 -4.42782 3.46267 0
M  V30 325 H 33.6703 -0.858536 1.94275 0
M  V30 326 H 35.9333 -0.439541 0.839945 0
M  V30 327 H 35.6393 -2.13155 2.79746 0
M  V30 328 H 35.5133 -3.41323 1.60557 0
M  V30 329 H 37.9003 -2.84196 0.794757 0
M  V30 330 H 37.9813 -1.56858 2.02062 0
M  V30 331 H 37.6253 -3.32647 3.83807 0
M  V30 332 H 37.5553 -4.58895 2.58307 0
M  V30 333 H 40.0463 -3.07634 2.19476 0
M  V30 334 H 40.3593 -5.90729 4.98256 0
M  V30 335 H 38.7043 -5.31707 4.47564 0
M  V30 336 H 41.8953 -3.76107 2.78677 0
M  V30 337 H 42.0683 -5.05215 4.05785 0
M  V30 338 N 35.4744 -0.807222 -1.35358 0
M  V30 339 C 36.7204 -0.397594 -1.99476 0
M  V30 340 C 37.0754 1.02405 -1.62883 0
M  V30 341 O 36.3684 1.70077 -0.882282 0
M  V30 342 C 36.5624 -0.519036 -3.53611 0
M  V30 343 C 36.3914 -1.95094 -4.05177 0
M  V30 344 C 35.1614 -2.57945 -4.34503 0
M  V30 345 C 37.3594 -2.91558 -4.23673 0
M  V30 346 N 35.3414 -3.92539 -4.72003 0
M  V30 347 C 36.7124 -4.11024 -4.64176 0
M  V30 348 C 38.7674 -2.88381 -4.05883 0
M  V30 349 C 37.4704 -5.27745 -4.88751 0
M  V30 350 C 39.4964 -4.04306 -4.31614 0
M  V30 351 C 38.8584 -5.22519 -4.72391 0
M  V30 352 H 34.9574 -0.193274 -0.75774 0
M  V30 353 H 37.5414 -1.0486 -1.6405 0
M  V30 354 H 35.7124 0.101979 -3.88266 0
M  V30 355 H 37.4444 -0.0839321 -4.04613 0
M  V30 356 H 34.1994 -2.09295 -4.24844 0
M  V30 357 H 34.6234 -4.61836 -4.95011 0
M  V30 358 H 39.2654 -1.98137 -3.73499 0
M  V30 359 H 36.9834 -6.1856 -5.20008 0
M  V30 360 H 40.5694 -4.03229 -4.19402 0
M  V30 361 H 39.4494 -6.1073 -4.91913 0
M  V30 362 N 36.9525 1.47285 -0.560781 0
M  V30 363 C 38.1805 2.06855 -0.0430262 0
M  V30 364 C 38.5955 1.41291 1.25229 0
M  V30 365 O 37.9525 0.510648 1.7521 0
M  V30 366 C 38.0035 3.61178 0.152518 0
M  V30 367 O 37.7245 4.24285 -1.0915 0
M  V30 368 C 39.2255 4.37624 0.707145 0
M  V30 369 H 36.4455 0.669319 -0.0474652 0
M  V30 370 H 38.9895 1.89237 -0.77521 0
M  V30 371 H 37.1445 3.78298 0.834843 0
M  V30 372 H 37.5585 5.16868 -0.891482 0
M  V30 373 H 39.0325 5.46271 0.793244 0
M  V30 374 H 39.5095 4.04152 1.71923 0
M  V30 375 H 40.1155 4.25257 0.0604027 0
M  V30 376 N 38.4306 0.297415 1.54768 0
M  V30 377 C 39.8416 -0.195947 1.85669 0
M  V30 378 C 40.1926 -1.53707 1.21937 0
M  V30 379 O 39.3176 -2.10164 0.515754 0
M  V30 380 C 39.9126 -0.362318 3.36857 0
M  V30 381 C 38.4716 -0.799901 3.67802 0
M  V30 382 C 37.6186 0.0938578 2.77141 0
M  V30 383 H 40.5696 0.518538 1.4999 0
M  V30 384 H 40.5906 -1.19745 3.61167 0
M  V30 385 H 40.1026 0.613921 3.83214 0
M  V30 386 H 38.2036 -1.78682 3.26961 0
M  V30 387 H 38.3166 -0.621773 4.75048 0
M  V30 388 H 36.6806 -0.426254 2.51108 0
M  V30 389 H 37.4636 1.06639 3.26318 0
M  V30 390 N 39.9087 -1.5758 0.0250728 0
M  V30 391 C 41.1367 -1.9593 -0.664747 0
M  V30 392 C 41.5517 -0.901352 -1.65895 0
M  V30 393 O 40.9087 0.117255 -1.82123 0
M  V30 394 C 40.9597 -3.34342 -1.37468 0
M  V30 395 O 40.6807 -4.36079 -0.420324 0
M  V30 396 C 42.1817 -3.873 -2.1567 0
M  V30 397 H 39.4017 -0.645405 -0.183557 0
M  V30 398 H 41.9457 -2.04329 0.0836372 0
M  V30 399 H 40.1007 -3.27175 -2.0745 0
M  V30 400 H 40.5147 -5.16297 -0.923991 0
M  V30 401 H 41.9887 -4.86504 -2.60803 0
M  V30 402 H 42.4657 -3.21331 -2.99405 0
M  V30 403 H 43.0717 -3.97723 -1.50654 0
M  V30 404 N 41.3868 0.248026 -1.55636 0
M  V30 405 C 42.3498 1.29044 -1.89421 0
M  V30 406 C 43.3498 1.41134 -0.770581 0
M  V30 407 O 44.5398 1.39854 -1.03858 0
M  V30 408 C 41.6718 2.66831 -2.12165 0
M  V30 409 H 42.8648 1.00305 -2.82629 0
M  V30 410 H 40.4178 0.487265 -1.48511 0
M  V30 411 H 41.1528 3.00711 -1.21422 0
M  V30 412 H 40.9378 2.59438 -2.93997 0
M  V30 413 H 42.4278 3.42103 -2.3949 0
M  V30 414 N 42.8649 1.48995 0.513639 0
M  V30 415 C 44.2759 1.5119 1.09537 0
M  V30 416 C 44.6269 0.290906 1.94031 0
M  V30 417 O 43.7519 -0.60049 2.07902 0
M  V30 418 C 44.3469 2.73964 1.99322 0
M  V30 419 C 42.9059 2.78978 2.52682 0
M  V30 420 C 42.0529 2.44934 1.30009 0
M  V30 421 H 45.0039 1.55875 0.298125 0
M  V30 422 H 45.0249 2.53409 2.83838 0
M  V30 423 H 44.5369 3.62813 1.37799 0
M  V30 424 H 42.6379 1.94378 3.1788 0
M  V30 425 H 42.7509 3.8083 2.90698 0
M  V30 426 H 41.1149 1.9644 1.62122 0
M  V30 427 H 41.8979 3.36043 0.702131 0
M  V30 428 N 44.343 -0.763751 1.37857 0
M  V30 429 C 45.306 -1.85889 1.34081 0
M  V30 430 C 46.306 -1.58949 0.243277 0
M  V30 431 O 47.496 -1.66882 0.499589 0
M  V30 432 C 44.628 -3.23176 1.08489 0
M  V30 433 H 45.821 -1.90648 2.31502 0
M  V30 434 H 43.374 -0.964367 1.23003 0
M  V30 435 H 44.109 -3.24091 0.116318 0
M  V30 436 H 43.894 -3.44124 1.8794 0
M  V30 437 H 45.384 -4.03254 1.08517 0
M  V30 438 N 45.8211 -1.22559 -0.990812 0
M  V30 439 C 46.7531 -0.955325 -2.08342 0
M  V30 440 C 47.7661 0.0668408 -1.62663 0
M  V30 441 O 48.9551 -0.167421 -1.77713 0
M  V30 442 C 46.0551 -0.415566 -3.36342 0
M  V30 443 C 45.2281 -1.49544 -4.11042 0
M  V30 444 C 44.2871 -0.962399 -5.17324 0
M  V30 445 O 43.3131 -1.64907 -5.44788 0
M  V30 446 N 44.5151 0.215134 -5.80101 0
M  V30 447 H 47.2801 -1.89596 -2.32106 0
M  V30 448 H 44.8411 -1.13276 -1.15673 0
M  V30 449 H 46.8331 -0.0442386 -4.04676 0
M  V30 450 H 45.4031 0.430232 -3.09625 0
M  V30 451 H 44.6231 -2.04 -3.37309 0
M  V30 452 H 45.9111 -2.22195 -4.57719 0
M  V30 453 H 45.3091 0.789779 -5.6016 0
M  V30 454 H 43.8661 0.527826 -6.49659 0
M  V30 455 N 47.2992 1.18797 -1.03562 0
M  V30 456 C 48.5472 1.88278 -0.734569 0
M  V30 457 C 48.8682 1.8043 0.739586 0
M  V30 458 O 48.1382 1.21925 1.53333 0
M  V30 459 H 46.7182 0.696991 -0.268725 0
M  V30 460 H 49.3802 1.44192 -1.31129 0
M  V30 461 H 48.4762 2.94443 -1.03489 0
M  V30 462 N 48.7773 0.814389 1.34928 0
M  V30 463 C 50.0173 0.404165 2.00364 0
M  V30 464 C 50.3813 -1.01166 1.63185 0
M  V30 465 O 51.5823 -1.52431 2.21401 0
M  V30 466 C 49.8533 0.590718 3.52484 0
M  V30 467 S 51.4123 0.272075 4.37956 0
M  V30 468 H 48.2303 0.15311 0.694319 0
M  V30 469 H 50.8323 1.05834 1.64376 0
M  V30 470 H 49.5363 1.62099 3.77031 0
M  V30 471 H 49.0673 -0.0785013 3.93322 0
M  V30 472 H 51.0823 -0.917405 4.87645 0
M  V30 473 N 50.2554 -1.46986 0.568584 0
M  V30 474 C 51.2054 -2.27179 -0.193339 0
M  V30 475 C 52.1894 -1.35035 -0.874895 0
M  V30 476 O 53.3814 -1.5931 -0.771322 0
M  V30 477 C 50.5104 -3.21063 -1.21546 0
M  V30 478 C 49.5964 -4.2069 -0.536738 0
M  V30 479 N 49.9874 -5.04218 0.399673 0
M  V30 480 C 48.2854 -4.38961 -0.789254 0
M  V30 481 C 48.9864 -5.76242 0.795017 0
M  V30 482 N 47.9624 -5.434 0.1473 0
M  V30 483 H 51.7644 -2.89146 0.526458 0
M  V30 484 H 49.2784 -1.57664 0.389342 0
M  V30 485 H 51.2754 -3.77209 -1.77536 0
M  V30 486 H 49.9354 -2.60654 -1.93623 0
M  V30 487 H 50.9464 -5.12077 0.774454 0
M  V30 488 H 47.6234 -3.89713 -1.49767 0
M  V30 489 H 49.0134 -6.53417 1.56513 0
M  V30 490 N 51.7335 -0.305618 -1.54608 0
M  V30 491 C 52.9585 0.307562 -2.05107 0
M  V30 492 C 53.3835 1.46385 -1.18123 0
M  V30 493 O 52.7415 1.8034 -0.186324 0
M  V30 494 C 52.7895 0.73704 -3.52987 0
M  V30 495 O 51.8935 1.84134 -3.6901 0
M  V30 496 H 51.2345 0.0589143 -0.661381 0
M  V30 497 H 53.7645 -0.448807 -1.99617 0
M  V30 498 H 53.7745 1.02459 -3.94925 0
M  V30 499 H 52.4495 -0.108773 -4.15758 0
M  V30 500 H 51.0265 1.55398 -3.38978 0
M  V30 501 N 53.2116 1.57565 -0.0334293 0
M  V30 502 C 54.1586 2.10478 0.946981 0
M  V30 503 C 55.1286 1.00787 1.32027 0
M  V30 504 O 56.3136 1.28232 1.41284 0
M  V30 505 C 53.4536 2.63994 2.22263 0
M  V30 506 C 52.5666 3.87709 1.90541 0
M  V30 507 C 51.7016 4.29604 3.12433 0
M  V30 508 C 50.7406 5.46065 2.76549 0
M  V30 509 N 49.8776 5.83096 3.9108 0
M  V30 510 H 54.7176 2.93963 0.488846 0
M  V30 511 H 52.2546 1.45296 0.22969 0
M  V30 512 H 54.2126 2.93114 2.96884 0
M  V30 513 H 52.8426 1.83333 2.65685 0
M  V30 514 H 51.8946 3.65291 1.06144 0
M  V30 515 H 53.2066 4.72403 1.60116 0
M  V30 516 H 52.3606 4.60182 3.9537 0
M  V30 517 H 51.0996 3.43685 3.46023 0
M  V30 518 H 50.1046 5.15176 1.92026 0
M  V30 519 H 51.3296 6.33685 2.44171 0
M  V30 520 H 49.2756 5.00132 4.24504 0
M  V30 521 H 49.1926 6.6244 3.64293 0
M  V30 522 H 50.4606 6.18282 4.74708 0
M  V30 523 N 54.6897 -0.239769 1.55765 0
M  V30 524 C 56.1007 -0.808263 1.68297 0
M  V30 525 C 56.4517 -1.85736 0.632181 0
M  V30 526 O 55.5767 -2.15277 -0.220204 0
M  V30 527 C 56.1717 -1.47284 3.05111 0
M  V30 528 C 54.7307 -1.98895 3.19559 0
M  V30 529 C 53.8777 -0.842575 2.64189 0
M  V30 530 H 56.8287 -0.0154422 1.58692 0
M  V30 531 H 56.8497 -2.34111 2.99954 0
M  V30 532 H 56.3617 -0.709053 3.81568 0
M  V30 533 H 54.4627 -2.78132 2.47938 0
M  V30 534 H 54.5757 -2.18143 4.26556 0
M  V30 535 H 52.9397 -1.24501 2.22197 0
M  V30 536 H 53.7227 -0.0917552 3.43177 0
M  V30 537 N 56.1678 -1.49265 -0.50573 0
M  V30 538 C 57.4158 -1.582 -1.25766 0
M  V30 539 C 57.7368 -0.268482 -1.93143 0
M  V30 540 O 57.0068 0.711833 -1.8251 0
M  V30 541 H 55.5868 -0.582873 -0.467191 0
M  V30 542 H 58.2488 -1.85865 -0.586525 0
M  V30 543 H 57.3448 -2.37563 -2.02412 0
M  V30 544 N 57.6459 0.756429 -1.3826 0
M  V30 545 C 59.0569 1.33359 -1.30661 0
M  V30 546 C 59.4079 1.96161 0.0388875 0
M  V30 547 O 58.5329 1.94874 0.940918 0
M  V30 548 C 59.1279 2.42477 -2.36622 0
M  V30 549 C 57.6869 2.95922 -2.3261 0
M  V30 550 C 56.8339 1.69275 -2.19639 0
M  V30 551 H 59.7849 0.55552 -1.4866 0
M  V30 552 H 59.8059 3.22345 -2.02174 0
M  V30 553 H 59.3179 1.96739 -3.34538 0
M  V30 554 H 57.4189 3.45996 -1.38267 0
M  V30 555 H 57.5319 3.50494 -3.26636 0
M  V30 556 H 55.8959 1.92793 -1.66442 0
M  V30 557 H 56.6789 1.25619 -3.19491 0
M  V30 558 N 59.124 1.23083 0.984299 0
M  V30 559 C 60.087 1.00979 2.05757 0
M  V30 560 C 61.087 -0.0269573 1.60777 0
M  V30 561 O 62.277 0.212403 1.729 0
M  V30 562 C 59.409 0.527072 3.36801 0
M  V30 563 H 60.602 1.9622 2.26799 0
M  V30 564 H 58.155 1.05072 1.15714 0
M  V30 565 H 58.89 -0.429294 3.21446 0
M  V30 566 H 58.675 1.27515 3.70786 0
M  V30 567 H 60.165 0.392942 4.15747 0
M  V30 568 N 60.6021 -1.18246 1.0419 0
M  V30 569 C 62.0181 -1.40269 0.761366 0
M  V30 570 C 62.2181 -1.90777 -0.648578 0
M  V30 571 O 61.2741 -2.0929 -1.41258 0
M  V30 572 C 62.5871 -2.40237 1.8085 0
M  V30 573 C 64.1351 -2.53961 1.82955 0
M  V30 574 C 64.6101 -3.57194 2.86664 0
M  V30 575 N 66.1011 -3.64702 2.85563 0
M  V30 576 C 66.8361 -4.44309 3.6246 0
M  V30 577 N 66.3321 -5.27514 4.49111 0
M  V30 578 N 68.1251 -4.39084 3.50944 0
M  V30 579 H 60.2761 -0.837882 1.95175 0
M  V30 580 H 62.5391 -0.430608 0.84456 0
M  V30 581 H 62.2451 -2.10176 2.81991 0
M  V30 582 H 62.1191 -3.39601 1.64168 0
M  V30 583 H 64.5061 -2.83338 0.824855 0
M  V30 584 H 64.5871 -1.54706 2.03715 0
M  V30 585 H 64.2311 -3.28558 3.87314 0
M  V30 586 H 64.1611 -4.5613 2.6316 0
M  V30 587 H 66.6521 -3.05289 2.22727 0
M  V30 588 H 66.9651 -5.85411 5.04493 0
M  V30 589 H 65.3101 -5.2693 4.53178 0
M  V30 590 H 68.5011 -3.7313 2.82651 0
M  V30 591 H 68.6741 -5.00883 4.11121 0
M  V30 592 N 62.0802 -0.821533 -1.34494 0
M  V30 593 C 63.4912 -0.467956 -1.8074 0
M  V30 594 C 63.8422 1.01151 -1.68116 0
M  V30 595 O 62.9672 1.78707 -1.22036 0
M  V30 596 C 63.5622 -0.842627 -3.28154 0
M  V30 597 C 62.1212 -0.541439 -3.72485 0
M  V30 598 C 61.2682 -1.06028 -2.56229 0
M  V30 599 H 64.2192 -1.01183 -1.22261 0
M  V30 600 H 64.2402 -0.145876 -3.8022 0
M  V30 601 H 63.7522 -1.91945 -3.37311 0
M  V30 602 H 61.8532 0.526034 -3.68868 0
M  V30 603 H 61.9662 -1.08453 -4.66663 0
M  V30 604 H 60.3302 -0.481892 -2.501 0
M  V30 605 H 61.1132 -2.14352 -2.68157 0
M  V30 606 N 63.5583 1.46682 -0.576371 0
M  V30 607 C 64.8043 2.02712 -0.0596221 0
M  V30 608 C 65.1373 1.44765 1.29448 0
M  V30 609 O 64.4123 0.610355 1.84675 0
M  V30 610 C 64.6953 3.60098 0.0129503 0
M  V30 611 C 64.5483 4.28441 -1.3696 0
M  V30 612 C 65.8673 4.34224 0.71678 0
M  V30 613 H 62.9863 0.736637 -0.0231407 0
M  V30 614 H 65.6283 1.74898 -0.742351 0
M  V30 615 H 63.7783 3.83926 0.594378 0
M  V30 616 H 65.4503 4.15896 -1.9957 0
M  V30 617 H 63.6933 3.8805 -1.93907 0
M  V30 618 H 64.3643 5.3716 -1.27135 0
M  V30 619 H 66.8403 4.15503 0.222908 0
M  V30 620 H 65.7163 5.43936 0.73657 0
M  V30 621 H 65.9773 4.04823 1.77682 0
M  V30 622 N 65.0364 0.313813 1.54444 0
M  V30 623 C 66.4474 -0.176243 1.85866 0
M  V30 624 C 66.7984 -1.52405 1.23561 0
M  V30 625 O 65.9234 -2.09605 0.538016 0
M  V30 626 C 66.5184 -0.32657 3.37222 0
M  V30 627 C 65.0774 -0.760846 3.6863 0
M  V30 628 C 64.2244 0.123247 2.77026 0
M  V30 629 H 67.1754 0.534418 1.49431 0
M  V30 630 H 67.1964 -1.15908 3.62416 0
M  V30 631 H 66.7084 0.654531 3.82541 0
M  V30 632 H 64.8094 -1.75204 3.28838 0
M  V30 633 H 64.9224 -0.571353 4.75681 0
M  V30 634 H 63.2864 -0.399597 2.51546 0
M  V30 635 H 64.0694 1.10094 3.25168 0
M  V30 636 N 66.5145 -1.57545 0.0417849 0
M  V30 637 C 67.4445 -2.14009 -0.933929 0
M  V30 638 C 68.4255 -1.05938 -1.33083 0
M  V30 639 O 69.6105 -1.33833 -1.40721 0
M  V30 640 C 66.7405 -2.67747 -2.21199 0
M  V30 641 C 65.6945 -3.80718 -1.95544 0
M  V30 642 C 65.0205 -4.20935 -3.29724 0
M  V30 643 C 66.3205 -5.06258 -1.28452 0
M  V30 644 H 68.0145 -2.95788 -0.463645 0
M  V30 645 H 65.5605 -1.42285 -0.221573 0
M  V30 646 H 67.5135 -3.05886 -2.89848 0
M  V30 647 H 66.2375 -1.83147 -2.70416 0
M  V30 648 H 64.8965 -3.43037 -1.2931 0
M  V30 649 H 64.5445 -3.33298 -3.76724 0
M  V30 650 H 64.2445 -4.9707 -3.13361 0
M  V30 651 H 65.7685 -4.61666 -3.9962 0
M  V30 652 H 67.1825 -5.41903 -1.8712 0
M  V30 653 H 65.5795 -5.87475 -1.22445 0
M  V30 654 H 66.6495 -4.84207 -0.259219 0
M  V30 655 N 67.9926 0.231505 -1.5589 0
M  V30 656 C 68.9396 1.28682 -1.91598 0
M  V30 657 C 69.9096 1.47071 -0.771974 0
M  V30 658 O 71.0946 1.60802 -1.027 0
M  V30 659 C 68.2346 2.6342 -2.22944 0
M  V30 660 C 67.3476 2.52912 -3.50228 0
M  V30 661 C 66.4826 3.80106 -3.7107 0
M  V30 662 C 65.5216 3.64279 -4.91902 0
M  V30 663 N 64.6586 4.834 -5.09184 0
M  V30 664 H 69.4986 0.975305 -2.81588 0
M  V30 665 H 67.0356 0.470299 -1.39379 0
M  V30 666 H 68.9936 3.41869 -2.39126 0
M  V30 667 H 67.6236 2.92687 -1.36139 0
M  V30 668 H 66.6756 1.6595 -3.42294 0
M  V30 669 H 67.9876 2.37133 -4.38827 0
M  V30 670 H 67.1416 4.66999 -3.87295 0
M  V30 671 H 65.8806 3.98799 -2.80733 0
M  V30 672 H 64.8856 2.7577 -4.75637 0
M  V30 673 H 66.1106 3.47067 -5.83714 0
M  V30 674 H 64.0566 5.02425 -4.21788 0
M  V30 675 H 63.9736 4.70311 -5.91898 0
M  V30 676 H 65.2416 5.71747 -5.29835 0
M  V30 677 N 69.4707 1.49531 0.497807 0
M  V30 678 C 70.4177 1.66436 1.59899 0
M  V30 679 C 71.3877 0.505793 1.58212 0
M  V30 680 O 72.5727 0.733202 1.7615 0
M  V30 681 C 69.7127 1.7399 2.98029 0
M  V30 682 C 68.8257 3.01172 3.09708 0
M  V30 683 C 67.9607 2.99686 4.38591 0
M  V30 684 C 66.9997 4.21434 4.43914 0
M  V30 685 N 66.1367 4.1784 5.64229 0
M  V30 686 H 70.9767 2.60459 1.44793 0
M  V30 687 H 68.5137 1.29137 0.704423 0
M  V30 688 H 70.4717 1.76352 3.78095 0
M  V30 689 H 69.1017 0.834301 3.11832 0
M  V30 690 H 68.1537 3.08408 2.22685 0
M  V30 691 H 69.4657 3.91165 3.09502 0
M  V30 692 H 68.6197 3.00628 5.2698 0
M  V30 693 H 67.3587 2.07477 4.41367 0
M  V30 694 H 66.3637 4.20733 3.53926 0
M  V30 695 H 67.5887 5.14839 4.42851 0
M  V30 696 H 65.5347 3.28469 5.67841 0
M  V30 697 H 65.4517 5.01571 5.65652 0
M  V30 698 H 66.7197 4.22889 6.54817 0
M  V30 699 N 70.9488 -0.749086 1.3866 0
M  V30 700 C 72.3648 -1.05276 1.19955 0
M  V30 701 C 72.5648 -2.01435 0.05134 0
M  V30 702 O 71.6208 -2.45232 -0.60147 0
M  V30 703 C 72.9338 -1.62853 2.52783 0
M  V30 704 C 74.4818 -1.75002 2.59506 0
M  V30 705 C 74.9568 -2.35991 3.92521 0
M  V30 706 N 76.4478 -2.43416 3.94085 0
M  V30 707 C 77.1828 -2.91511 4.9377 0
M  V30 708 N 76.6788 -3.39608 6.03853 0
M  V30 709 N 78.4718 -2.90592 4.81157 0
M  V30 710 H 70.6228 -0.111066 2.12109 0
M  V30 711 H 72.8858 -0.111901 0.941373 0
M  V30 712 H 72.5918 -0.99664 3.37283 0
M  V30 713 H 72.4658 -2.61854 2.715 0
M  V30 714 H 74.8528 -2.37317 1.75398 0
M  V30 715 H 74.9338 -0.74693 2.44652 0
M  V30 716 H 74.5778 -1.74308 4.77053 0
M  V30 717 H 74.5078 -3.3695 4.04688 0
M  V30 718 H 76.9988 -2.09405 3.14576 0
M  V30 719 H 77.3118 -3.74775 6.75843 0
M  V30 720 H 75.6568 -3.37653 6.07466 0
M  V30 721 H 78.8478 -2.52332 3.94267 0
M  V30 722 H 79.0208 -3.27762 5.58996 0
M  V30 723 N 72.4269 -1.23603 -0.977757 0
M  V30 724 C 73.6749 -1.06759 -1.71601 0
M  V30 725 C 73.9959 0.395929 -1.90938 0
M  V30 726 O 73.2659 1.28356 -1.47992 0
M  V30 727 H 71.8459 -0.392062 -0.635843 0
M  V30 728 H 74.5079 -1.55362 -1.1768 0
M  V30 729 H 73.6039 -1.55763 -2.70452 0
M  V30 730 N 73.905 1.17692 -1.04816 0
M  V30 731 C 75.135 1.91508 -0.775128 0
M  V30 732 C 75.543 1.76844 0.67253 0
M  V30 733 O 74.886 1.10057 1.47082 0
M  V30 734 C 74.948 3.43167 -1.0713 0
M  V30 735 C 74.612 3.81612 -2.51438 0
M  V30 736 C 75.609 3.84772 -3.49638 0
M  V30 737 C 73.294 4.12687 -2.86348 0
M  V30 738 C 75.288 4.18469 -4.80794 0
M  V30 739 C 72.975 4.46053 -4.17708 0
M  V30 740 C 73.973 4.48921 -5.14741 0
M  V30 741 O 73.661 4.81504 -6.43746 0
M  V30 742 H 73.393 0.614575 -0.281555 0
M  V30 743 H 75.947 1.50206 -1.40098 0
M  V30 744 H 74.177 3.84745 -0.388342 0
M  V30 745 H 75.866 3.98239 -0.784883 0
M  V30 746 H 76.632 3.60893 -3.24008 0
M  V30 747 H 72.511 4.09627 -2.11486 0
M  V30 748 H 76.055 4.20623 -5.56527 0
M  V30 749 H 71.952 4.69393 -4.43103 0
M  V30 750 H 72.72 4.99377 -6.4851 0
M  V30 751 N 75.3831 0.828654 1.34056 0
M  V30 752 C 76.6601 0.341809 1.9259 0
M  V30 753 C 77.0401 -1.17158 1.75605 0
M  V30 754 O 76.3881 -1.98132 1.13824 0
M  V30 755 C 76.5981 0.777453 3.4023 0
M  V30 756 C 77.9461 0.779579 4.17382 0
M  V30 757 O 78.9701 0.7204 3.48839 0
M  V30 758 O 77.8291 0.857996 5.39723 0
M  V30 759 H 74.9231 0.0946085 0.821571 0
M  V30 760 H 77.4691 0.913827 1.42994 0
M  V30 761 H 76.2411 1.8196 3.46419 0
M  V30 762 H 75.8641 0.181444 3.97186 0
M  V30 763 N 76.8612 -1.46375 0.584142 0
M  V30 764 C 78.1072 -2.02678 0.0703716 0
M  V30 765 C 78.4402 -1.4545 -1.28678 0
M  V30 766 O 77.7152 -0.62014 -1.84349 0
M  V30 767 C 77.9982 -3.60099 0.00614674 0
M  V30 768 C 77.8512 -4.27709 1.3923 0
M  V30 769 C 79.1702 -4.34598 -0.693742 0
M  V30 770 H 76.2892 -0.736504 0.027047 0
M  V30 771 H 78.9312 -1.74501 0.751615 0
M  V30 772 H 77.0812 -3.84236 -0.574009 0
M  V30 773 H 78.7532 -4.14832 2.01773 0
M  V30 774 H 76.9962 -3.87016 1.95962 0
M  V30 775 H 77.6672 -5.36478 1.29982 0
M  V30 776 H 80.1432 -4.15615 -0.200869 0
M  V30 777 H 79.0192 -5.44318 -0.707714 0
M  V30 778 H 79.2802 -4.05759 -1.75533 0
M  V30 779 N 78.3393 -0.321999 -1.54275 0
M  V30 780 C 79.5673 0.283052 -2.04955 0
M  V30 781 C 79.9823 1.45904 -1.19823 0
M  V30 782 O 79.3393 1.81063 -0.228545 0
M  V30 783 C 79.3903 0.719028 -3.54277 0
M  V30 784 O 79.1113 -0.410175 -4.36176 0
M  V30 785 C 80.6123 1.38705 -4.21041 0
M  V30 786 H 77.8323 0.0584616 -0.668448 0
M  V30 787 H 80.3763 -0.467734 -1.99079 0
M  V30 788 H 78.5313 1.41979 -3.60445 0
M  V30 789 H 78.9453 -0.0669416 -5.24457 0
M  V30 790 H 80.4193 1.64306 -5.2698 0
M  V30 791 H 80.8963 2.33385 -3.72059 0
M  V30 792 H 81.5023 0.728906 -4.19007 0
M  V30 793 N 79.8174 1.5752 -0.0501392 0
M  V30 794 C 81.2334 1.56631 0.306402 0
M  V30 795 C 81.4334 1.0577 1.71508 0
M  V30 796 O 80.4894 0.713837 2.422 0
M  V30 797 C 81.8024 3.00393 0.135811 0
M  V30 798 C 83.3504 3.12315 0.206993 0
M  V30 799 C 83.8254 4.57954 0.064944 0
M  V30 800 N 85.3164 4.63041 0.121254 0
M  V30 801 C 86.0514 5.73389 0.0354381 0
M  V30 802 N 85.5474 6.92724 -0.102666 0
M  V30 803 N 87.3404 5.62026 0.090946 0
M  V30 804 H 79.4914 1.88903 -0.971046 0
M  V30 805 H 81.7544 0.869876 -0.376855 0
M  V30 806 H 81.4604 3.41635 -0.835384 0
M  V30 807 H 81.3344 3.66373 0.897275 0
M  V30 808 H 83.7214 2.70973 1.16866 0
M  V30 809 H 83.8024 2.49016 -0.585208 0
M  V30 810 H 83.4464 4.99981 -0.893394 0
M  V30 811 H 83.3764 5.19258 0.876277 0
M  V30 812 H 85.8674 3.77216 0.227284 0
M  V30 813 H 86.1804 7.72633 -0.160882 0
M  V30 814 H 84.5254 6.94864 -0.137737 0
M  V30 815 H 87.7164 4.67684 0.197388 0
M  V30 816 H 87.8894 6.47997 0.0206089 0
M  V30 817 N 81.2955 -0.223234 1.56011 0
M  V30 818 C 82.2435 -1.29627 1.93131 0
M  V30 819 C 83.2375 -1.48608 0.813146 0
M  V30 820 O 84.4435 -1.49802 0.997966 0
M  V30 821 H 80.8185 -0.434563 0.613726 0
M  V30 822 H 82.7895 -0.955995 2.82672 0
M  V30 823 C 81.5385 -2.63983 2.26292 0
M  V30 824 H 80.8615 -2.50185 3.11846 0
M  V30 825 H 82.3015 -3.3788 2.56151 0
M  V30 826 C 80.7605 -3.18866 1.08747 0
M  V30 827 O 81.2905 -4.00192 0.347727 0
M  V30 828 N 79.4965 -2.77217 0.871743 0
M  V30 829 H 79.0435 -2.1119 1.47501 0
M  V30 830 H 79.0015 -3.1428 0.0869905 0
M  V30 831 N 82.7736 -1.49793 -0.48987 0
M  V30 832 C 84.1846 -1.52914 -1.07118 0
M  V30 833 C 84.5356 -0.321738 -1.93544 0
M  V30 834 O 83.6606 0.567338 -2.08831 0
M  V30 835 C 84.2556 -2.771 -1.94938 0
M  V30 836 C 82.8146 -2.82963 -2.48212 0
M  V30 837 C 81.9616 -2.46972 -1.26096 0
M  V30 838 H 84.9126 -1.56329 -0.273289 0
M  V30 839 H 84.9336 -2.57892 -2.79771 0
M  V30 840 H 84.4456 -3.64959 -1.32009 0
M  V30 841 H 82.5466 -1.99411 -3.14748 0
M  V30 842 H 82.6596 -3.85406 -2.84603 0
M  V30 843 H 81.0236 -1.98994 -1.58976 0
M  V30 844 H 81.8066 -3.37118 -0.648581 0
M  V30 845 N 84.2517 0.741722 -1.39055 0
M  V30 846 C 85.2017 1.84661 -1.33732 0
M  V30 847 C 86.1857 1.59397 -0.219401 0
M  V30 848 O 87.3777 1.71015 -0.456375 0
M  V30 849 C 84.5067 3.22512 -1.17647 0
M  V30 850 C 83.5927 3.53628 -2.34112 0
M  V30 851 N 83.9837 3.55723 -3.59576 0
M  V30 852 C 82.2817 3.83956 -2.26923 0
M  V30 853 C 82.9827 3.84443 -4.36553 0
M  V30 854 N 81.9587 4.01877 -3.66055 0
M  V30 855 H 85.7607 1.84576 -2.28711 0
M  V30 856 H 83.2747 0.939647 -1.32455 0
M  V30 857 H 85.2717 4.01597 -1.11917 0
M  V30 858 H 83.9317 3.2384 -0.236124 0
M  V30 859 H 84.9427 3.37196 -3.93089 0
M  V30 860 H 81.6197 3.92929 -1.41113 0
M  V30 861 H 83.0097 3.92588 -5.45274 0
M  V30 862 N 85.7298 1.2412 0.971189 0
M  V30 863 C 86.6598 1.05508 2.08304 0
M  V30 864 C 87.6408 -0.0308864 1.70072 0
M  V30 865 O 88.8258 0.135521 1.93727 0
M  V30 866 C 85.9558 0.655365 3.4106 0
M  V30 867 C 84.9098 1.68971 3.93234 0
M  V30 868 C 84.2358 1.14516 5.22293 0
M  V30 869 C 85.5358 3.08487 4.21465 0
M  V30 870 H 87.2298 1.98507 2.24132 0
M  V30 871 H 84.7758 0.955821 1.07704 0
M  V30 872 H 86.7288 0.51217 4.18276 0
M  V30 873 H 85.4528 -0.31032 3.25122 0
M  V30 874 H 84.1118 1.82106 3.18171 0
M  V30 875 H 83.7598 0.170189 5.02712 0
M  V30 876 H 83.4598 1.83635 5.58168 0
M  V30 877 H 84.9838 1.01401 6.02121 0
M  V30 878 H 86.3978 2.98601 4.89398 0
M  V30 879 H 84.7948 3.74926 4.68562 0
M  V30 880 H 85.8648 3.56787 3.28376 0
M  V30 881 N 87.2079 -1.17134 1.05439 0
M  V30 882 C 88.1559 -2.23289 0.651511 0
M  V30 883 C 89.1499 -1.66186 -0.328411 0
M  V30 884 O 90.3559 -1.78949 -0.194206 0
M  V30 885 H 86.7309 -0.726938 0.192523 0
M  V30 886 H 88.7019 -2.54565 1.55689 0
M  V30 887 C 87.4509 -3.47671 0.0448436 0
M  V30 888 H 86.7739 -3.91918 0.78996 0
M  V30 889 H 88.2139 -4.2353 -0.19964 0
M  V30 890 C 86.6729 -3.14453 -1.20918 0
M  V30 891 O 87.2029 -3.29459 -2.29825 0
M  V30 892 N 85.4089 -2.68657 -1.10779 0
M  V30 893 H 84.9559 -2.56646 -0.221526 0
M  V30 894 H 84.9139 -2.46804 -1.9477 0
M  V30 895 N 88.686 -0.835752 -1.33615 0
M  V30 896 C 89.633 -0.26473 -2.29277 0
M  V30 897 C 90.603 0.617712 -1.54187 0
M  V30 898 O 91.788 0.556641 -1.825 0
M  V30 899 C 88.928 0.556777 -3.40579 0
M  V30 900 C 88.041 -0.349339 -4.30585 0
M  V30 901 C 87.176 0.482969 -5.29 0
M  V30 902 C 86.215 -0.421732 -6.10645 0
M  V30 903 N 85.352 0.372262 -7.01112 0
M  V30 904 H 90.192 -1.08582 -2.77514 0
M  V30 905 H 87.729 -0.546927 -1.36554 0
M  V30 906 H 89.687 1.04852 -4.03809 0
M  V30 907 H 88.317 1.34286 -2.93542 0
M  V30 908 H 87.369 -0.959372 -3.68104 0
M  V30 909 H 88.681 -1.04445 -4.87742 0
M  V30 910 H 87.835 1.03866 -5.97743 0
M  V30 911 H 86.574 1.21153 -4.72412 0
M  V30 912 H 85.579 -0.989464 -5.40823 0
M  V30 913 H 86.804 -1.14861 -6.69316 0
M  V30 914 H 84.75 1.08426 -6.46977 0
M  V30 915 H 84.667 -0.264198 -7.55538 0
M  V30 916 H 85.935 0.910293 -7.74167 0
M  V30 917 N 90.1641 1.46063 -0.591896 0
M  V30 918 C 91.4121 2.01938 -0.0808391 0
M  V30 919 C 91.7331 1.46475 1.28725 0
M  V30 920 O 91.0031 0.652944 1.84698 0
M  V30 921 H 89.5831 0.746516 -0.0268938 0
M  V30 922 H 92.2451 1.79055 -0.769752 0
M  V30 923 H 91.3411 3.12094 -0.0187578 0
M  V30 924 N 91.6422 0.330177 1.54103 0
M  V30 925 C 92.5752 -0.575477 2.20825 0
M  V30 926 C 93.5532 -1.11064 1.18758 0
M  V30 927 O 94.7372 -1.17341 1.47524 0
M  V30 928 C 91.8642 -1.79032 2.87516 0
M  V30 929 C 90.9102 -1.38581 4.03358 0
M  V30 930 S 91.7432 -0.416911 5.33875 0
M  V30 931 C 92.8992 -1.63889 6.04062 0
M  V30 932 H 93.1322 -0.00872114 2.97299 0
M  V30 933 H 90.6652 0.114254 1.53977 0
M  V30 934 H 92.6232 -2.48734 3.2656 0
M  V30 935 H 91.2842 -2.32827 2.10832 0
M  V30 936 H 90.4772 -2.29123 4.48908 0
M  V30 937 H 90.0792 -0.768419 3.66021 0
M  V30 938 H 92.3712 -2.57536 6.26643 0
M  V30 939 H 93.3142 -1.22542 6.97416 0
M  V30 940 H 93.7222 -1.82887 5.34053 0
M  V30 941 N 93.1203 -1.57491 0.0584922 0
M  V30 942 C 94.0833 -2.1085 -0.898617 0
M  V30 943 C 95.0833 -1.02964 -1.23511 0
M  V30 944 O 96.2733 -1.29007 -1.17059 0
M  V30 945 C 93.4053 -2.59881 -2.20623 0
M  V30 946 H 94.5983 -2.96715 -0.435936 0
M  V30 947 H 92.1513 -1.55141 -0.190023 0
M  V30 948 H 92.8863 -1.77431 -2.71457 0
M  V30 949 H 92.6713 -3.38727 -1.97501 0
M  V30 950 H 94.1613 -3.01285 -2.89166 0
M  V30 951 N 94.5984 0.214957 -1.56127 0
M  V30 952 C 95.8454 0.938372 -1.79446 0
M  V30 953 C 96.1734 1.8407 -0.628378 0
M  V30 954 O 95.4284 1.91837 0.386925 0
M  V30 955 C 95.7274 1.80314 -3.0858 0
M  V30 956 C 95.3934 1.05349 -4.3842 0
M  V30 957 C 94.0554 0.846435 -4.73697 0
M  V30 958 C 96.4074 0.524588 -5.18553 0
M  V30 959 C 93.7354 0.098683 -5.86617 0
M  V30 960 C 96.0874 -0.209853 -6.32252 0
M  V30 961 C 94.7514 -0.428102 -6.66126 0
M  V30 962 H 94.0214 0.343375 -0.656639 0
M  V30 963 H 96.6684 0.206077 -1.90388 0
M  V30 964 H 94.9734 2.6035 -2.92789 0
M  V30 965 H 96.6704 2.36513 -3.23825 0
M  V30 966 H 93.2604 1.22486 -4.10725 0
M  V30 967 H 97.4444 0.672008 -4.91729 0
M  V30 968 H 92.7004 -0.0805753 -6.11347 0
M  V30 969 H 96.8744 -0.627157 -6.9357 0
M  V30 970 H 94.5014 -1.00944 -7.53468 0
M  V30 971 N 96.0765 1.50051 0.48192 0
M  V30 972 C 97.3045 1.64237 1.25832 0
M  V30 973 C 97.7195 0.321336 1.86045 0
M  V30 974 O 97.0765 -0.695478 1.68729 0
M  V30 975 C 97.1275 2.72548 2.37487 0
M  V30 976 O 96.8485 3.99529 1.79745 0
M  V30 977 C 98.3495 2.9761 3.28547 0
M  V30 978 H 95.5695 0.55237 0.380957 0
M  V30 979 H 98.1135 1.96207 0.576467 0
M  V30 980 H 96.2685 2.43303 3.01467 0
M  V30 981 H 96.6825 4.59342 2.5319 0
M  V30 982 H 98.1565 3.77084 4.03127 0
M  V30 983 H 98.6335 2.0826 3.86684 0
M  V30 984 H 99.2395 3.28345 2.70314 0
M  V30 985 N 97.5546 -0.734337 1.39446 0
M  V30 986 C 98.4846 -1.86155 1.40955 0
M  V30 987 C 99.4656 -1.67898 0.272827 0
M  V30 988 O 100.651 -1.88207 0.478743 0
M  V30 989 C 97.7806 -3.23912 1.25294 0
M  V30 990 C 96.7346 -3.56808 2.36373 0
M  V30 991 C 96.0606 -4.93508 2.058 0
M  V30 992 C 97.3606 -3.59713 3.78687 0
M  V30 993 H 99.0546 -1.8515 2.35287 0
M  V30 994 H 96.6006 -0.889367 1.13253 0
M  V30 995 H 98.5536 -4.02443 1.2497 0
M  V30 996 H 97.2776 -3.25446 0.274308 0
M  V30 997 H 95.9366 -2.80606 2.35914 0
M  V30 998 H 95.5846 -4.91623 1.06374 0
M  V30 999 H 95.2846 -5.16486 2.80208 0
M  V30 1000 H 96.8086 -5.74396 2.07128 0
M  V30 1001 H 98.2226 -4.2832 3.81071 0
M  V30 1002 H 96.6196 -3.94209 4.52459 0
M  V30 1003 H 97.6896 -2.59504 4.09617 0
M  V30 1004 N 99.0327 -1.24633 -0.964593 0
M  V30 1005 C 99.9427 -1.05859 -2.09359 0
M  V30 1006 C 100.959 0.00148855 -1.74 0
M  V30 1007 O 102.135 -0.197346 -2.00431 0
M  V30 1008 C 99.1997 -0.668879 -3.40187 0
M  V30 1009 C 98.2607 -1.80578 -3.89474 0
M  V30 1010 C 97.4937 -1.43457 -5.14058 0
M  V30 1011 O 97.7167 -0.325775 -5.69469 0
M  V30 1012 O 96.6507 -2.2613 -5.57807 0
M  V30 1013 H 100.477 -2.00516 -2.28094 0
M  V30 1014 H 98.0617 -1.03481 -1.0776 0
M  V30 1015 H 99.9437 -0.463211 -4.18846 0
M  V30 1016 H 98.6187 0.248536 -3.22744 0
M  V30 1017 H 97.5257 -2.06623 -3.11862 0
M  V30 1018 H 98.8587 -2.70208 -4.11398 0
M  V30 1019 N 100.511 1.16574 -1.06058 0
M  V30 1020 C 101.421 2.2452 -0.680282 0
M  V30 1021 C 102.437 1.71348 0.302604 0
M  V30 1022 O 103.613 2.00822 0.152513 0
M  V30 1023 C 100.678 3.46629 -0.0700315 0
M  V30 1024 C 99.7388 4.14849 -1.10448 0
M  V30 1025 C 98.9718 5.31129 -0.523256 0
M  V30 1026 O 99.1948 5.66514 0.664709 0
M  V30 1027 O 98.1288 5.88526 -1.26179 0
M  V30 1028 H 101.955 2.59355 -1.58015 0
M  V30 1029 H 99.5398 1.24043 -0.832694 0
M  V30 1030 H 101.422 4.20543 0.268667 0
M  V30 1031 H 100.097 3.13573 0.803353 0
M  V30 1032 H 99.0038 3.42916 -1.49532 0
M  V30 1033 H 100.337 4.51954 -1.94931 0
M  V30 1034 N 101.989 0.842826 1.3317 0
M  V30 1035 C 103.405 0.531128 1.50503 0
M  V30 1036 C 103.605 -0.940734 1.78192 0
M  V30 1037 O 102.661 -1.72436 1.84451 0
M  V30 1038 C 103.974 1.40789 2.65705 0
M  V30 1039 C 105.522 1.40708 2.79589 0
M  V30 1040 C 105.997 2.26878 3.97857 0
M  V30 1041 N 107.488 2.24609 4.05099 0
M  V30 1042 C 108.223 2.88019 4.95815 0
M  V30 1043 N 107.719 3.60496 5.9162 0
M  V30 1044 N 109.512 2.77469 4.88843 0
M  V30 1045 H 101.663 1.79557 1.1346 0
M  V30 1046 H 103.926 0.766267 0.558156 0
M  V30 1047 H 103.632 2.454 2.51936 0
M  V30 1048 H 103.506 1.08677 3.61205 0
M  V30 1049 H 105.893 0.368668 2.92788 0
M  V30 1050 H 105.974 1.76829 1.84838 0
M  V30 1051 H 105.618 3.3078 3.85418 0
M  V30 1052 H 105.548 1.88096 4.91861 0
M  V30 1053 H 108.039 1.71906 3.36536 0
M  V30 1054 H 108.352 4.06076 6.57512 0
M  V30 1055 H 106.697 3.64604 5.91683 0
M  V30 1056 H 109.888 2.20406 4.12963 0
M  V30 1057 H 110.061 3.2717 5.59342 0
M  V30 1058 N 103.467 -1.45747 0.599634 0
M  V30 1059 C 104.397 -2.33235 -0.111306 0
M  V30 1060 C 105.378 -1.46359 -0.866781 0
M  V30 1061 O 106.563 -1.75146 -0.838904 0
M  V30 1062 C 103.693 -3.28932 -1.11451 0
M  V30 1063 C 102.647 -4.25381 -0.472772 0
M  V30 1064 C 101.973 -5.1071 -1.58365 0
M  V30 1065 C 103.273 -5.18831 0.600948 0
M  V30 1066 H 104.967 -2.92927 0.61919 0
M  V30 1067 H 102.513 -1.40857 0.299215 0
M  V30 1068 H 104.466 -3.89002 -1.62036 0
M  V30 1069 H 103.19 -2.67381 -1.8755 0
M  V30 1070 H 101.849 -3.66598 0.0121472 0
M  V30 1071 H 101.497 -4.45533 -2.33473 0
M  V30 1072 H 101.197 -5.7604 -1.15982 0
M  V30 1073 H 102.721 -5.73647 -2.09194 0
M  V30 1074 H 104.135 -5.73019 0.179491 0
M  V30 1075 H 102.532 -5.92595 0.946076 0
M  V30 1076 H 103.602 -4.6174 1.48068 0
M  V30 1077 N 104.945 -0.338344 -1.53925 0
M  V30 1078 C 105.877 0.555117 -2.22376 0
M  V30 1079 C 106.89 1.06812 -1.22862 0
M  V30 1080 O 108.079 0.979163 -1.49247 0
M  V30 1081 C 105.179 1.77609 -2.88631 0
M  V30 1082 C 104.352 1.39927 -4.14414 0
M  V30 1083 C 103.411 2.47936 -4.64127 0
M  V30 1084 O 102.437 2.11461 -5.28463 0
M  V30 1085 N 103.639 3.79107 -4.39612 0
M  V30 1086 H 106.404 -0.0310778 -2.99684 0
M  V30 1087 H 103.965 -0.162226 -1.61085 0
M  V30 1088 H 105.957 2.49287 -3.18807 0
M  V30 1089 H 104.527 2.26978 -2.14941 0
M  V30 1090 H 103.747 0.513481 -3.90841 0
M  V30 1091 H 105.035 1.12341 -4.96243 0
M  V30 1092 H 104.433 4.11531 -3.88148 0
M  V30 1093 H 102.99 4.4697 -4.74406 0
M  V30 1094 N 106.423 1.57458 -0.0668435 0
M  V30 1095 C 107.353 2.15468 0.899764 0
M  V30 1096 C 108.334 1.08042 1.31381 0
M  V30 1097 O 109.519 1.36054 1.38574 0
M  V30 1098 C 106.649 2.71232 2.16911 0
M  V30 1099 C 105.603 3.83781 1.89463 0
M  V30 1100 C 104.929 4.26127 3.22986 0
M  V30 1101 C 106.229 5.08238 1.20381 0
M  V30 1102 H 107.923 2.96488 0.416529 0
M  V30 1103 H 105.469 1.4262 0.198908 0
M  V30 1104 H 107.422 3.10458 2.84945 0
M  V30 1105 H 106.146 1.87426 2.67468 0
M  V30 1106 H 104.805 3.45051 1.23836 0
M  V30 1107 H 104.453 3.39249 3.71374 0
M  V30 1108 H 104.153 5.01993 3.05413 0
M  V30 1109 H 105.677 4.67966 3.92225 0
M  V30 1110 H 107.091 5.44811 1.78475 0
M  V30 1111 H 105.488 5.89349 1.13083 0
M  V30 1112 H 106.558 4.84558 0.182153 0
M  V30 1113 N 107.901 -0.206675 1.56239 0
M  V30 1114 C 109.149 -0.927007 1.79586 0
M  V30 1115 C 109.47 -1.8427 0.637929 0
M  V30 1116 O 108.74 -1.92849 -0.344398 0
M  V30 1117 H 107.32 -0.345292 0.662407 0
M  V30 1118 H 109.982 -0.21496 1.93711 0
M  V30 1119 H 109.078 -1.52501 2.72305 0
M  V30 1120 N 109.379 -1.50304 -0.473955 0
M  V30 1121 C 110.628 -1.60392 -1.22301 0
M  V30 1122 C 110.941 -0.308411 -1.93153 0
M  V30 1123 O 112.147 -0.288156 -2.69966 0
M  V30 1124 C 110.603 -2.83109 -2.2221 0
M  V30 1125 C 110.211 -4.19524 -1.57173 0
M  V30 1126 C 111.955 -3.0254 -2.97775 0
M  V30 1127 C 109.862 -5.33431 -2.55353 0
M  V30 1128 H 108.792 -0.597286 -0.460179 0
M  V30 1129 H 111.443 -1.76731 -0.493803 0
M  V30 1130 H 109.825 -2.60322 -2.9841 0
M  V30 1131 H 110.999 -4.52554 -0.867824 0
M  V30 1132 H 109.314 -4.05674 -0.939002 0
M  V30 1133 H 111.911 -3.84811 -3.71248 0
M  V30 1134 H 112.254 -2.14154 -3.56992 0
M  V30 1135 H 112.787 -3.25494 -2.28688 0
M  V30 1136 H 109.526 -6.23962 -2.00878 0
M  V30 1137 H 109.046 -5.04823 -3.23904 0
M  V30 1138 H 110.725 -5.63887 -3.17239 0
M  V30 1139 N 110.857 0.726932 -1.39834 0
M  V30 1140 C 111.807 1.83232 -1.35683 0
M  V30 1141 C 112.791 1.59155 -0.236295 0
M  V30 1142 O 113.983 1.70522 -0.474488 0
M  V30 1143 C 111.112 3.21246 -1.21062 0
M  V30 1144 C 110.198 3.51125 -2.37849 0
M  V30 1145 N 110.589 3.51889 -3.63329 0
M  V30 1146 C 108.887 3.81527 -2.30982 0
M  V30 1147 C 109.588 3.79791 -4.40606 0
M  V30 1148 N 108.564 3.97971 -3.70297 0
M  V30 1149 H 112.366 1.8214 -2.30656 0
M  V30 1150 H 109.88 0.925545 -1.33444 0
M  V30 1151 H 111.877 4.00387 -1.16171 0
M  V30 1152 H 110.537 3.23572 -0.270458 0
M  V30 1153 H 111.548 3.33008 -3.96643 0
M  V30 1154 H 108.225 3.91411 -1.45272 0
M  V30 1155 H 109.615 3.86783 -5.49408 0
M  V30 1156 N 112.336 1.25143 0.95797 0
M  V30 1157 C 113.584 1.09476 1.69881 0
M  V30 1158 C 113.905 -0.365502 1.91544 0
M  V30 1159 O 113.175 -1.25985 1.50015 0
M  V30 1160 H 111.755 0.402128 0.629525 0
M  V30 1161 H 114.417 1.57214 1.15194 0
M  V30 1162 H 113.513 1.60046 2.6794 0
M  V30 1163 N 113.814 -1.1601 1.06675 0
M  V30 1164 C 114.744 -2.22688 0.702307 0
M  V30 1165 C 115.725 -1.67306 -0.307032 0
M  V30 1166 O 116.91 -1.93352 -0.181305 0
M  V30 1167 C 114.04 -3.47178 0.092038 0
M  V30 1168 C 112.994 -4.15477 1.02777 0
M  V30 1169 C 112.32 -5.33963 0.28061 0
M  V30 1170 C 113.62 -4.66019 2.35846 0
M  V30 1171 H 115.314 -2.53429 1.59419 0
M  V30 1172 H 112.86 -1.21813 0.767961 0
M  V30 1173 H 114.813 -4.21037 -0.174814 0
M  V30 1174 H 113.537 -3.15749 -0.834877 0
M  V30 1175 H 112.196 -3.43549 1.27944 0
M  V30 1176 H 111.844 -4.98788 -0.649545 0
M  V30 1177 H 111.544 -5.806 0.904258 0
M  V30 1178 H 113.068 -6.10596 0.021396 0
M  V30 1179 H 114.482 -5.3144 2.15045 0
M  V30 1180 H 112.879 -5.23293 2.93743 0
M  V30 1181 H 113.949 -3.82023 2.98641 0
M  V30 1182 N 115.292 -0.849877 -1.32721 0
M  V30 1183 C 116.541 -0.447175 -1.96681 0
M  V30 1184 C 116.854 1.00135 -1.68025 0
M  V30 1185 O 118.06 1.50926 -2.25685 0
M  V30 1186 C 116.516 -0.7487 -3.52026 0
M  V30 1187 C 116.124 -2.21264 -3.89546 0
M  V30 1188 C 117.868 -0.413487 -4.22481 0
M  V30 1189 C 115.775 -2.45763 -5.37917 0
M  V30 1190 H 114.705 -0.163486 -0.736063 0
M  V30 1191 H 117.356 -1.03999 -1.51183 0
M  V30 1192 H 115.738 -0.0853727 -3.95908 0
M  V30 1193 H 116.912 -2.91736 -3.56689 0
M  V30 1194 H 115.227 -2.5119 -3.32103 0
M  V30 1195 H 117.824 -0.574017 -5.3161 0
M  V30 1196 H 118.167 0.644492 -4.11281 0
M  V30 1197 H 118.7 -1.03251 -3.84167 0
M  V30 1198 H 115.439 -3.50168 -5.54132 0
M  V30 1199 H 114.959 -1.79864 -5.72197 0
M  V30 1200 H 116.638 -2.29471 -6.0494 0
M  V30 1201 N 116.77 1.45427 -0.607355 0
M  V30 1202 C 118.181 1.85756 -0.187535 0
M  V30 1203 C 118.532 1.5077 1.25551 0
M  V30 1204 O 117.657 0.93427 1.95193 0
M  V30 1205 C 118.252 3.37154 -0.333572 0
M  V30 1206 C 116.811 3.76387 0.0315542 0
M  V30 1207 C 115.958 2.69377 -0.658117 0
M  V30 1208 H 118.909 1.36231 -0.81405 0
M  V30 1209 H 118.93 3.78014 0.43428 0
M  V30 1210 H 118.442 3.62586 -1.38393 0
M  V30 1211 H 116.543 3.56571 1.0811 0
M  V30 1212 H 116.656 4.77731 -0.361935 0
M  V30 1213 H 115.02 2.5452 -0.0957873 0
M  V30 1214 H 115.803 2.97646 -1.7106 0
M  V30 1215 N 118.248 0.346503 1.53744 0
M  V30 1216 C 119.659 -0.136779 1.86198 0
M  V30 1217 C 120.01 -1.49749 1.26766 0
M  V30 1218 O 119.135 -2.08417 0.582355 0
M  V30 1219 C 119.73 -0.254966 3.37839 0
M  V30 1220 C 118.289 -0.682482 3.70161 0
M  V30 1221 C 117.436 0.181981 2.76702 0
M  V30 1222 H 120.387 0.565994 1.48264 0
M  V30 1223 H 120.408 -1.08195 3.64793 0
M  V30 1224 H 119.92 0.735526 3.81066 0
M  V30 1225 H 118.021 -1.68189 3.3248 0
M  V30 1226 H 118.134 -0.470326 4.76786 0
M  V30 1227 H 116.498 -0.34615 2.52337 0
M  V30 1228 H 117.281 1.16966 3.2276 0
M  V30 1229 N 119.726 -1.57421 0.075193 0
M  V30 1230 C 120.966 -1.95495 -0.596757 0
M  V30 1231 C 121.33 -0.954886 -1.66571 0
M  V30 1232 O 122.531 -1.22341 -2.39345 0
M  V30 1233 C 120.802 -3.382 -1.15566 0
M  V30 1234 S 122.361 -3.98254 -1.84226 0
M  V30 1235 H 119.179 -0.683649 -0.195307 0
M  V30 1236 H 121.781 -1.94925 0.149859 0
M  V30 1237 H 120.485 -4.08766 -0.36588 0
M  V30 1238 H 120.016 -3.42321 -1.93856 0
M  V30 1239 H 122.031 -3.85435 -3.12497 0
M  V30 1240 N 121.204 0.198386 -1.56346 0
M  V30 1241 C 122.451 0.919286 -1.80431 0
M  V30 1242 C 122.779 1.83393 -0.647866 0
M  V30 1243 O 122.034 1.92236 0.366556 0
M  V30 1244 C 122.333 1.77031 -3.10475 0
M  V30 1245 C 121.999 1.00693 -4.39513 0
M  V30 1246 C 120.661 0.796145 -4.74568 0
M  V30 1247 C 123.013 0.469559 -5.19081 0
M  V30 1248 C 120.341 0.0364588 -5.86689 0
M  V30 1249 C 122.693 -0.2769 -6.31994 0
M  V30 1250 C 121.357 -0.49873 -6.65634 0
M  V30 1251 H 120.627 0.336391 -0.660244 0
M  V30 1252 H 123.274 0.185872 -1.90596 0
M  V30 1253 H 121.579 2.5723 -2.95533 0
M  V30 1254 H 123.276 2.33065 -3.26315 0
M  V30 1255 H 119.866 1.18122 -4.12001 0
M  V30 1256 H 124.05 0.619816 -4.92414 0
M  V30 1257 H 119.306 -0.145412 -6.11227 0
M  V30 1258 H 123.48 -0.700684 -6.92866 0
M  V30 1259 H 121.107 -1.0893 -7.52355 0
M  V30 1260 N 122.682 1.50554 0.465978 0
M  V30 1261 C 123.612 1.72722 1.57128 0
M  V30 1262 C 124.593 0.576294 1.6004 0
M  V30 1263 O 125.778 0.81598 1.76225 0
M  V30 1264 C 122.908 1.82605 2.95419 0
M  V30 1265 C 121.862 2.97835 3.07373 0
M  V30 1266 C 121.188 2.92867 4.47363 0
M  V30 1267 C 122.488 4.38265 2.84114 0
M  V30 1268 H 124.182 2.65267 1.38829 0
M  V30 1269 H 121.728 1.2765 0.666441 0
M  V30 1270 H 123.681 1.96698 3.72677 0
M  V30 1271 H 122.405 0.866858 3.14886 0
M  V30 1272 H 121.064 2.83401 2.3255 0
M  V30 1273 H 120.712 1.94783 4.63755 0
M  V30 1274 H 120.412 3.70227 4.56296 0
M  V30 1275 H 121.936 3.09015 5.26633 0
M  V30 1276 H 123.35 4.53198 3.51118 0
M  V30 1277 H 121.747 5.17115 3.04487 0
M  V30 1278 H 122.817 4.50281 1.7993 0
M  V30 1279 N 124.16 -0.719506 1.40217 0
M  V30 1280 C 125.385 -1.51371 1.4178 0
M  V30 1281 C 125.81 -1.88091 0.0182355 0
M  V30 1282 O 125.168 -1.52997 -0.972707 0
M  V30 1283 C 125.216 -2.768 2.31115 0
M  V30 1284 O 124.32 -3.73349 1.7517 0
M  V30 1285 H 123.661 -0.456529 0.482159 0
M  V30 1286 H 126.191 -0.88644 1.844 0
M  V30 1287 H 126.201 -3.25371 2.46167 0
M  V30 1288 H 124.876 -2.49407 3.3282 0
M  V30 1289 H 123.453 -3.32179 1.69444 0
M  V30 1290 N 125.638 -1.25649 -0.95132 0
M  V30 1291 C 126.57 -1.02112 -2.05197 0
M  V30 1292 C 127.583 0.0150571 -1.62793 0
M  V30 1293 O 128.772 -0.223874 -1.77091 0
M  V30 1294 C 125.872 -0.522361 -3.3485 0
M  V30 1295 C 125.045 -1.62546 -4.06076 0
M  V30 1296 C 124.104 -1.12649 -5.14001 0
M  V30 1297 O 123.13 -1.82156 -5.39266 0
M  V30 1298 N 124.332 0.03047 -5.80492 0
M  V30 1299 H 127.097 -1.96885 -2.25957 0
M  V30 1300 H 124.658 -1.16899 -1.1201 0
M  V30 1301 H 126.65 -0.172961 -4.0433 0
M  V30 1302 H 125.22 0.33151 -3.10837 0
M  V30 1303 H 124.44 -2.14628 -3.30649 0
M  V30 1304 H 125.728 -2.36644 -4.50419 0
M  V30 1305 H 125.126 0.611169 -5.62389 0
M  V30 1306 H 123.683 0.320875 -6.5101 0
M  V30 1307 N 127.117 1.15442 -1.07289 0
M  V30 1308 C 128.394 1.82306 -0.708792 0
M  V30 1309 C 128.774 1.94991 0.808807 0
M  V30 1310 O 128.122 1.50085 1.72298 0
M  V30 1311 C 128.332 3.18695 -1.42247 0
M  V30 1312 C 129.68 3.94341 -1.57417 0
M  V30 1313 O 130.704 3.28247 -1.38319 0
M  V30 1314 O 129.563 5.12839 -1.88834 0
M  V30 1315 H 126.657 0.787628 -0.252132 0
M  V30 1316 H 129.203 1.22559 -1.17377 0
M  V30 1317 H 127.975 3.04557 -2.45684 0
M  V30 1318 H 127.598 3.86128 -0.948223 0
M  V30 1319 N 128.595 0.856903 1.32268 0
M  V30 1320 C 129.841 0.462069 1.97466 0
M  V30 1321 C 130.174 -0.980298 1.67642 0
M  V30 1322 O 129.449 -1.68824 0.965858 0
M  V30 1323 C 129.732 0.704336 3.53145 0
M  V30 1324 C 129.585 2.19529 3.9259 0
M  V30 1325 C 130.904 0.1622 4.39801 0
M  V30 1326 H 128.023 0.169357 0.717278 0
M  V30 1327 H 130.665 1.07574 1.56614 0
M  V30 1328 H 128.815 0.181999 3.88073 0
M  V30 1329 H 130.487 2.78387 3.67829 0
M  V30 1330 H 128.73 2.67292 3.41668 0
M  V30 1331 H 129.401 2.31549 5.01088 0
M  V30 1332 H 131.877 0.608905 4.11621 0
M  V30 1333 H 130.753 0.361265 5.4771 0
M  V30 1334 H 131.014 -0.935158 4.32096 0
M  V30 1335 N 130.073 -1.45103 0.615059 0
M  V30 1336 C 131.005 -2.28786 -0.13762 0
M  V30 1337 C 132.018 -1.40376 -0.824525 0
M  V30 1338 O 133.207 -1.64681 -0.688662 0
M  V30 1339 C 130.307 -3.16322 -1.21628 0
M  V30 1340 C 129.48 -4.33054 -0.615039 0
M  V30 1341 C 128.539 -5.01743 -1.58556 0
M  V30 1342 O 127.565 -5.58293 -1.10895 0
M  V30 1343 N 128.767 -5.01714 -2.91998 0
M  V30 1344 H 131.532 -2.94025 0.580483 0
M  V30 1345 H 129.093 -1.55373 0.45507 0
M  V30 1346 H 131.085 -3.59139 -1.86552 0
M  V30 1347 H 129.655 -2.52943 -1.83681 0
M  V30 1348 H 128.875 -3.93627 0.21245 0
M  V30 1349 H 130.163 -5.08431 -0.193704 0
M  V30 1350 H 129.561 -4.57075 -3.33316 0
M  V30 1351 H 128.118 -5.48371 -3.52325 0
M  V30 1352 N 131.551 -0.354651 -1.53558 0
M  V30 1353 C 132.481 0.489091 -2.2832 0
M  V30 1354 C 133.462 1.09324 -1.30316 0
M  V30 1355 O 134.647 1.11255 -1.59173 0
M  V30 1356 C 131.777 1.63456 -3.0643 0
M  V30 1357 C 130.731 1.1582 -4.12031 0
M  V30 1358 C 130.057 2.39305 -4.7816 0
M  V30 1359 C 131.357 0.250731 -5.21698 0
M  V30 1360 H 133.051 -0.134614 -2.99097 0
M  V30 1361 H 130.597 -0.0661826 -1.43848 0
M  V30 1362 H 132.55 2.23136 -3.57475 0
M  V30 1363 H 131.274 2.28533 -2.33325 0
M  V30 1364 H 129.933 0.584146 -3.61916 0
M  V30 1365 H 129.581 3.02814 -4.01637 0
M  V30 1366 H 129.281 2.08109 -5.49513 0
M  V30 1367 H 130.805 2.99691 -5.31994 0
M  V30 1368 H 132.219 0.754695 -5.68311 0
M  V30 1369 H 130.616 0.0301468 -6.00092 0
M  V30 1370 H 131.686 -0.710125 -4.79672 0
M  V30 1371 N 133.029 1.57378 -0.0835403 0
M  V30 1372 C 133.959 2.1641 0.87686 0
M  V30 1373 C 134.94 1.09429 1.30228 0
M  V30 1374 O 136.125 1.37516 1.37124 0
M  V30 1375 C 133.255 2.73517 2.14022 0
M  V30 1376 C 132.209 3.85769 1.85381 0
M  V30 1377 C 131.535 4.29529 3.18448 0
M  V30 1378 C 132.835 5.09486 1.14984 0
M  V30 1379 H 134.529 2.96914 0.385059 0
M  V30 1380 H 132.075 1.42823 0.18377 0
M  V30 1381 H 134.028 3.13463 2.81636 0
M  V30 1382 H 132.752 1.90252 2.65465 0
M  V30 1383 H 131.411 3.46345 1.20169 0
M  V30 1384 H 131.059 3.43169 3.67755 0
M  V30 1385 H 130.759 5.05204 3.00071 0
M  V30 1386 H 132.283 4.72099 3.8724 0
M  V30 1387 H 133.697 5.46674 1.72687 0
M  V30 1388 H 132.094 5.90515 1.06826 0
M  V30 1389 H 133.164 4.84724 0.130749 0
M  V30 1390 N 134.507 -0.190092 1.56449 0
M  V30 1391 C 135.923 -0.54113 1.50146 0
M  V30 1392 C 136.123 -1.85603 0.784465 0
M  V30 1393 O 135.179 -2.5024 0.337051 0
M  V30 1394 C 136.492 -0.591241 2.9483 0
M  V30 1395 C 138.04 -0.679732 3.0553 0
M  V30 1396 C 138.515 -0.760908 4.51635 0
M  V30 1397 N 140.006 -0.824302 4.55806 0
M  V30 1398 C 140.741 -0.907365 5.66175 0
M  V30 1399 N 140.237 -0.952422 6.86222 0
M  V30 1400 N 142.03 -0.94494 5.541 0
M  V30 1401 H 134.181 0.67235 2.01478 0
M  V30 1402 H 136.444 0.240127 0.917084 0
M  V30 1403 H 136.15 0.305905 3.50367 0
M  V30 1404 H 136.024 -1.44422 3.48457 0
M  V30 1405 H 138.411 -1.56731 2.50039 0
M  V30 1406 H 138.492 0.199549 2.5502 0
M  V30 1407 H 138.136 0.122336 5.07753 0
M  V30 1408 H 138.066 -1.65606 4.99882 0
M  V30 1409 H 140.557 -0.798526 3.69367 0
M  V30 1410 H 140.87 -1.01645 7.66086 0
M  V30 1411 H 139.215 -0.921014 6.8887 0
M  V30 1412 H 142.406 -0.906612 4.59236 0
M  V30 1413 H 142.579 -1.00622 6.4014 0
M  V30 1414 N 135.985 -1.50799 -0.457987 0
M  V30 1415 C 137.234 -1.6168 -1.20593 0
M  V30 1416 C 137.547 -0.32888 -1.92815 0
M  V30 1417 O 138.753 -0.316773 -2.69646 0
M  V30 1418 C 137.209 -2.8545 -2.19195 0
M  V30 1419 C 136.817 -4.21168 -1.52715 0
M  V30 1420 C 138.561 -3.05681 -2.94549 0
M  V30 1421 C 136.468 -5.3611 -2.4968 0
M  V30 1422 H 135.398 -0.602134 -0.453818 0
M  V30 1423 H 138.049 -1.77245 -0.475031 0
M  V30 1424 H 136.431 -2.63472 -2.95632 0
M  V30 1425 H 137.605 -4.53449 -0.819775 0
M  V30 1426 H 135.92 -4.06648 -0.895922 0
M  V30 1427 H 138.517 -3.88727 -3.67145 0
M  V30 1428 H 138.86 -2.17929 -3.54701 0
M  V30 1429 H 139.393 -3.27901 -2.25223 0
M  V30 1430 H 136.132 -6.26057 -1.94249 0
M  V30 1431 H 135.652 -5.0823 -3.18532 0
M  V30 1432 H 137.331 -5.6722 -3.11241 0
M  V30 1433 N 137.463 0.71206 -1.40597 0
M  V30 1434 C 138.396 1.83582 -1.35546 0
M  V30 1435 C 139.374 1.61032 -0.225284 0
M  V30 1436 O 140.558 1.83998 -0.409519 0
M  V30 1437 C 137.685 3.19983 -1.11034 0
M  V30 1438 C 136.731 3.61355 -2.2655 0
M  V30 1439 S 137.564 3.68062 -3.88961 0
M  V30 1440 C 138.72 5.07216 -3.66719 0
M  V30 1441 H 138.953 1.87586 -2.30648 0
M  V30 1442 H 136.486 0.879182 -1.26924 0
M  V30 1443 H 138.444 3.98734 -0.975761 0
M  V30 1444 H 137.105 3.13608 -0.175798 0
M  V30 1445 H 136.298 4.60403 -2.0505 0
M  V30 1446 H 135.9 2.8987 -2.36329 0
M  V30 1447 H 138.192 5.94238 -3.25404 0
M  V30 1448 H 139.135 5.33753 -4.6531 0
M  V30 1449 H 139.543 4.77976 -3.00332 0
M  V30 1450 N 138.941 1.26152 0.944643 0
M  V30 1451 C 140.357 1.03189 1.21754 0
M  V30 1452 C 140.557 -0.245112 2.00004 0
M  V30 1453 O 139.613 -0.955176 2.33736 0
M  V30 1454 C 140.926 2.26119 1.98219 0
M  V30 1455 C 142.474 2.30984 2.11224 0
M  V30 1456 C 142.949 3.53597 2.91089 0
M  V30 1457 N 144.44 3.54053 2.98664 0
M  V30 1458 C 145.175 4.45593 3.60881 0
M  V30 1459 N 144.671 5.47416 4.24626 0
M  V30 1460 N 146.464 4.33252 3.58119 0
M  V30 1461 H 138.615 2.08177 0.421437 0
M  V30 1462 H 140.878 0.914723 0.248969 0
M  V30 1463 H 140.584 3.18984 1.48128 0
M  V30 1464 H 140.458 2.3009 2.98895 0
M  V30 1465 H 142.845 1.38635 2.60508 0
M  V30 1466 H 142.926 2.31026 1.09821 0
M  V30 1467 H 142.57 4.46273 2.42493 0
M  V30 1468 H 142.5 3.50802 3.92741 0
M  V30 1469 H 144.991 2.80403 2.53343 0
M  V30 1470 H 145.304 6.13459 4.69987 0
M  V30 1471 H 143.649 5.51278 4.23223 0
M  V30 1472 H 146.84 3.52924 3.0751 0
M  V30 1473 H 147.013 5.04786 4.06319 0
M  V30 1474 N 140.419 -1.14872 1.07899 0
M  V30 1475 C 141.649 -1.89386 0.825631 0
M  V30 1476 C 142.057 -1.78565 -0.625406 0
M  V30 1477 O 141.4 -1.13918 -1.44113 0
M  V30 1478 C 141.462 -3.40206 1.16191 0
M  V30 1479 C 141.126 -3.74812 2.61467 0
M  V30 1480 C 142.123 -3.75367 3.59716 0
M  V30 1481 C 139.808 -4.0495 2.97189 0
M  V30 1482 C 141.802 -4.05574 4.9172 0
M  V30 1483 C 139.489 -4.34821 4.29388 0
M  V30 1484 C 140.487 -4.35116 5.26463 0
M  V30 1485 O 140.175 -4.64267 6.56286 0
M  V30 1486 H 139.907 -0.606894 0.297751 0
M  V30 1487 H 142.461 -1.46438 1.44031 0
M  V30 1488 H 140.691 -3.8358 0.490214 0
M  V30 1489 H 142.38 -3.96018 0.890193 0
M  V30 1490 H 143.146 -3.52176 3.33462 0
M  V30 1491 H 139.025 -4.03876 2.22273 0
M  V30 1492 H 142.569 -4.05719 5.67484 0
M  V30 1493 H 138.466 -4.5748 4.55392 0
M  V30 1494 H 139.234 -4.82007 6.61522 0
M  V30 1495 N 141.898 -0.863906 -1.31812 0
M  V30 1496 C 143.128 -0.485406 -2.00817 0
M  V30 1497 C 143.536 0.925007 -1.65046 0
M  V30 1498 O 142.879 1.61653 -0.872574 0
M  V30 1499 C 142.941 -0.555589 -3.55181 0
M  V30 1500 C 142.605 -1.92654 -4.14407 0
M  V30 1501 C 143.602 -2.89324 -4.31958 0
M  V30 1502 C 141.287 -2.2262 -4.50273 0
M  V30 1503 C 143.281 -4.14108 -4.84555 0
M  V30 1504 C 140.968 -3.47654 -5.02573 0
M  V30 1505 C 141.966 -4.43214 -5.19664 0
M  V30 1506 O 141.654 -5.66033 -5.70843 0
M  V30 1507 H 141.386 -0.188224 -0.649267 0
M  V30 1508 H 143.94 -1.16514 -1.69156 0
M  V30 1509 H 142.17 0.181037 -3.86276 0
M  V30 1510 H 143.859 -0.19138 -4.05449 0
M  V30 1511 H 144.625 -2.6748 -4.04573 0
M  V30 1512 H 140.504 -1.4902 -4.3625 0
M  V30 1513 H 144.048 -4.88703 -4.9781 0
M  V30 1514 H 139.945 -3.69345 -5.29391 0
M  V30 1515 H 140.713 -5.6812 -5.89222 0
M  V30 1516 N 143.376 1.44774 -0.622745 0
M  V30 1517 C 144.286 2.34433 0.0886031 0
M  V30 1518 C 145.302 1.52131 0.844529 0
M  V30 1519 O 146.478 1.84886 0.798691 0
M  V30 1520 C 143.543 3.29986 1.0635 0
M  V30 1521 C 142.604 4.28195 0.307873 0
M  V30 1522 C 141.837 5.19183 1.23633 0
M  V30 1523 O 142.06 5.13918 2.47476 0
M  V30 1524 O 140.994 5.97515 0.725189 0
M  V30 1525 H 144.82 2.96693 -0.648599 0
M  V30 1526 H 142.405 1.44408 -0.382957 0
M  V30 1527 H 144.287 3.88825 1.6246 0
M  V30 1528 H 142.962 2.70269 1.78146 0
M  V30 1529 H 141.869 3.72927 -0.296064 0
M  V30 1530 H 143.202 4.90808 -0.3699 0
M  V30 1531 N 144.854 0.36279 1.53368 0
M  V30 1532 C 146.27 0.0116182 1.59596 0
M  V30 1533 C 146.47 -1.47012 1.37803 0
M  V30 1534 O 145.526 -2.23136 1.18181 0
M  V30 1535 C 146.839 0.465052 2.97082 0
M  V30 1536 C 148.387 0.419033 3.10182 0
M  V30 1537 C 148.862 0.848235 4.50077 0
M  V30 1538 N 150.353 0.803183 4.56183 0
M  V30 1539 C 151.088 1.107 5.62613 0
M  V30 1540 N 150.584 1.47996 6.76808 0
M  V30 1541 N 152.377 1.02998 5.52583 0
M  V30 1542 H 144.528 1.32775 1.65785 0
M  V30 1543 H 146.791 0.542518 0.777417 0
M  V30 1544 H 146.497 1.49892 3.18159 0
M  V30 1545 H 146.371 -0.149786 3.76902 0
M  V30 1546 H 148.758 -0.605696 2.88817 0
M  V30 1547 H 148.839 1.06933 2.32377 0
M  V30 1548 H 148.483 1.87107 4.7218 0
M  V30 1549 H 148.413 0.175218 5.26308 0
M  V30 1550 H 150.904 0.52838 3.74188 0
M  V30 1551 H 151.217 1.69613 7.53957 0
M  V30 1552 H 149.562 1.51859 6.78206 0
M  V30 1553 H 152.753 0.737817 4.62249 0
M  V30 1554 H 152.926 1.2701 6.35431 0
M  V30 1555 N 146.332 -1.57332 0.0918853 0
M  V30 1556 C 147.264 -2.10869 -0.898168 0
M  V30 1557 C 148.277 -1.04521 -1.24817 0
M  V30 1558 O 149.466 -1.31977 -1.20184 0
M  V30 1559 C 146.566 -2.57083 -2.2082 0
M  V30 1560 C 145.739 -3.87229 -2.03402 0
M  V30 1561 C 144.798 -4.19324 -3.17889 0
M  V30 1562 O 143.824 -4.88598 -2.91994 0
M  V30 1563 N 145.026 -3.74471 -4.43567 0
M  V30 1564 H 147.791 -2.96439 -0.440943 0
M  V30 1565 H 145.352 -1.61631 -0.0933064 0
M  V30 1566 H 147.344 -2.75602 -2.96354 0
M  V30 1567 H 145.914 -1.76541 -2.57977 0
M  V30 1568 H 145.134 -3.7789 -1.12218 0
M  V30 1569 H 146.422 -4.72379 -1.89038 0
M  V30 1570 H 145.82 -3.18546 -4.67488 0
M  V30 1571 H 144.377 -3.98151 -5.16061 0
M  V30 1572 N 147.81 0.181792 -1.56548 0
M  V30 1573 C 148.742 1.24956 -1.92142 0
M  V30 1574 C 149.755 1.41022 -0.813422 0
M  V30 1575 O 150.944 1.41212 -1.09186 0
M  V30 1576 C 148.044 2.61981 -2.14987 0
M  V30 1577 C 147.217 2.6735 -3.46183 0
M  V30 1578 C 146.276 3.85664 -3.5798 0
M  V30 1579 O 145.302 3.72148 -4.30691 0
M  V30 1580 N 146.504 5.01683 -2.92053 0
M  V30 1581 H 149.269 0.947329 -2.84334 0
M  V30 1582 H 146.83 0.371629 -1.57577 0
M  V30 1583 H 148.822 3.3958 -2.20154 0
M  V30 1584 H 147.392 2.84637 -1.2923 0
M  V30 1585 H 146.612 1.75925 -3.52766 0
M  V30 1586 H 147.9 2.67939 -4.32534 0
M  V30 1587 H 147.298 5.15564 -2.32832 0
M  V30 1588 H 145.855 5.77181 -3.0283 0
M  V30 1589 N 149.288 1.51039 0.449983 0
M  V30 1590 C 150.513 1.6715 1.22783 0
M  V30 1591 C 150.938 0.363081 1.84563 0
M  V30 1592 O 150.296 -0.675433 1.68249 0
M  V30 1593 C 150.344 2.77985 2.29689 0
M  V30 1594 O 149.448 2.40707 3.34864 0
M  V30 1595 H 148.789 0.557746 0.360299 0
M  V30 1596 H 151.319 1.97535 0.533005 0
M  V30 1597 H 151.329 3.01693 2.74673 0
M  V30 1598 H 150.004 3.72935 1.84098 0
M  V30 1599 H 148.581 2.27523 2.95445 0
M  V30 1600 N 150.766 -0.704594 1.40972 0
M  V30 1601 C 152.043 -1.45847 1.30338 0
M  V30 1602 C 152.423 -2.10973 -0.0732344 0
M  V30 1603 O 151.771 -2.00997 -1.08685 0
M  V30 1604 C 151.981 -2.48525 2.45023 0
M  V30 1605 C 153.329 -3.1404 2.8577 0
M  V30 1606 O 154.353 -2.58848 2.44696 0
M  V30 1607 O 153.212 -4.13981 3.56766 0
M  V30 1608 H 150.306 -0.649092 0.512454 0
M  V30 1609 H 152.852 -0.735836 1.52917 0
M  V30 1610 H 151.624 -1.98994 3.36923 0
M  V30 1611 H 151.247 -3.2831 2.24272 0
M  V30 1612 N 152.244 -1.26651 -0.937939 0
M  V30 1613 C 153.174 -1.10993 -2.05433 0
M  V30 1614 C 154.155 -0.0142161 -1.70094 0
M  V30 1615 O 155.34 -0.186837 -1.93299 0
M  V30 1616 C 152.47 -0.745561 -3.39203 0
M  V30 1617 C 151.424 -1.79337 -3.88616 0
M  V30 1618 C 150.75 -1.28324 -5.19073 0
M  V30 1619 C 152.05 -3.19553 -4.13138 0
M  V30 1620 H 153.744 -2.0438 -2.1879 0
M  V30 1621 H 151.29 -0.984041 -1.05131 0
M  V30 1622 H 153.243 -0.622888 -4.16771 0
M  V30 1623 H 151.967 0.22401 -3.25831 0
M  V30 1624 H 150.626 -1.90477 -3.13231 0
M  V30 1625 H 150.274 -0.303414 -5.02084 0
M  V30 1626 H 149.974 -1.98369 -5.53103 0
M  V30 1627 H 151.498 -1.1733 -5.99221 0
M  V30 1628 H 152.912 -3.11471 -4.81309 0
M  V30 1629 H 151.309 -3.87218 -4.58457 0
M  V30 1630 H 152.379 -3.65368 -3.18801 0
M  V30 1631 N 153.722 1.14298 -1.08507 0
M  V30 1632 C 154.999 1.81544 -0.728088 0
M  V30 1633 C 155.379 1.95838 0.78808 0
M  V30 1634 O 154.727 1.51904 1.70697 0
M  V30 1635 C 154.937 3.17169 -1.45619 0
M  V30 1636 C 156.285 3.9265 -1.61591 0
M  V30 1637 O 157.309 3.26762 -1.41793 0
M  V30 1638 O 156.168 5.10807 -1.94263 0
M  V30 1639 H 153.262 0.78491 -0.260471 0
M  V30 1640 H 155.808 1.21307 -1.18671 0
M  V30 1641 H 154.58 3.01934 -2.489 0
M  V30 1642 H 154.203 3.851 -0.989124 0
M  V30 1643 N 155.201 0.870884 1.31352 0
M  V30 1644 C 156.148 0.325425 2.28494 0
M  V30 1645 C 157.118 -0.576615 1.5577 0
M  V30 1646 O 158.303 -0.508059 1.83911 0
M  V30 1647 C 155.443 -0.466283 3.41935 0
M  V30 1648 C 154.556 0.463378 4.29508 0
M  V30 1649 C 153.691 -0.342544 5.30094 0
M  V30 1650 C 152.73 0.583486 6.09313 0
M  V30 1651 N 151.867 -0.186244 7.01853 0
M  V30 1652 H 156.707 1.15901 2.74538 0
M  V30 1653 H 154.244 0.58294 1.35056 0
M  V30 1654 H 156.202 -0.941085 4.06447 0
M  V30 1655 H 154.832 -1.26456 2.97 0
M  V30 1656 H 153.884 1.05663 3.65431 0
M  V30 1657 H 155.196 1.1734 4.84802 0
M  V30 1658 H 154.35 -0.879816 6.00287 0
M  V30 1659 H 153.089 -1.08585 4.75458 0
M  V30 1660 H 152.094 1.13251 5.3801 0
M  V30 1661 H 153.319 1.32566 6.66035 0
M  V30 1662 H 151.265 -0.912348 6.49625 0
M  V30 1663 H 151.182 0.464422 7.54572 0
M  V30 1664 H 152.45 -0.704716 7.76308 0
M  V30 1665 N 156.679 -1.44442 0.630414 0
M  V30 1666 C 157.909 -2.06115 0.141465 0
M  V30 1667 C 158.317 -1.47179 -1.1889 0
M  V30 1668 O 157.66 -0.588873 -1.74006 0
M  V30 1669 C 157.722 -3.59467 -0.0484355 0
M  V30 1670 C 157.386 -4.40864 1.20366 0
M  V30 1671 C 158.383 -4.74391 2.12719 0
M  V30 1672 C 156.068 -4.8125 1.43887 0
M  V30 1673 C 158.062 -5.47186 3.26904 0
M  V30 1674 C 155.749 -5.53795 2.5837 0
M  V30 1675 C 156.747 -5.86682 3.49705 0
M  V30 1676 O 156.435 -6.57749 4.62191 0
M  V30 1677 H 156.167 -0.671648 0.0765792 0
M  V30 1678 H 158.721 -1.86312 0.864695 0
M  V30 1679 H 156.951 -3.77758 -0.826803 0
M  V30 1680 H 158.64 -4.02909 -0.491849 0
M  V30 1681 H 159.406 -4.43728 1.95781 0
M  V30 1682 H 155.285 -4.55073 0.736853 0
M  V30 1683 H 158.829 -5.72773 3.98217 0
M  V30 1684 H 154.726 -5.83872 2.75251 0
M  V30 1685 H 155.494 -6.76217 4.61164 0
M  V30 1686 N 158.157 -0.370918 -1.53173 0
M  V30 1687 C 159.406 0.218249 -2.00516 0
M  V30 1688 C 159.719 1.49429 -1.26215 0
M  V30 1689 O 160.925 2.16239 -1.64174 0
M  V30 1690 C 159.381 0.43948 -3.57207 0
M  V30 1691 C 158.989 -0.822244 -4.4039 0
M  V30 1692 C 160.733 0.986012 -4.1289 0
M  V30 1693 C 158.64 -0.570304 -5.88644 0
M  V30 1694 H 157.57 0.0853333 -0.749156 0
M  V30 1695 H 160.221 -0.490483 -1.76823 0
M  V30 1696 H 158.603 1.20961 -3.77074 0
M  V30 1697 H 159.777 -1.59557 -4.32294 0
M  V30 1698 H 158.092 -1.29238 -3.95836 0
M  V30 1699 H 160.689 1.18991 -5.21292 0
M  V30 1700 H 161.032 1.94972 -3.6782 0
M  V30 1701 H 161.565 0.27592 -3.96842 0
M  V30 1702 H 158.304 -1.50449 -6.38001 0
M  V30 1703 H 157.824 0.164427 -5.99575 0
M  V30 1704 H 159.503 -0.19784 -6.46697 0
M  V30 1705 N 159.635 1.57281 -0.100228 0
M  V30 1706 C 160.884 1.93713 0.561984 0
M  V30 1707 C 161.197 0.984492 1.69018 0
M  V30 1708 O 162.403 1.24273 2.41389 0
M  V30 1709 C 160.859 3.4421 1.05106 0
M  V30 1710 C 160.467 4.47975 -0.0476628 0
M  V30 1711 C 162.211 3.89595 1.68571 0
M  V30 1712 C 160.118 5.89631 0.457055 0
M  V30 1713 H 159.048 0.723082 0.2137 0
M  V30 1714 H 161.699 1.82644 -0.177057 0
M  V30 1715 H 160.081 3.50449 1.84395 0
M  V30 1716 H 161.255 4.53385 -0.823333 0
M  V30 1717 H 159.57 4.1223 -0.587816 0
M  V30 1718 H 162.167 4.92832 2.07414 0
M  V30 1719 H 162.51 3.28526 2.55688 0
M  V30 1720 H 163.043 3.86078 0.958562 0
M  V30 1721 H 159.782 6.54411 -0.377616 0
M  V30 1722 H 159.302 5.87681 1.19962 0
M  V30 1723 H 160.981 6.40363 0.92437 0
M  V30 1724 N 161.113 -0.173488 1.56642 0
M  V30 1725 C 162.043 -1.2171 1.99271 0
M  V30 1726 C 163.024 -1.46289 0.867959 0
M  V30 1727 O 164.209 -1.5766 1.13388 0
M  V30 1728 C 161.339 -2.55651 2.35074 0
M  V30 1729 C 160.293 -2.45645 3.50489 0
M  V30 1730 C 159.619 -3.84056 3.72028 0
M  V30 1731 C 160.919 -1.96302 4.84007 0
M  V30 1732 H 162.613 -0.86275 2.867 0
M  V30 1733 H 160.159 -0.413571 1.37933 0
M  V30 1734 H 162.112 -3.2886 2.63494 0
M  V30 1735 H 160.836 -2.92869 1.44552 0
M  V30 1736 H 159.495 -1.7489 3.22194 0
M  V30 1737 H 159.143 -4.18664 2.788 0
M  V30 1738 H 158.843 -3.7823 4.49684 0
M  V30 1739 H 160.367 -4.58854 4.02846 0
M  V30 1740 H 161.781 -2.59284 5.11317 0
M  V30 1741 H 160.178 -2.01429 5.65284 0
M  V30 1742 H 161.248 -0.917226 4.76146 0
M  V30 1743 N 162.591 -1.51276 -0.441967 0
M  V30 1744 C 163.524 -1.66933 -1.55591 0
M  V30 1745 C 164.502 -0.516958 -1.54163 0
M  V30 1746 O 165.686 -0.740209 -1.73358 0
M  V30 1747 C 162.813 -1.67866 -2.94174 0
M  V30 1748 C 161.859 -2.89013 -3.13646 0
M  V30 1749 S 162.692 -4.49897 -2.90436 0
M  V30 1750 C 163.848 -4.53568 -4.31308 0
M  V30 1751 H 164.081 -2.61155 -1.42076 0
M  V30 1752 H 161.614 -1.40902 -0.631341 0
M  V30 1753 H 163.572 -1.69089 -3.74058 0
M  V30 1754 H 162.233 -0.748296 -3.05056 0
M  V30 1755 H 161.426 -2.86054 -4.14957 0
M  V30 1756 H 161.028 -2.85509 -2.4158 0
M  V30 1757 H 163.32 -4.28924 -5.24434 0
M  V30 1758 H 164.263 -5.55355 -4.39303 0
M  V30 1759 H 164.671 -3.82943 -4.14747 0
M  V30 1760 N 164.069 0.697108 -1.41344 0
M  V30 1761 C 165.297 1.48593 -1.43972 0
M  V30 1762 C 165.712 1.88747 -0.0445612 0
M  V30 1763 O 165.069 1.56682 0.935785 0
M  V30 1764 C 165.12 2.74946 -2.34706 0
M  V30 1765 O 164.841 2.36484 -3.68791 0
M  V30 1766 C 166.342 3.687 -2.46121 0
M  V30 1767 H 163.562 0.457964 -0.490418 0
M  V30 1768 H 166.106 0.858429 -1.8561 0
M  V30 1769 H 164.261 3.33937 -1.9638 0
M  V30 1770 H 164.675 3.17918 -4.17167 0
M  V30 1771 H 166.149 4.54145 -3.13777 0
M  V30 1772 H 166.626 4.13081 -1.49199 0
M  V30 1773 H 167.232 3.15613 -2.85076 0
M  V30 1774 N 165.547 1.27147 0.931209 0
M  V30 1775 C 166.477 1.12081 2.04842 0
M  V30 1776 C 167.458 0.0232364 1.70084 0
M  V30 1777 O 168.643 0.197085 1.93197 0
M  V30 1778 C 165.773 0.76354 3.38803 0
M  V30 1779 C 164.727 1.81396 3.87659 0
M  V30 1780 C 164.053 1.31075 5.18385 0
M  V30 1781 C 165.353 3.21739 4.11438 0
M  V30 1782 H 167.047 2.05537 2.17703 0
M  V30 1783 H 164.593 0.989603 1.04608 0
M  V30 1784 H 166.546 0.644982 4.16435 0
M  V30 1785 H 165.27 -0.206727 3.25945 0
M  V30 1786 H 163.929 1.92136 3.12217 0
M  V30 1787 H 163.577 0.330037 5.01916 0
M  V30 1788 H 163.277 2.013 5.52044 0
M  V30 1789 H 164.801 1.20506 5.98591 0
M  V30 1790 H 166.215 3.14019 4.79651 0
M  V30 1791 H 164.612 3.89644 4.56397 0
M  V30 1792 H 165.682 3.67054 3.16859 0
M  V30 1793 N 167.025 -1.13721 1.09112 0
M  V30 1794 C 167.957 -2.1871 0.685467 0
M  V30 1795 C 168.97 -1.60527 -0.271068 0
M  V30 1796 O 170.159 -1.78407 -0.0576148 0
M  V30 1797 C 167.259 -3.38898 -0.0111255 0
M  V30 1798 C 166.432 -4.26597 0.966131 0
M  V30 1799 C 165.491 -5.25324 0.303539 0
M  V30 1800 O 164.517 -5.61213 0.950177 0
M  V30 1801 N 165.719 -5.72779 -0.943651 0
M  V30 1802 H 168.484 -2.54126 1.58871 0
M  V30 1803 H 166.045 -1.29012 0.978143 0
M  V30 1804 H 168.037 -4.02014 -0.465517 0
M  V30 1805 H 166.607 -3.01747 -0.816565 0
M  V30 1806 H 165.827 -3.60306 1.59917 0
M  V30 1807 H 167.115 -4.82048 1.6281 0
M  V30 1808 H 166.513 -5.45762 -1.48862 0
M  V30 1809 H 165.07 -6.37847 -1.34142 0
M  V30 1810 N 168.503 -0.877838 -1.30888 0
M  V30 1811 C 169.78 -0.413052 -1.91189 0
M  V30 1812 C 170.16 1.1056 -1.79832 0
M  V30 1813 O 169.508 1.93771 -1.21099 0
M  V30 1814 C 169.718 -0.903191 -3.3711 0
M  V30 1815 C 171.066 -0.93395 -4.14201 0
M  V30 1816 O 172.09 -0.849373 -3.45925 0
M  V30 1817 O 170.949 -1.05772 -5.36167 0
M  V30 1818 H 168.043 -0.125035 -0.817493 0
M  V30 1819 H 170.589 -0.966269 -1.39504 0
M  V30 1820 H 169.361 -1.94692 -3.39427 0
M  V30 1821 H 168.984 -0.328732 -3.96239 0
M  V30 1822 N 169.982 1.44106 -0.638065 0
M  V30 1823 C 171.398 1.56672 -0.304286 0
M  V30 1824 C 171.598 1.6244 1.19228 0
M  V30 1825 O 170.654 1.57121 1.9766 0
M  V30 1826 C 171.967 2.83503 -1.00231 0
M  V30 1827 C 173.515 2.97226 -0.981116 0
M  V30 1828 C 173.99 4.26868 -1.65974 0
M  V30 1829 N 175.481 4.33698 -1.62666 0
M  V30 1830 C 176.216 5.32745 -2.12063 0
M  V30 1831 N 175.712 6.38157 -2.6968 0
M  V30 1832 N 177.505 5.24299 -2.02651 0
M  V30 1833 H 169.656 1.38605 -1.60942 0
M  V30 1834 H 171.919 0.664661 -0.675965 0
M  V30 1835 H 171.625 2.85251 -2.0573 0
M  V30 1836 H 171.499 3.73251 -0.54439 0
M  V30 1837 H 173.886 2.95027 0.0654188 0
M  V30 1838 H 173.967 2.08808 -1.47759 0
M  V30 1839 H 173.611 4.29826 -2.70576 0
M  V30 1840 H 173.541 5.14156 -1.13804 0
M  V30 1841 H 176.032 3.58138 -1.20606 0
M  V30 1842 H 176.345 7.10029 -3.05087 0
M  V30 1843 H 174.69 6.38823 -2.73734 0
M  V30 1844 H 177.881 4.4086 -1.57353 0
M  V30 1845 H 178.054 6.01334 -2.41457 0
M  V30 1846 N 171.46 0.379036 1.52974 0
M  V30 1847 C 172.408 -0.476033 2.27677 0
M  V30 1848 C 173.402 -1.0719 1.31174 0
M  V30 1849 O 174.608 -1.01355 1.48752 0
M  V30 1850 H 170.983 -0.172255 0.732006 0
M  V30 1851 H 172.954 0.175615 2.97883 0
M  V30 1852 C 171.703 -1.5967 3.0887 0
M  V30 1853 H 171.026 -1.1475 3.82978 0
M  V30 1854 H 172.466 -2.16943 3.64296 0
M  V30 1855 C 170.925 -2.54682 2.20542 0
M  V30 1856 O 171.455 -3.57836 1.82527 0
M  V30 1857 N 169.661 -2.24183 1.84907 0
M  V30 1858 H 169.208 -1.40333 2.1602 0
M  V30 1859 H 169.166 -2.88006 1.26096 0
M  V30 1860 N 172.938 -1.57226 0.108567 0
M  V30 1861 C 173.848 -2.18292 -0.859401 0
M  V30 1862 C 174.864 -1.15612 -1.30038 0
M  V30 1863 O 176.04 -1.48039 -1.36552 0
M  V30 1864 C 173.105 -2.762 -2.09558 0
M  V30 1865 C 172.166 -3.93881 -1.70752 0
M  V30 1866 C 171.399 -4.49018 -2.88477 0
M  V30 1867 O 171.622 -4.03068 -4.036 0
M  V30 1868 O 170.556 -5.39852 -2.66164 0
M  V30 1869 H 174.382 -3.01441 -0.369769 0
M  V30 1870 H 171.967 -1.48945 -0.1165 0
M  V30 1871 H 173.849 -3.13156 -2.81978 0
M  V30 1872 H 172.524 -1.96089 -2.57548 0
M  V30 1873 H 171.431 -3.61713 -0.954714 0
M  V30 1874 H 172.764 -4.75396 -1.27513 0
M  V30 1875 N 174.416 0.165178 -1.56732 0
M  V30 1876 C 175.363 1.2044 -1.96883 0
M  V30 1877 C 176.333 1.43664 -0.833657 0
M  V30 1878 O 177.518 1.56302 -1.09427 0
M  V30 1879 C 174.658 2.53727 -2.33916 0
M  V30 1880 C 173.771 2.3783 -3.6064 0
M  V30 1881 C 172.906 3.64026 -3.86857 0
M  V30 1882 C 171.945 3.43088 -5.06909 0
M  V30 1883 N 171.082 4.61369 -5.29229 0
M  V30 1884 H 175.922 0.854996 -2.85471 0
M  V30 1885 H 173.459 0.41076 -1.41249 0
M  V30 1886 H 175.417 3.31419 -2.53411 0
M  V30 1887 H 174.047 2.8665 -1.48431 0
M  V30 1888 H 173.099 1.51282 -3.49024 0
M  V30 1889 H 174.411 2.18308 -4.4849 0
M  V30 1890 H 173.565 4.50152 -4.06753 0
M  V30 1891 H 172.304 3.86533 -2.97394 0
M  V30 1892 H 171.309 2.55349 -4.86906 0
M  V30 1893 H 172.534 3.21997 -5.97909 0
M  V30 1894 H 170.48 4.84084 -4.42718 0
M  V30 1895 H 170.397 4.44783 -6.11313 0
M  V30 1896 H 171.665 5.48761 -5.53608 0
M  V30 1897 N 175.894 1.51508 0.433938 0
M  V30 1898 C 176.824 1.76016 1.53429 0
M  V30 1899 C 177.805 0.610112 1.58782 0
M  V30 1900 O 178.99 0.853177 1.74455 0
M  V30 1901 C 176.12 1.88831 2.9148 0
M  V30 1902 C 175.074 3.04288 3.00987 0
M  V30 1903 C 174.4 3.0229 4.4105 0
M  V30 1904 C 175.7 4.44193 2.74754 0
M  V30 1905 H 177.394 2.68152 1.33171 0
M  V30 1906 H 174.94 1.29035 0.639214 0
M  V30 1907 H 176.893 2.04559 3.6842 0
M  V30 1908 H 175.617 0.933455 3.12976 0
M  V30 1909 H 174.276 2.8827 2.26486 0
M  V30 1910 H 173.924 2.04576 4.59519 0
M  V30 1911 H 173.624 3.79822 4.4834 0
M  V30 1912 H 175.148 3.20116 5.1996 0
M  V30 1913 H 176.562 4.60544 3.41426 0
M  V30 1914 H 174.959 5.23457 2.9345 0
M  V30 1915 H 176.029 4.53996 1.70339 0
M  V30 1916 N 177.372 -0.689602 1.41712 0
M  V30 1917 C 178.619 -1.44966 1.4139 0
M  V30 1918 C 178.947 -1.94484 0.025105 0
M  V30 1919 O 178.202 -1.70307 -0.964048 0
M  V30 1920 C 178.501 -2.67298 2.37247 0
M  V30 1921 C 178.167 -2.36405 3.83958 0
M  V30 1922 C 176.829 -2.27691 4.23923 0
M  V30 1923 C 179.181 -2.11043 4.76561 0
M  V30 1924 C 176.509 -1.91719 5.54492 0
M  V30 1925 C 178.861 -1.76578 6.07456 0
M  V30 1926 C 177.525 -1.66363 6.46436 0
M  V30 1927 H 176.795 -0.53047 0.517381 0
M  V30 1928 H 179.442 -0.787655 1.74552 0
M  V30 1929 H 177.747 -3.38461 1.9736 0
M  V30 1930 H 179.444 -3.25452 2.34269 0
M  V30 1931 H 176.034 -2.44085 3.52308 0
M  V30 1932 H 180.218 -2.16717 4.46483 0
M  V30 1933 H 175.474 -1.82367 5.83568 0
M  V30 1934 H 179.648 -1.55974 6.78708 0
M  V30 1935 H 177.275 -1.38258 7.47522 0
M  V30 1936 N 178.85 -1.27639 -0.924453 0
M  V30 1937 C 180.08 -1.16819 -1.70402 0
M  V30 1938 C 180.488 0.277191 -1.87158 0
M  V30 1939 O 179.831 1.20025 -1.39067 0
M  V30 1940 C 179.893 -1.78305 -3.12166 0
M  V30 1941 C 179.557 -3.27502 -3.18734 0
M  V30 1942 C 180.554 -4.2409 -3.00738 0
M  V30 1943 C 178.239 -3.68269 -3.4159 0
M  V30 1944 C 180.233 -5.59422 -3.05492 0
M  V30 1945 C 177.92 -5.0373 -3.45977 0
M  V30 1946 C 178.918 -5.99116 -3.27946 0
M  V30 1947 O 178.606 -7.32108 -3.32074 0
M  V30 1948 H 178.338 -0.406931 -0.539799 0
M  V30 1949 H 180.892 -1.69078 -1.16626 0
M  V30 1950 H 179.122 -1.20528 -3.67437 0
M  V30 1951 H 180.811 -1.62154 -3.72103 0
M  V30 1952 H 181.577 -3.93931 -2.82919 0
M  V30 1953 H 177.456 -2.94496 -3.54673 0
M  V30 1954 H 181 -6.33852 -2.91337 0
M  V30 1955 H 176.897 -5.33543 -3.63321 0
M  V30 1956 H 177.665 -7.40598 -3.48507 0
M  V30 1957 N 180.328 1.1314 -1.09713 0
M  V30 1958 C 181.744 1.36477 -0.827423 0
M  V30 1959 C 181.944 1.93654 0.556817 0
M  V30 1960 O 181 2.15791 1.31112 0
M  V30 1961 C 182.313 2.31334 -1.92106 0
M  V30 1962 C 183.861 2.44943 -1.94864 0
M  V30 1963 C 184.336 3.4311 -3.0338 0
M  V30 1964 N 185.827 3.50662 -3.02639 0
M  V30 1965 C 186.562 4.2651 -3.83246 0
M  V30 1966 N 186.058 5.05485 -4.73768 0
M  V30 1967 N 187.851 4.2184 -3.71493 0
M  V30 1968 H 180.002 0.743807 -1.9895 0
M  V30 1969 H 182.265 0.389823 -0.864143 0
M  V30 1970 H 181.971 1.96483 -2.91698 0
M  V30 1971 H 181.845 3.31381 -1.80184 0
M  V30 1972 H 184.232 2.79079 -0.959099 0
M  V30 1973 H 184.313 1.4481 -2.10864 0
M  V30 1974 H 183.957 3.09704 -4.02549 0
M  V30 1975 H 183.887 4.43055 -2.84622 0
M  V30 1976 H 186.378 2.94315 -2.37039 0
M  V30 1977 H 186.691 5.60675 -5.3185 0
M  V30 1978 H 185.036 5.04708 -4.77802 0
M  V30 1979 H 188.227 3.5922 -3.00131 0
M  V30 1980 H 188.4 4.80697 -4.3455 0
M  V30 1981 N 181.806 0.884767 1.30421 0
M  V30 1982 C 183.052 0.503851 1.96441 0
M  V30 1983 C 183.385 -0.944518 1.69684 0
M  V30 1984 O 182.66 -1.66737 1.00145 0
M  V30 1985 C 182.943 0.779085 3.51571 0
M  V30 1986 C 182.796 2.27807 3.87846 0
M  V30 1987 C 184.115 0.255452 4.39358 0
M  V30 1988 H 181.234 0.184533 0.713524 0
M  V30 1989 H 183.876 1.10872 1.54297 0
M  V30 1990 H 182.026 0.264274 3.876 0
M  V30 1991 H 183.698 2.86127 3.61841 0
M  V30 1992 H 181.941 2.74479 3.35922 0
M  V30 1993 H 182.612 2.42125 4.96064 0
M  V30 1994 H 185.088 0.696079 4.10236 0
M  V30 1995 H 183.964 0.477361 5.4682 0
M  V30 1996 H 184.225 -0.843293 4.33983 0
M  V30 1997 N 183.284 -1.43765 0.645699 0
M  V30 1998 C 184.214 -2.33471 -0.0370477 0
M  V30 1999 C 185.195 -1.49042 -0.819779 0
M  V30 2000 O 186.38 -1.77726 -0.782758 0
M  V30 2001 C 183.51 -3.32311 -1.0093 0
M  V30 2002 C 182.464 -4.2667 -0.337201 0
M  V30 2003 C 181.79 -5.1549 -1.42037 0
M  V30 2004 C 183.09 -5.16657 0.765706 0
M  V30 2005 H 184.784 -2.90809 0.712069 0
M  V30 2006 H 182.33 -1.39834 0.343876 0
M  V30 2007 H 184.283 -3.9396 -1.49578 0
M  V30 2008 H 183.007 -2.73213 -1.78948 0
M  V30 2009 H 181.666 -3.66374 0.128771 0
M  V30 2010 H 181.314 -4.52735 -2.1918 0
M  V30 2011 H 181.014 -5.79438 -0.975966 0
M  V30 2012 H 182.538 -5.80012 -1.90838 0
M  V30 2013 H 183.952 -5.72158 0.361702 0
M  V30 2014 H 182.349 -5.89286 1.13413 0
M  V30 2015 H 183.419 -4.56796 1.62683 0
M  V30 2016 N 184.763 -0.387143 -1.52771 0
M  V30 2017 C 185.991 0.195869 -2.05971 0
M  V30 2018 C 186.406 1.40691 -1.25903 0
M  V30 2019 O 185.763 1.79931 -0.305134 0
M  V30 2020 C 185.814 0.56812 -3.57008 0
M  V30 2021 O 185.535 -0.594803 -4.34043 0
M  V30 2022 C 187.036 1.20723 -4.26545 0
M  V30 2023 H 184.256 0.0300578 -0.670326 0
M  V30 2024 H 186.8 -0.551749 -1.96916 0
M  V30 2025 H 184.955 1.26564 -3.66143 0
M  V30 2026 H 185.369 -0.289322 -5.23701 0
M  V30 2027 H 186.843 1.41807 -5.33474 0
M  V30 2028 H 187.32 2.17395 -3.81623 0
M  V30 2029 H 187.926 0.550535 -4.21722 0
M  V30 2030 N 186.241 1.57166 -0.116904 0
M  V30 2031 C 187.466 1.999 0.55271 0
M  V30 2032 C 187.891 0.996039 1.59564 0
M  V30 2033 O 187.249 -0.032556 1.81271 0
M  V30 2034 C 187.297 3.4152 1.15742 0
M  V30 2035 O 186.401 3.44106 2.27299 0
M  V30 2036 H 185.742 0.649447 0.138258 0
M  V30 2037 H 188.272 2.03573 -0.204759 0
M  V30 2038 H 188.282 3.79684 1.49346 0
M  V30 2039 H 186.957 4.14034 0.393493 0
M  V30 2040 H 185.534 3.17759 1.9515 0
M  V30 2041 N 187.719 -0.156864 1.56817 0
M  V30 2042 C 188.996 -0.899244 1.73704 0
M  V30 2043 C 189.376 -1.99771 0.682254 0
M  V30 2044 O 188.724 -2.26515 -0.300522 0
M  V30 2045 C 188.934 -1.45075 3.17418 0
M  V30 2046 C 190.282 -1.91802 3.7881 0
M  V30 2047 O 191.306 -1.54838 3.20786 0
M  V30 2048 O 190.165 -2.5994 4.80722 0
M  V30 2049 H 187.259 -0.424267 0.709878 0
M  V30 2050 H 189.805 -0.143561 1.69092 0
M  V30 2051 H 188.577 -0.660846 3.85679 0
M  V30 2052 H 188.2 -2.27021 3.26416 0
M  V30 2053 N 189.197 -1.51736 -0.425897 0
M  V30 2054 C 190.443 -1.65214 -1.1761 0
M  V30 2055 C 190.776 -0.372778 -1.90589 0
M  V30 2056 O 190.051 0.628139 -1.84078 0
M  V30 2057 C 190.334 -2.86312 -2.18398 0
M  V30 2058 C 190.187 -4.24254 -1.49426 0
M  V30 2059 C 191.506 -3.02925 -3.19256 0
M  V30 2060 H 188.625 -0.601263 -0.426206 0
M  V30 2061 H 191.267 -1.8425 -0.463882 0
M  V30 2062 H 189.417 -2.70213 -2.79137 0
M  V30 2063 H 191.089 -4.52046 -0.919362 0
M  V30 2064 H 189.332 -4.26426 -0.796432 0
M  V30 2065 H 190.003 -5.05001 -2.22885 0
M  V30 2066 H 192.479 -3.1781 -2.68581 0
M  V30 2067 H 191.355 -3.89199 -3.8706 0
M  V30 2068 H 191.616 -2.15497 -3.86023 0
M  V30 2069 N 190.675 0.682077 -1.42076 0
M  V30 2070 C 191.585 1.82535 -1.47371 0
M  V30 2071 C 192.601 1.7017 -0.363079 0
M  V30 2072 O 193.777 1.91848 -0.612875 0
M  V30 2073 C 190.842 3.18624 -1.36674 0
M  V30 2074 C 189.903 3.42999 -2.58167 0
M  V30 2075 C 189.136 4.72595 -2.4797 0
M  V30 2076 O 189.359 5.50006 -1.5116 0
M  V30 2077 O 188.293 4.98054 -3.37974 0
M  V30 2078 H 192.119 1.81023 -2.43853 0
M  V30 2079 H 189.704 0.836887 -1.2376 0
M  V30 2080 H 191.586 3.99847 -1.33043 0
M  V30 2081 H 190.261 3.20789 -0.433138 0
M  V30 2082 H 189.168 2.61653 -2.67373 0
M  V30 2083 H 190.501 3.45659 -3.50401 0
M  V30 2084 N 192.153 1.28127 0.917671 0
M  V30 2085 C 193.1 1.11717 2.0196 0
M  V30 2086 C 194.07 0.0153929 1.66093 0
M  V30 2087 O 195.255 0.179596 1.89953 0
M  V30 2088 C 192.395 0.780927 3.36148 0
M  V30 2089 C 191.508 1.96135 3.84909 0
M  V30 2090 C 190.643 1.56609 5.0759 0
M  V30 2091 C 189.682 2.71339 5.48673 0
M  V30 2092 N 188.819 2.32332 6.62545 0
M  V30 2093 H 193.659 2.06003 2.15329 0
M  V30 2094 H 191.196 1.02535 1.05475 0
M  V30 2095 H 193.154 0.56675 4.13333 0
M  V30 2096 H 191.784 -0.124998 3.22558 0
M  V30 2097 H 190.836 2.28777 3.03916 0
M  V30 2098 H 192.148 2.82165 4.1132 0
M  V30 2099 H 191.302 1.31374 5.92305 0
M  V30 2100 H 190.041 0.677014 4.82978 0
M  V30 2101 H 189.046 2.97276 4.62501 0
M  V30 2102 H 190.271 3.60882 5.75274 0
M  V30 2103 H 188.217 1.45889 6.39572 0
M  V30 2104 H 188.134 3.11899 6.88662 0
M  V30 2105 H 189.402 2.10371 7.50576 0
M  V30 2106 N 193.631 -1.12557 1.10312 0
M  V30 2107 C 194.878 -1.84038 0.844759 0
M  V30 2108 C 195.206 -1.84026 -0.629668 0
M  V30 2109 O 194.461 -1.28026 -1.48013 0
M  V30 2110 C 194.76 -3.31462 1.33669 0
M  V30 2111 C 194.426 -3.51647 2.82232 0
M  V30 2112 C 193.088 -3.56864 3.22802 0
M  V30 2113 C 195.44 -3.58867 3.77974 0
M  V30 2114 C 192.768 -3.66844 4.57867 0
M  V30 2115 C 195.12 -3.70375 5.1284 0
M  V30 2116 C 193.784 -3.73848 5.52986 0
M  V30 2117 H 193.054 -0.673444 0.309119 0
M  V30 2118 H 195.701 -1.32824 1.37949 0
M  V30 2119 H 194.006 -3.85091 0.721949 0
M  V30 2120 H 195.703 -3.85236 1.11329 0
M  V30 2121 H 192.293 -3.48249 2.49842 0
M  V30 2122 H 196.477 -3.54107 3.47738 0
M  V30 2123 H 191.733 -3.67804 4.88396 0
M  V30 2124 H 195.907 -3.74904 5.86873 0
M  V30 2125 H 193.534 -3.81333 6.57639 0
M  V30 2126 N 195.109 -0.891671 -1.2995 0
M  V30 2127 C 196.042 -0.307994 -2.26112 0
M  V30 2128 C 197.02 0.575262 -1.52084 0
M  V30 2129 O 198.204 0.523864 -1.81074 0
M  V30 2130 C 195.331 0.561734 -3.34009 0
M  V30 2131 C 194.377 -0.253107 -4.25748 0
M  V30 2132 S 195.21 -1.64572 -5.09584 0
M  V30 2133 C 196.366 -0.782699 -6.20987 0
M  V30 2134 H 196.599 -1.12309 -2.75271 0
M  V30 2135 H 194.132 -0.691509 -1.38049 0
M  V30 2136 H 196.09 1.05777 -3.96638 0
M  V30 2137 H 194.751 1.35099 -2.83561 0
M  V30 2138 H 193.944 0.410908 -5.02322 0
M  V30 2139 H 193.546 -0.682004 -3.67729 0
M  V30 2140 H 195.838 -0.00257476 -6.775 0
M  V30 2141 H 196.781 -1.52026 -6.91588 0
M  V30 2142 H 197.189 -0.340638 -5.63471 0
M  V30 2143 N 196.587 1.43421 -0.653314 0
M  V30 2144 C 197.998 1.85065 -0.246537 0
M  V30 2145 C 198.349 1.54688 1.2069 0
M  V30 2146 O 197.474 0.995896 1.92122 0
M  V30 2147 C 198.069 3.35922 -0.440666 0
M  V30 2148 C 196.628 3.76297 -0.0882064 0
M  V30 2149 C 195.775 2.67147 -0.743484 0
M  V30 2150 H 198.726 1.33572 -0.856979 0
M  V30 2151 H 198.747 3.79204 0.313798 0
M  V30 2152 H 198.259 3.58 -1.49858 0
M  V30 2153 H 196.36 3.5983 0.96711 0
M  V30 2154 H 196.473 4.76338 -0.513738 0
M  V30 2155 H 194.837 2.54086 -0.176712 0
M  V30 2156 H 195.62 2.92053 -1.80443 0
M  V30 2157 N 198.065 0.39524 1.52563 0
M  V30 2158 C 199.314 -0.186321 2.00838 0
M  V30 2159 C 199.627 -1.47402 1.28577 0
M  V30 2160 O 200.833 -2.13599 1.67593 0
M  V30 2161 C 199.289 -0.382595 3.57861 0
M  V30 2162 C 198.897 0.892202 4.39026 0
M  V30 2163 C 200.641 -0.9202 4.14406 0
M  V30 2164 C 198.548 0.66388 5.87662 0
M  V30 2165 H 197.478 -0.0734041 0.750418 0
M  V30 2166 H 200.129 0.518552 1.76021 0
M  V30 2167 H 198.511 -1.14946 3.7895 0
M  V30 2168 H 199.685 1.66414 4.29701 0
M  V30 2169 H 198 1.35519 3.9373 0
M  V30 2170 H 200.597 -1.10683 5.23119 0
M  V30 2171 H 200.94 -1.89096 3.70875 0
M  V30 2172 H 201.473 -0.212751 3.97231 0
M  V30 2173 H 198.212 1.6058 6.35527 0
M  V30 2174 H 197.732 -0.0690193 5.9976 0
M  V30 2175 H 199.411 0.300699 6.46301 0
M  V30 2176 N 199.544 -1.57102 0.125237 0
M  V30 2177 C 200.79 -1.95697 -0.532035 0
M  V30 2178 C 201.123 -1.009 -1.6593 0
M  V30 2179 O 200.398 -0.047347 -1.94442 0
M  V30 2180 C 200.681 -3.44181 -1.05884 0
M  V30 2181 C 200.534 -4.49752 0.0654392 0
M  V30 2182 C 201.853 -3.94655 -1.9477 0
M  V30 2183 H 198.972 -0.711571 -0.191925 0
M  V30 2184 H 201.614 -1.88923 0.20206 0
M  V30 2185 H 199.764 -3.50085 -1.68442 0
M  V30 2186 H 201.436 -4.55943 0.700982 0
M  V30 2187 H 199.679 -4.27653 0.727709 0
M  V30 2188 H 200.35 -5.50924 -0.344505 0
M  V30 2189 H 202.826 -3.91094 -1.42074 0
M  V30 2190 H 201.702 -4.99057 -2.28546 0
M  V30 2191 H 201.963 -3.35718 -2.87656 0
M  V30 2192 N 201.022 0.148545 -1.56898 0
M  V30 2193 C 202.252 0.875118 -1.8715 0
M  V30 2194 C 202.66 1.75322 -0.711262 0
M  V30 2195 O 202.003 1.80745 0.328151 0
M  V30 2196 C 202.065 1.7844 -3.12089 0
M  V30 2197 C 201.729 1.08361 -4.43967 0
M  V30 2198 C 202.726 0.438247 -5.1805 0
M  V30 2199 C 200.411 1.07358 -4.90693 0
M  V30 2200 C 202.405 -0.20779 -6.37061 0
M  V30 2201 C 200.092 0.42373 -6.09629 0
M  V30 2202 C 201.09 -0.215829 -6.82659 0
M  V30 2203 O 200.778 -0.855378 -7.99336 0
M  V30 2204 H 200.51 0.258504 -0.624621 0
M  V30 2205 H 203.064 0.14652 -2.04877 0
M  V30 2206 H 201.294 2.55389 -2.90367 0
M  V30 2207 H 202.983 2.38279 -3.286 0
M  V30 2208 H 203.749 0.437817 -4.8302 0
M  V30 2209 H 199.628 1.5608 -4.33774 0
M  V30 2210 H 203.172 -0.70758 -6.94002 0
M  V30 2211 H 199.069 0.421822 -6.4412 0
M  V30 2212 H 199.837 -0.756892 -8.14993 0
M  V30 2213 N 202.5 1.5196 0.417844 0
M  V30 2214 C 203.728 1.69426 1.18753 0
M  V30 2215 C 204.143 0.399955 1.84515 0
M  V30 2216 O 203.5 -0.623288 1.71527 0
M  V30 2217 C 203.551 2.82375 2.25714 0
M  V30 2218 O 203.272 4.06793 1.62638 0
M  V30 2219 C 204.773 3.11277 3.15628 0
M  V30 2220 H 201.993 0.568031 0.357186 0
M  V30 2221 H 204.537 1.98475 0.49273 0
M  V30 2222 H 202.692 2.5587 2.90877 0
M  V30 2223 H 203.106 4.69667 2.3348 0
M  V30 2224 H 204.58 3.93843 3.86771 0
M  V30 2225 H 205.057 2.24473 3.77503 0
M  V30 2226 H 205.663 3.39515 2.56144 0
M  V30 2227 N 203.978 -0.674533 1.42435 0
M  V30 2228 C 205.389 -1.25514 1.38214 0
M  V30 2229 C 205.74 -1.96055 0.0755464 0
M  V30 2230 O 204.865 -2.00028 -0.8257 0
M  V30 2231 C 205.46 -2.28269 2.50357 0
M  V30 2232 C 204.019 -2.81856 2.49467 0
M  V30 2233 C 203.166 -1.56182 2.29134 0
M  V30 2234 H 206.117 -0.467902 1.51646 0
M  V30 2235 H 206.138 -3.10009 2.20624 0
M  V30 2236 H 205.65 -1.769 3.45439 0
M  V30 2237 H 203.751 -3.37346 1.58204 0
M  V30 2238 H 203.864 -3.30854 3.46515 0
M  V30 2239 H 202.228 -1.82761 1.774 0
M  V30 2240 H 203.011 -1.06778 3.26272 0
M  V30 2241 N 205.456 -1.28612 -0.910864 0
M  V30 2242 C 206.684 -1.18792 -1.69399 0
M  V30 2243 C 207.099 0.253039 -1.87097 0
M  V30 2244 O 206.456 1.17071 -1.40003 0
M  V30 2245 C 206.507 -1.88511 -3.08457 0
M  V30 2246 O 206.228 -3.26979 -2.91576 0
M  V30 2247 C 207.729 -1.85029 -4.02839 0
M  V30 2248 H 204.949 -0.412233 -0.529438 0
M  V30 2249 H 207.493 -1.69788 -1.13984 0
M  V30 2250 H 205.648 -1.41379 -3.60681 0
M  V30 2251 H 206.062 -3.61936 -3.79608 0
M  V30 2252 H 207.536 -2.38395 -4.97867 0
M  V30 2253 H 208.013 -0.823303 -4.31414 0
M  V30 2254 H 208.619 -2.31853 -3.56545 0
M  V30 2255 N 206.934 1.1197 -1.10907 0
M  V30 2256 C 208.18 1.8386 -0.855773 0
M  V30 2257 C 208.513 1.84134 0.617103 0
M  V30 2258 O 207.788 1.29041 1.45529 0
M  V30 2259 C 208.071 3.31305 -1.411 0
M  V30 2260 C 207.924 3.39456 -2.9511 0
M  V30 2261 C 209.243 4.2721 -1.05736 0
M  V30 2262 H 206.362 0.667545 -0.312334 0
M  V30 2263 H 209.004 1.31331 -1.37303 0
M  V30 2264 H 207.154 3.76169 -0.97105 0
M  V30 2265 H 208.826 3.03191 -3.47668 0
M  V30 2266 H 207.069 2.79849 -3.31462 0
M  V30 2267 H 207.74 4.43209 -3.29044 0
M  V30 2268 H 210.216 3.90497 -1.43706 0
M  V30 2269 H 209.092 5.28775 -1.47269 0
M  V30 2270 H 209.353 4.42088 0.0325958 0
M  V30 2271 N 208.412 0.89855 1.29475 0
M  V30 2272 C 209.66 0.522847 1.9522 0
M  V30 2273 C 209.981 -0.93371 1.71192 0
M  V30 2274 O 209.251 -1.65823 1.04305 0
M  V30 2275 H 207.831 0.190366 0.722336 0
M  V30 2276 H 210.493 1.14459 1.5775 0
M  V30 2277 H 209.589 0.704476 3.04045 0
M  V30 2278 N 209.89 -1.43072 0.660911 0
M  V30 2279 C 210.82 -2.33497 -0.0122829 0
M  V30 2280 C 211.801 -1.49903 -0.803925 0
M  V30 2281 O 212.986 -1.78546 -0.763864 0
M  V30 2282 C 210.116 -3.33363 -0.973994 0
M  V30 2283 C 209.07 -4.27003 -0.291928 0
M  V30 2284 C 208.396 -5.16967 -1.36562 0
M  V30 2285 C 209.696 -5.15816 0.820462 0
M  V30 2286 H 211.39 -2.90038 0.742873 0
M  V30 2287 H 208.936 -1.39461 0.358688 0
M  V30 2288 H 210.889 -3.95524 -1.45392 0
M  V30 2289 H 209.613 -2.75095 -1.7604 0
M  V30 2290 H 208.272 -3.66217 0.167623 0
M  V30 2291 H 207.92 -4.55034 -2.14366 0
M  V30 2292 H 207.62 -5.80441 -0.914454 0
M  V30 2293 H 209.144 -5.82003 -1.84675 0
M  V30 2294 H 210.558 -5.71742 0.422366 0
M  V30 2295 H 208.955 -5.8805 1.19656 0
M  V30 2296 H 210.025 -4.55045 1.67518 0
M  V30 2297 N 211.368 -0.403325 -1.52352 0
M  V30 2298 C 212.331 0.413051 -2.25447 0
M  V30 2299 C 213.331 0.978513 -1.276 0
M  V30 2300 O 214.521 0.858305 -1.51587 0
M  V30 2301 C 211.653 1.58087 -3.02029 0
M  V30 2302 H 212.846 -0.227094 -2.99039 0
M  V30 2303 H 210.399 -0.155722 -1.55522 0
M  V30 2304 H 211.134 2.25804 -2.32772 0
M  V30 2305 H 210.919 1.18195 -3.73861 0
M  V30 2306 H 212.409 2.1585 -3.57489 0
M  V30 2307 N 212.846 1.57033 -0.133567 0
M  V30 2308 C 214.086 1.97575 0.523789 0
M  V30 2309 C 214.45 1.01605 1.62912 0
M  V30 2310 O 215.651 1.3114 2.3464 0
M  V30 2311 C 213.922 3.42256 1.02935 0
M  V30 2312 S 215.481 4.04817 1.69319 0
M  V30 2313 H 212.299 0.690427 0.169799 0
M  V30 2314 H 214.901 1.94234 -0.222101 0
M  V30 2315 H 213.605 4.09842 0.213917 0
M  V30 2316 H 213.136 3.4928 1.81017 0
M  V30 2317 H 215.151 3.96767 2.97977 0
M  V30 2318 N 214.325 -0.140222 1.56975 0
M  V30 2319 C 215.257 -1.19818 1.95388 0
M  V30 2320 C 216.27 -1.38816 0.850525 0
M  V30 2321 O 217.459 -1.38267 1.12891 0
M  V30 2322 C 214.559 -2.56189 2.21857 0
M  V30 2323 C 213.732 -2.58077 3.5315 0
M  V30 2324 C 212.791 -3.76037 3.6808 0
M  V30 2325 O 211.817 -3.60598 4.40406 0
M  V30 2326 N 213.019 -4.93763 3.05251 0
M  V30 2327 H 215.784 -0.871609 2.86746 0
M  V30 2328 H 213.345 -0.32972 1.58507 0
M  V30 2329 H 215.337 -3.33623 2.2908 0
M  V30 2330 H 213.907 -2.81111 1.36731 0
M  V30 2331 H 213.127 -1.6651 3.57307 0
M  V30 2332 H 214.415 -2.56377 4.39486 0
M  V30 2333 H 213.813 -5.09209 2.46419 0
M  V30 2334 H 212.37 -5.68949 3.18026 0
M  V30 2335 N 215.803 -1.52179 -0.40978 0
M  V30 2336 C 216.753 -1.71857 -1.49831 0
M  V30 2337 C 217.737 -0.572469 -1.50372 0
M  V30 2338 O 218.929 -0.829509 -1.56359 0
M  V30 2339 C 216.058 -1.87206 -2.87765 0
M  V30 2340 C 215.144 -3.07685 -2.91875 0
M  V30 2341 N 215.535 -4.30403 -2.65683 0
M  V30 2342 C 213.833 -3.07505 -3.23043 0
M  V30 2343 C 214.534 -5.11868 -2.76344 0
M  V30 2344 N 213.51 -4.47101 -3.09195 0
M  V30 2345 H 217.312 -2.64381 -1.28375 0
M  V30 2346 H 214.826 -1.50203 -0.617479 0
M  V30 2347 H 216.823 -1.99419 -3.66111 0
M  V30 2348 H 215.483 -0.958814 -3.10221 0
M  V30 2349 H 216.494 -4.58887 -2.4009 0
M  V30 2350 H 213.171 -2.25915 -3.51096 0
M  V30 2351 H 214.561 -6.19634 -2.59814 0
M  V30 2352 N 217.281 0.66697 -1.42791 0
M  V30 2353 C 218.511 1.45294 -1.46878 0
M  V30 2354 C 218.919 1.89027 -0.0809861 0
M  V30 2355 O 218.262 1.59219 0.916246 0
M  V30 2356 C 218.324 2.72908 -2.34012 0
M  V30 2357 C 217.988 2.51203 -3.81767 0
M  V30 2358 C 218.985 2.15302 -4.73224 0
M  V30 2359 C 216.67 2.65954 -4.26115 0
M  V30 2360 C 218.664 1.94431 -6.07022 0
M  V30 2361 C 216.351 2.44699 -5.59969 0
M  V30 2362 C 217.349 2.08992 -6.5024 0
M  V30 2363 O 217.037 1.87948 -7.81621 0
M  V30 2364 H 216.769 0.453306 -0.501487 0
M  V30 2365 H 219.323 0.826232 -1.88049 0
M  V30 2366 H 217.553 3.38089 -1.87703 0
M  V30 2367 H 219.242 3.34816 -2.29462 0
M  V30 2368 H 220.008 2.03495 -4.40244 0
M  V30 2369 H 215.887 2.92724 -3.56137 0
M  V30 2370 H 219.431 1.66484 -6.77443 0
M  V30 2371 H 215.328 2.56105 -5.9252 0
M  V30 2372 H 216.096 2.02483 -7.93059 0
M  V30 2373 N 218.759 1.29093 0.90403 0
M  V30 2374 C 220.007 1.16583 1.65085 0
M  V30 2375 C 220.328 -0.283933 1.92922 0
M  V30 2376 O 219.598 -1.19509 1.55224 0
M  V30 2377 H 218.178 0.428467 0.611903 0
M  V30 2378 H 220.84 1.61959 1.08422 0
M  V30 2379 H 219.936 1.71266 2.6091 0
M  V30 2380 N 220.237 -1.11381 1.11499 0
M  V30 2381 C 221.167 -2.19509 0.796125 0
M  V30 2382 C 222.148 -1.68458 -0.235796 0
M  V30 2383 O 223.333 -1.93947 -0.0991344 0
M  V30 2384 C 220.463 -3.46475 0.239205 0
M  V30 2385 C 219.417 -4.10744 1.20307 0
M  V30 2386 C 218.743 -5.32293 0.50683 0
M  V30 2387 C 220.043 -4.55597 2.55399 0
M  V30 2388 H 221.737 -2.46439 1.70024 0
M  V30 2389 H 219.283 -1.18446 0.818935 0
M  V30 2390 H 221.236 -4.214 0.00392006 0
M  V30 2391 H 219.96 -3.19006 -0.700206 0
M  V30 2392 H 218.619 -3.37813 1.42399 0
M  V30 2393 H 218.267 -5.01095 -0.437408 0
M  V30 2394 H 217.967 -5.76243 1.1497 0
M  V30 2395 H 219.491 -6.09956 0.280351 0
M  V30 2396 H 220.905 -5.21841 2.37391 0
M  V30 2397 H 219.302 -5.10363 3.15673 0
M  V30 2398 H 220.372 -3.69013 3.14575 0
M  V30 2399 N 221.715 -0.905404 -1.28997 0
M  V30 2400 C 222.943 -0.549846 -1.9946 0
M  V30 2401 C 223.358 0.866834 -1.67724 0
M  V30 2402 O 222.715 1.57298 -0.925404 0
M  V30 2403 C 222.766 -0.739387 -3.53858 0
M  V30 2404 O 222.487 -2.10031 -3.84472 0
M  V30 2405 C 223.988 -0.389541 -4.41585 0
M  V30 2406 H 221.208 -0.210429 -0.637151 0
M  V30 2407 H 223.752 -1.21632 -1.64396 0
M  V30 2408 H 221.907 -0.120023 -3.87214 0
M  V30 2409 H 222.321 -2.13385 -4.79132 0
M  V30 2410 H 223.795 -0.572972 -5.49018 0
M  V30 2411 H 224.272 0.673756 -4.34001 0
M  V30 2412 H 224.878 -0.986089 -4.1371 0
M  V30 2413 N 223.193 1.4272 -0.668489 0
M  V30 2414 C 224.44 2.01624 -0.18814 0
M  V30 2415 C 224.768 1.5282 1.20317 0
M  V30 2416 O 224.023 0.718323 1.8204 0
M  V30 2417 C 224.322 3.57021 -0.164499 0
M  V30 2418 C 223.988 4.25232 -1.49962 0
M  V30 2419 C 222.65 4.4358 -1.8652 0
M  V30 2420 C 225.002 4.63727 -2.37921 0
M  V30 2421 C 222.33 4.97694 -3.10674 0
M  V30 2422 C 224.682 5.19218 -3.6138 0
M  V30 2423 C 223.346 5.3578 -3.98115 0
M  V30 2424 H 222.616 0.737795 -0.0688454 0
M  V30 2425 H 225.263 1.70991 -0.862225 0
M  V30 2426 H 223.568 3.87285 0.593079 0
M  V30 2427 H 225.265 4.00372 0.224271 0
M  V30 2428 H 221.855 4.11306 -1.20522 0
M  V30 2429 H 226.039 4.4923 -2.10964 0
M  V30 2430 H 221.295 5.08702 -3.39164 0
M  V30 2431 H 225.469 5.4799 -4.29743 0
M  V30 2432 H 223.096 5.77475 -4.94395 0
M  V30 2433 N 224.671 0.411399 1.52136 0
M  V30 2434 C 226.087 0.0623865 1.59478 0
M  V30 2435 C 226.287 -1.42554 1.4241 0
M  V30 2436 O 225.343 -2.19263 1.2522 0
M  V30 2437 C 226.656 0.559331 2.95452 0
M  V30 2438 C 228.204 0.517503 3.08692 0
M  V30 2439 C 228.679 0.990994 4.4715 0
M  V30 2440 N 230.17 0.947908 4.53397 0
M  V30 2441 C 230.905 1.28544 5.58806 0
M  V30 2442 N 230.401 1.69454 6.71757 0
M  V30 2443 N 232.194 1.20526 5.49026 0
M  V30 2444 H 224.345 1.37982 1.61477 0
M  V30 2445 H 226.608 0.566977 0.759764 0
M  V30 2446 H 226.314 1.59938 3.1323 0
M  V30 2447 H 226.188 -0.0298014 3.77188 0
M  V30 2448 H 228.575 -0.513505 2.90598 0
M  V30 2449 H 228.656 1.14272 2.28857 0
M  V30 2450 H 228.3 2.02034 4.65988 0
M  V30 2451 H 228.23 0.34257 5.25485 0
M  V30 2452 H 230.721 0.647157 3.72317 0
M  V30 2453 H 231.034 1.93513 7.48179 0
M  V30 2454 H 229.379 1.73359 6.73032 0
M  V30 2455 H 232.57 0.884505 4.59667 0
M  V30 2456 H 232.743 1.47161 6.31069 0
M  V30 2457 N 226.149 -1.5696 0.141893 0
M  V30 2458 C 227.565 -1.58151 -0.21456 0
M  V30 2459 C 227.765 -1.1559 -1.65049 0
M  V30 2460 O 226.821 -0.853832 -2.37626 0
M  V30 2461 C 228.134 -3.00674 0.0395576 0
M  V30 2462 C 229.682 -3.1299 -0.0245529 0
M  V30 2463 C 230.157 -4.57554 0.202167 0
M  V30 2464 N 231.648 -4.62961 0.148919 0
M  V30 2465 C 232.383 -5.7262 0.298924 0
M  V30 2466 N 231.879 -6.90947 0.50637 0
M  V30 2467 N 233.672 -5.61601 0.236886 0
M  V30 2468 H 225.823 -1.8292 1.07953 0
M  V30 2469 H 228.086 -0.846425 0.42693 0
M  V30 2470 H 227.792 -3.36183 1.03315 0
M  V30 2471 H 227.666 -3.70981 -0.682143 0
M  V30 2472 H 230.053 -2.77326 -1.00869 0
M  V30 2473 H 230.134 -2.4518 0.729396 0
M  V30 2474 H 229.778 -4.93922 1.18338 0
M  V30 2475 H 229.708 -5.23484 -0.572044 0
M  V30 2476 H 232.199 -3.77899 -0.00697015 0
M  V30 2477 H 232.512 -7.7038 0.611076 0
M  V30 2478 H 230.857 -6.92878 0.542628 0
M  V30 2479 H 234.048 -4.68039 0.0756209 0
M  V30 2480 H 234.221 -6.47015 0.357227 0
M  V30 2481 N 227.627 0.131896 -1.57047 0
M  V30 2482 C 229.038 0.690407 -1.73465 0
M  V30 2483 C 229.389 1.8094 -0.758629 0
M  V30 2484 O 228.514 2.16282 0.0713813 0
M  V30 2485 C 229.109 1.25916 -3.14532 0
M  V30 2486 C 227.668 1.76409 -3.32501 0
M  V30 2487 C 226.815 0.658579 -2.69366 0
M  V30 2488 H 229.766 -0.0939144 -1.58422 0
M  V30 2489 H 229.787 2.12892 -3.15369 0
M  V30 2490 H 229.299 0.444515 -3.85546 0
M  V30 2491 H 227.4 2.60391 -2.66509 0
M  V30 2492 H 227.513 1.88241 -4.4057 0
M  V30 2493 H 225.877 1.08899 -2.30246 0
M  V30 2494 H 226.66 -0.14487 -3.42994 0
M  V30 2495 N 229.106 1.52395 0.401703 0
M  V30 2496 C 230.522 1.41363 0.740864 0
M  V30 2497 C 230.722 0.523982 1.94568 0
M  V30 2498 O 229.778 -0.00741204 2.52499 0
M  V30 2499 C 231.091 2.84011 0.987847 0
M  V30 2500 C 232.639 2.93404 1.09011 0
M  V30 2501 C 233.114 4.37036 1.3698 0
M  V30 2502 N 234.605 4.40304 1.43829 0
M  V30 2503 C 235.34 5.48508 1.67112 0
M  V30 2504 N 234.836 6.66819 1.87949 0
M  V30 2505 N 236.629 5.36034 1.69187 0
M  V30 2506 H 228.78 2.08765 -0.391262 0
M  V30 2507 H 231.043 0.941265 -0.112798 0
M  V30 2508 H 230.749 3.51265 0.174835 0
M  V30 2509 H 230.623 3.25502 1.906 0
M  V30 2510 H 233.01 2.26325 1.8937 0
M  V30 2511 H 233.091 2.55359 0.15015 0
M  V30 2512 H 232.735 5.04676 0.571353 0
M  V30 2513 H 232.665 4.72623 2.3224 0
M  V30 2514 H 235.156 3.55024 1.29486 0
M  V30 2515 H 235.469 7.45063 2.05185 0
M  V30 2516 H 233.814 6.6987 1.85199 0
M  V30 2517 H 237.005 4.42579 1.52451 0
M  V30 2518 H 237.178 6.20434 1.86993 0
M  V30 2519 N 230.584 -0.659388 1.43143 0
M  V30 2520 C 231.832 -1.41654 1.44147 0
M  V30 2521 C 232.153 -1.94893 0.0645739 0
M  V30 2522 O 231.423 -1.74044 -0.899198 0
M  V30 2523 H 230.003 -0.525708 0.530697 0
M  V30 2524 H 232.665 -0.778097 1.78694 0
M  V30 2525 H 231.761 -2.26195 2.1504 0
M  V30 2526 N 232.062 -1.29571 -0.897171 0
M  V30 2527 C 232.992 -1.17473 -2.01798 0
M  V30 2528 C 233.973 -0.068323 -1.69963 0
M  V30 2529 O 235.158 -0.248239 -1.92607 0
M  V30 2530 C 232.288 -0.853099 -3.36659 0
M  V30 2531 C 231.242 -1.9161 -3.82713 0
M  V30 2532 C 230.568 -1.44773 -5.14728 0
M  V30 2533 C 231.868 -3.32535 -4.02763 0
M  V30 2534 H 233.562 -2.11237 -2.12177 0
M  V30 2535 H 231.108 -1.01699 -1.01948 0
M  V30 2536 H 233.061 -0.755165 -4.14578 0
M  V30 2537 H 231.785 0.120236 -3.26379 0
M  V30 2538 H 230.444 -2.00346 -3.07013 0
M  V30 2539 H 230.092 -0.462995 -5.00865 0
M  V30 2540 H 229.792 -2.15865 -5.46513 0
M  V30 2541 H 231.316 -1.36334 -5.95185 0
M  V30 2542 H 232.73 -3.26626 -4.71156 0
M  V30 2543 H 231.127 -4.01607 -4.45905 0
M  V30 2544 H 232.197 -3.75326 -3.07016 0
M  V30 2545 N 233.54 1.10788 -1.12088 0
M  V30 2546 C 234.787 1.82671 -0.873931 0
M  V30 2547 C 235.115 1.85004 0.600311 0
M  V30 2548 O 234.37 1.30365 1.45957 0
M  V30 2549 C 234.669 3.29294 -1.38926 0
M  V30 2550 C 234.335 3.47113 -2.87791 0
M  V30 2551 C 232.997 3.51684 -3.28439 0
M  V30 2552 C 235.349 3.52808 -3.83635 0
M  V30 2553 C 232.677 3.59513 -4.63646 0
M  V30 2554 C 235.029 3.62169 -5.18668 0
M  V30 2555 C 233.693 3.65003 -5.58864 0
M  V30 2556 H 232.963 0.668441 -0.319794 0
M  V30 2557 H 235.61 1.30613 -1.40045 0
M  V30 2558 H 233.915 3.83894 -0.783122 0
M  V30 2559 H 235.612 3.83416 -1.17443 0
M  V30 2560 H 232.202 3.4423 -2.5535 0
M  V30 2561 H 236.386 3.4853 -3.53328 0
M  V30 2562 H 231.642 3.59987 -4.94185 0
M  V30 2563 H 235.816 3.6552 -5.92763 0
M  V30 2564 H 233.443 3.70822 -6.63623 0
M  V30 2565 N 235.018 0.912232 1.28515 0
M  V30 2566 C 236.267 0.540504 1.94323 0
M  V30 2567 C 236.58 -0.920044 1.72611 0
M  V30 2568 O 237.786 -1.39986 2.32629 0
M  V30 2569 C 236.242 0.915803 3.48053 0
M  V30 2570 C 235.85 2.39598 3.78546 0
M  V30 2571 C 237.594 0.614588 4.20027 0
M  V30 2572 C 235.501 2.71148 5.25578 0
M  V30 2573 H 234.431 0.198418 0.727424 0
M  V30 2574 H 237.082 1.11094 1.46049 0
M  V30 2575 H 235.464 0.274168 3.9505 0
M  V30 2576 H 236.638 3.08422 3.42364 0
M  V30 2577 H 234.953 2.66749 3.1974 0
M  V30 2578 H 237.55 0.827002 5.28266 0
M  V30 2579 H 237.893 -0.447531 4.13887 0
M  V30 2580 H 238.426 1.21462 3.78803 0
M  V30 2581 H 235.165 3.76207 5.36794 0
M  V30 2582 H 234.685 2.0696 5.62963 0
M  V30 2583 H 236.364 2.58072 5.93302 0
M  V30 2584 N 236.496 -1.42363 0.676048 0
M  V30 2585 C 237.724 -2.05859 0.207268 0
M  V30 2586 C 238.139 -1.50796 -1.13605 0
M  V30 2587 O 237.496 -0.648265 -1.70598 0
M  V30 2588 C 237.547 -3.61248 0.134975 0
M  V30 2589 O 237.268 -4.1427 1.42521 0
M  V30 2590 C 238.769 -4.41859 -0.357151 0
M  V30 2591 H 235.989 -0.663431 0.100503 0
M  V30 2592 H 238.533 -1.82479 0.923136 0
M  V30 2593 H 236.688 -3.83735 -0.531588 0
M  V30 2594 H 237.102 -5.0815 1.29939 0
M  V30 2595 H 238.576 -5.50847 -0.356641 0
M  V30 2596 H 239.053 -4.16536 -1.39264 0
M  V30 2597 H 239.659 -4.24392 0.27772 0
M  V30 2598 N 237.974 -0.419461 -1.51915 0
M  V30 2599 C 239.223 0.154346 -2.01109 0
M  V30 2600 C 239.536 1.45338 -1.30905 0
M  V30 2601 O 240.742 2.10906 -1.7097 0
M  V30 2602 C 239.198 0.325615 -3.58424 0
M  V30 2603 C 238.806 -0.961934 -4.37551 0
M  V30 2604 C 240.55 0.854155 -4.15818 0
M  V30 2605 C 238.457 -0.757287 -5.86531 0
M  V30 2606 H 237.387 0.0614563 -0.751491 0
M  V30 2607 H 240.038 -0.54649 -1.75173 0
M  V30 2608 H 238.42 1.08903 -3.80731 0
M  V30 2609 H 239.594 -1.7323 -4.26999 0
M  V30 2610 H 237.909 -1.41766 -3.91524 0
M  V30 2611 H 240.506 1.02346 -5.24814 0
M  V30 2612 H 240.849 1.83172 -3.73837 0
M  V30 2613 H 241.382 0.149528 -3.97519 0
M  V30 2614 H 238.121 -1.70671 -6.32892 0
M  V30 2615 H 237.641 -0.0264061 -5.99794 0
M  V30 2616 H 239.32 -0.403482 -6.45741 0
M  V30 2617 N 239.452 1.56882 -0.150215 0
M  V30 2618 C 240.402 2.13501 0.800071 0
M  V30 2619 C 241.386 1.06368 1.20726 0
M  V30 2620 O 242.578 1.32538 1.17314 0
M  V30 2621 C 239.707 2.76271 2.03787 0
M  V30 2622 C 238.793 3.90533 1.65364 0
M  V30 2623 N 239.184 4.96259 0.977794 0
M  V30 2624 C 237.482 4.013 1.94613 0
M  V30 2625 C 238.183 5.76286 0.791794 0
M  V30 2626 N 237.159 5.27163 1.32666 0
M  V30 2627 H 240.961 2.92615 0.274517 0
M  V30 2628 H 238.475 1.62319 0.0512144 0
M  V30 2629 H 240.472 3.15197 2.72867 0
M  V30 2630 H 239.132 1.98631 2.56857 0
M  V30 2631 H 240.143 5.13953 0.638193 0
M  V30 2632 H 236.82 3.3474 2.4951 0
M  V30 2633 H 238.21 6.71401 0.258894 0
M  V30 2634 N 240.93 -0.123565 1.57115 0
M  V30 2635 C 242.207 -0.862196 1.75572 0
M  V30 2636 C 242.587 -1.98279 0.724475 0
M  V30 2637 O 241.935 -2.27102 -0.252407 0
M  V30 2638 C 242.145 -1.38309 3.20424 0
M  V30 2639 C 243.493 -1.83724 3.82793 0
M  V30 2640 O 244.517 -1.47999 3.23998 0
M  V30 2641 O 243.376 -2.49685 4.86127 0
M  V30 2642 H 240.47 -0.409113 0.718718 0
M  V30 2643 H 243.016 -0.107661 1.69358 0
M  V30 2644 H 241.788 -0.578889 3.86994 0
M  V30 2645 H 241.411 -2.20046 3.31158 0
M  V30 2646 N 242.408 -1.52605 -0.393616 0
M  V30 2647 C 243.355 -1.77055 -1.48054 0
M  V30 2648 C 244.325 -0.61358 -1.54352 0
M  V30 2649 O 245.51 -0.852806 -1.70681 0
M  V30 2650 C 242.65 -1.94108 -2.85335 0
M  V30 2651 C 241.763 -3.21792 -2.88226 0
M  V30 2652 C 240.898 -3.29188 -4.16904 0
M  V30 2653 C 239.937 -4.51013 -4.13828 0
M  V30 2654 N 239.074 -4.55716 -5.34105 0
M  V30 2655 H 243.914 -2.69815 -1.26506 0
M  V30 2656 H 241.451 -1.33683 -0.61379 0
M  V30 2657 H 243.409 -2.01979 -3.65049 0
M  V30 2658 H 242.039 -1.04713 -3.05344 0
M  V30 2659 H 241.091 -3.23015 -2.00911 0
M  V30 2660 H 242.403 -4.11557 -2.8182 0
M  V30 2661 H 241.557 -3.36216 -5.05018 0
M  V30 2662 H 240.296 -2.37389 -4.26026 0
M  V30 2663 H 239.301 -4.44115 -3.24102 0
M  V30 2664 H 240.526 -5.44123 -4.06333 0
M  V30 2665 H 238.472 -3.66807 -5.43865 0
M  V30 2666 H 238.389 -5.39346 -5.29756 0
M  V30 2667 H 239.657 -4.66993 -6.2413 0
M  V30 2668 N 243.887 0.651787 -1.4349 0
M  V30 2669 C 245.135 1.40888 -1.44897 0
M  V30 2670 C 245.456 1.94856 -0.0749086 0
M  V30 2671 O 244.726 1.74518 0.889956 0
M  V30 2672 H 243.306 0.522887 -0.533478 0
M  V30 2673 H 245.968 0.768609 -1.79104 0
M  V30 2674 H 245.064 2.25052 -2.16236 0
M  V30 2675 N 245.365 1.30045 0.890287 0
M  V30 2676 C 246.315 1.12592 1.9826 0
M  V30 2677 C 247.299 0.0426021 1.60844 0
M  V30 2678 O 248.491 0.265346 1.75 0
M  V30 2679 C 245.62 0.814301 3.33503 0
M  V30 2680 C 244.706 1.93761 3.7725 0
M  V30 2681 N 245.097 3.18232 3.93143 0
M  V30 2682 C 243.395 1.83277 4.06602 0
M  V30 2683 C 244.096 3.9158 4.30163 0
M  V30 2684 N 243.072 3.19591 4.3973 0
M  V30 2685 H 246.874 2.07003 2.08631 0
M  V30 2686 H 244.388 1.21307 1.07974 0
M  V30 2687 H 246.385 0.67029 4.11476 0
M  V30 2688 H 245.045 -0.121797 3.24471 0
M  V30 2689 H 246.056 3.53581 3.78419 0
M  V30 2690 H 242.733 0.97001 4.06075 0
M  V30 2691 H 244.123 4.98744 4.50226 0
M  V30 2692 N 246.843 -1.10192 1.12674 0
M  V30 2693 C 247.773 -2.18652 0.819362 0
M  V30 2694 C 248.754 -1.68698 -0.217915 0
M  V30 2695 O 249.939 -1.94041 -0.0785581 0
M  V30 2696 C 247.069 -3.46202 0.27594 0
M  V30 2697 C 246.023 -4.09444 1.24656 0
M  V30 2698 C 245.349 -5.31725 0.563258 0
M  V30 2699 C 246.649 -4.52863 2.60217 0
M  V30 2700 H 248.343 -2.44622 1.72628 0
M  V30 2701 H 245.889 -1.17571 0.831451 0
M  V30 2702 H 247.842 -4.21372 0.0486149 0
M  V30 2703 H 246.566 -3.1973 -0.666331 0
M  V30 2704 H 245.225 -3.36284 1.45974 0
M  V30 2705 H 244.873 -5.0153 -0.384235 0
M  V30 2706 H 244.573 -5.74991 1.21075 0
M  V30 2707 H 246.097 -6.09624 0.34503 0
M  V30 2708 H 247.511 -5.19294 2.42913 0
M  V30 2709 H 245.908 -5.06986 3.21068 0
M  V30 2710 H 246.978 -3.65656 3.18471 0
M  V30 2711 N 248.321 -0.919034 -1.28029 0
M  V30 2712 C 249.284 -0.416182 -2.2539 0
M  V30 2713 C 250.284 0.460438 -1.54067 0
M  V30 2714 O 251.474 0.262744 -1.72207 0
M  V30 2715 C 248.606 0.402707 -3.38513 0
M  V30 2716 H 249.799 -1.27629 -2.71387 0
M  V30 2717 H 247.352 -0.698919 -1.39803 0
M  V30 2718 H 248.087 1.282 -2.97885 0
M  V30 2719 H 247.872 -0.225698 -3.9145 0
M  V30 2720 H 249.362 0.745191 -4.10897 0
M  V30 2721 N 249.799 1.42003 -0.683588 0
M  V30 2722 C 251.027 2.05746 -0.218182 0
M  V30 2723 C 251.442 1.51396 1.12804 0
M  V30 2724 O 250.799 0.657303 1.70252 0
M  V30 2725 C 250.85 3.61171 -0.154131 0
M  V30 2726 O 250.571 4.13508 -1.44716 0
M  V30 2727 C 252.072 4.42042 0.333713 0
M  V30 2728 H 249.292 0.662888 -0.10402 0
M  V30 2729 H 251.836 1.81987 -0.9328 0
M  V30 2730 H 249.991 3.84012 0.511231 0
M  V30 2731 H 250.405 5.07453 -1.32632 0
M  V30 2732 H 251.879 5.51028 0.327423 0
M  V30 2733 H 252.356 4.17269 1.37053 0
M  V30 2734 H 252.962 4.24239 -0.300222 0
M  V30 2735 N 251.277 0.427512 1.51691 0
M  V30 2736 C 252.21 -0.433876 2.24037 0
M  V30 2737 C 253.188 -1.03287 1.25581 0
M  V30 2738 O 254.372 -1.07722 1.54688 0
M  V30 2739 C 251.499 -1.60385 2.98319 0
M  V30 2740 C 250.545 -1.12648 4.11355 0
M  V30 2741 S 251.378 -0.076543 5.35445 0
M  V30 2742 C 252.534 -1.25141 6.13262 0
M  V30 2743 H 252.767 0.180367 2.96752 0
M  V30 2744 H 250.3 0.211946 1.52938 0
M  V30 2745 H 252.258 -2.27462 3.41718 0
M  V30 2746 H 250.919 -2.18948 2.25213 0
M  V30 2747 H 250.112 -2.0011 4.62571 0
M  V30 2748 H 249.714 -0.534088 3.70167 0
M  V30 2749 H 252.006 -2.17162 6.41753 0
M  V30 2750 H 252.949 -0.779411 7.03797 0
M  V30 2751 H 253.357 -1.48553 5.44603 0
M  V30 2752 N 252.755 -1.56801 0.158532 0
M  V30 2753 C 253.685 -2.20347 -0.772609 0
M  V30 2754 C 254.666 -1.15518 -1.24859 0
M  V30 2755 O 255.851 -1.43902 -1.30406 0
M  V30 2756 C 252.981 -2.83417 -2.00729 0
M  V30 2757 C 251.935 -3.94174 -1.66765 0
M  V30 2758 C 251.261 -4.44233 -2.97592 0
M  V30 2759 C 252.561 -5.14392 -0.905447 0
M  V30 2760 H 254.255 -2.98413 -0.242959 0
M  V30 2761 H 251.801 -1.43537 -0.115419 0
M  V30 2762 H 253.754 -3.26543 -2.6636 0
M  V30 2763 H 252.478 -2.02701 -2.56086 0
M  V30 2764 H 251.137 -3.51684 -1.03508 0
M  V30 2765 H 250.785 -3.60325 -3.50963 0
M  V30 2766 H 250.485 -5.18945 -2.75626 0
M  V30 2767 H 252.009 -4.90037 -3.64274 0
M  V30 2768 H 253.423 -5.5429 -1.46408 0
M  V30 2769 H 251.82 -5.9494 -0.7853 0
M  V30 2770 H 252.89 -4.84795 0.100668 0
M  V30 2771 N 254.233 0.115231 -1.57178 0
M  V30 2772 C 255.181 1.16014 -2.01602 0
M  V30 2773 C 256.175 1.42653 -0.913587 0
M  V30 2774 O 257.381 1.42571 -1.09879 0
M  V30 2775 H 253.756 0.391252 -0.642204 0
M  V30 2776 H 255.727 0.758998 -2.88586 0
M  V30 2777 C 254.476 2.47767 -2.4394 0
M  V30 2778 H 253.799 2.28108 -3.28339 0
M  V30 2779 H 255.239 3.19432 -2.78818 0
M  V30 2780 C 253.698 3.10617 -1.30455 0
M  V30 2781 O 254.228 3.96846 -0.622585 0
M  V30 2782 N 252.434 2.70553 -1.06064 0
M  V30 2783 H 251.981 2.00527 -1.61699 0
M  V30 2784 H 251.939 3.12934 -0.303284 0
M  V30 2785 N 255.711 1.52812 0.385517 0
M  V30 2786 C 256.936 1.72207 1.15583 0
M  V30 2787 C 257.361 0.441034 1.82857 0
M  V30 2788 O 256.719 -0.603465 1.70962 0
M  V30 2789 C 256.767 2.87476 2.17692 0
M  V30 2790 O 255.871 2.54693 3.24354 0
M  V30 2791 H 255.212 0.572526 0.336319 0
M  V30 2792 H 257.742 1.99618 0.448744 0
M  V30 2793 H 257.752 3.13072 2.6163 0
M  V30 2794 H 256.427 3.80408 1.68115 0
M  V30 2795 H 255.004 2.3985 2.85529 0
M  V30 2796 N 257.189 -0.644168 1.43834 0
M  V30 2797 C 258.435 -1.40431 1.47141 0
M  V30 2798 C 258.79 -1.92153 0.0975577 0
M  V30 2799 O 258.083 -1.69924 -0.885232 0
M  V30 2800 C 258.277 -2.59615 2.45631 0
M  V30 2801 C 258.106 -2.1956 3.92458 0
M  V30 2802 C 256.876 -2.07456 4.60749 0
M  V30 2803 C 259.074 -1.79281 4.8204 0
M  V30 2804 N 257.056 -1.60827 5.92459 0
M  V30 2805 C 258.427 -1.43801 6.03093 0
M  V30 2806 C 260.482 -1.66545 4.6922 0
M  V30 2807 C 259.185 -0.968599 7.12749 0
M  V30 2808 C 261.211 -1.21008 5.78888 0
M  V30 2809 C 260.573 -0.864711 6.99072 0
M  V30 2810 H 256.672 -0.509182 0.593513 0
M  V30 2811 H 259.256 -0.740351 1.80075 0
M  V30 2812 H 257.427 -3.23658 2.1471 0
M  V30 2813 H 259.159 -3.26357 2.39318 0
M  V30 2814 H 255.914 -2.275 4.1538 0
M  V30 2815 H 256.338 -1.39848 6.62398 0
M  V30 2816 H 260.98 -1.91883 3.7675 0
M  V30 2817 H 258.698 -0.702715 8.05039 0
M  V30 2818 H 262.284 -1.11631 5.7099 0
M  V30 2819 H 261.164 -0.517736 7.82489 0
M  V30 2820 N 258.668 -1.30515 -0.883378 0
M  V30 2821 C 260.079 -1.17509 -1.45081 0
M  V30 2822 C 260.43 0.223605 -1.94922 0
M  V30 2823 O 259.555 1.12041 -1.85137 0
M  V30 2824 C 260.15 -2.12715 -2.63701 0
M  V30 2825 C 258.709 -2.03682 -3.16529 0
M  V30 2826 C 257.856 -2.02706 -1.89224 0
M  V30 2827 H 260.807 -1.42762 -0.693165 0
M  V30 2828 H 260.828 -1.70891 -3.39965 0
M  V30 2829 H 260.34 -3.14505 -2.27395 0
M  V30 2830 H 258.441 -1.05039 -3.57488 0
M  V30 2831 H 258.554 -2.92146 -3.7972 0
M  V30 2832 H 256.918 -1.4753 -2.07622 0
M  V30 2833 H 257.701 -3.06229 -1.55174 0
M  V30 2834 N 260.146 1.09593 -1.13257 0
M  V30 2835 C 261.056 2.19739 -0.821691 0
M  V30 2836 C 262.072 1.72926 0.19302 0
M  V30 2837 O 263.248 2.01385 0.0244895 0
M  V30 2838 C 260.313 3.45482 -0.290333 0
M  V30 2839 C 259.374 4.06985 -1.36607 0
M  V30 2840 C 258.607 5.26726 -0.859975 0
M  V30 2841 O 258.83 5.69594 0.303082 0
M  V30 2842 O 257.764 5.7931 -1.63351 0
M  V30 2843 H 261.59 2.48781 -1.74189 0
M  V30 2844 H 259.175 1.18496 -0.909894 0
M  V30 2845 H 261.057 4.214 0.000674022 0
M  V30 2846 H 259.732 3.18047 0.602306 0
M  V30 2847 H 258.639 3.32712 -1.71037 0
M  V30 2848 H 259.972 4.38643 -2.23279 0
M  V30 2849 N 261.624 0.925811 1.2754 0
M  V30 2850 C 262.901 0.483726 1.89524 0
M  V30 2851 C 263.281 -1.03809 1.83812 0
M  V30 2852 O 262.629 -1.89143 1.28207 0
M  V30 2853 C 262.839 1.02769 3.33526 0
M  V30 2854 C 264.187 1.08703 4.10449 0
M  V30 2855 O 265.211 0.977175 3.42534 0
M  V30 2856 O 264.07 1.25599 5.31871 0
M  V30 2857 H 261.164 0.15529 0.812289 0
M  V30 2858 H 263.71 1.01738 1.35822 0
M  V30 2859 H 262.482 2.07155 3.31967 0
M  V30 2860 H 262.105 0.475567 3.94746 0
M  V30 2861 N 263.102 -1.41638 0.69111 0
M  V30 2862 C 264.05 -2.32597 0.0115199 0
M  V30 2863 C 265.044 -1.5072 -0.773296 0
M  V30 2864 O 266.25 -1.66685 -0.67942 0
M  V30 2865 H 262.625 -0.751849 -0.0150746 0
M  V30 2866 H 264.596 -2.87593 0.795791 0
M  V30 2867 C 263.345 -3.35467 -0.914172 0
M  V30 2868 H 262.668 -3.9852 -0.319687 0
M  V30 2869 H 264.108 -4.01662 -1.35808 0
M  V30 2870 C 262.567 -2.69004 -2.02826 0
M  V30 2871 O 263.097 -2.53444 -3.11655 0
M  V30 2872 N 261.303 -2.2777 -1.80469 0
M  V30 2873 H 260.85 -2.40626 -0.919615 0
M  V30 2874 H 260.808 -1.83635 -2.55197 0
M  V30 2875 N 264.58 -0.43555 -1.51462 0
M  V30 2876 C 265.829 0.133007 -2.01261 0
M  V30 2877 C 266.142 1.43942 -1.32439 0
M  V30 2878 O 267.348 2.09081 -1.73198 0
M  V30 2879 C 265.804 0.287581 -3.58749 0
M  V30 2880 C 265.412 -1.00829 -4.36506 0
M  V30 2881 C 267.156 0.810004 -4.167 0
M  V30 2882 C 265.063 -0.819454 -5.85695 0
M  V30 2883 H 263.993 0.0534822 -0.752101 0
M  V30 2884 H 266.644 -0.565038 -1.74584 0
M  V30 2885 H 265.026 1.04859 -3.81865 0
M  V30 2886 H 266.2 -1.77749 -4.25138 0
M  V30 2887 H 264.515 -1.45911 -3.89999 0
M  V30 2888 H 267.112 0.967743 -5.2587 0
M  V30 2889 H 267.455 1.79196 -3.75758 0
M  V30 2890 H 267.988 0.107357 -3.97655 0
M  V30 2891 H 264.727 -1.77374 -6.31046 0
M  V30 2892 H 264.247 -0.0900208 -5.99732 0
M  V30 2893 H 265.926 -0.471949 -6.45276 0
M  V30 2894 N 266.058 1.56714 -0.166846 0
M  V30 2895 C 267.005 2.17746 0.765193 0
M  V30 2896 C 267.975 1.11614 1.23011 0
M  V30 2897 O 269.16 1.39745 1.29908 0
M  V30 2898 C 266.3 2.81882 1.9909 0
M  V30 2899 C 265.413 4.02462 1.56997 0
M  V30 2900 C 264.548 4.54537 2.749 0
M  V30 2901 C 263.587 5.67538 2.29275 0
M  V30 2902 N 262.724 6.14142 3.40255 0
M  V30 2903 H 267.564 2.97048 0.237952 0
M  V30 2904 H 265.101 1.4672 0.105725 0
M  V30 2905 H 267.059 3.17221 2.70974 0
M  V30 2906 H 265.689 2.05191 2.49192 0
M  V30 2907 H 264.741 3.72973 0.748037 0
M  V30 2908 H 266.053 4.84273 1.19503 0
M  V30 2909 H 265.207 4.92035 3.54946 0
M  V30 2910 H 263.946 3.71774 3.1565 0
M  V30 2911 H 262.951 5.29597 1.47674 0
M  V30 2912 H 264.176 6.52099 1.89588 0
M  V30 2913 H 262.122 5.3431 3.8059 0
M  V30 2914 H 262.039 6.9093 3.06841 0
M  V30 2915 H 263.307 6.56289 4.206 0
M  V30 2916 N 267.536 -0.106894 1.57237 0
M  V30 2917 C 268.499 -1.11466 2.0027 0
M  V30 2918 C 269.499 -1.33623 0.894519 0
M  V30 2919 O 270.689 -1.29935 1.16028 0
M  V30 2920 C 267.821 -2.46646 2.35327 0
M  V30 2921 H 269.014 -0.744516 2.90512 0
M  V30 2922 H 266.567 -0.351576 1.52295 0
M  V30 2923 H 267.302 -2.88558 1.48003 0
M  V30 2924 H 267.087 -2.31915 3.16161 0
M  V30 2925 H 268.577 -3.19151 2.69318 0
M  V30 2926 N 269.014 -1.53014 -0.377408 0
M  V30 2927 C 270.26 -1.68872 -1.12294 0
M  V30 2928 C 270.593 -0.433224 -1.89306 0
M  V30 2929 O 269.868 0.569258 -1.85983 0
M  V30 2930 C 270.151 -2.93115 -2.09179 0
M  V30 2931 C 270.004 -4.28794 -1.35853 0
M  V30 2932 C 271.323 -3.12928 -3.09458 0
M  V30 2933 H 268.442 -0.614518 -0.406862 0
M  V30 2934 H 271.084 -1.85633 -0.40503 0
M  V30 2935 H 269.234 -2.78956 -2.70399 0
M  V30 2936 H 270.906 -4.54742 -0.775082 0
M  V30 2937 H 269.149 -4.28744 -0.660364 0
M  V30 2938 H 269.82 -5.11837 -2.06706 0
M  V30 2939 H 272.296 -3.26194 -2.58334 0
M  V30 2940 H 271.172 -4.01316 -3.74482 0
M  V30 2941 H 271.433 -2.27669 -3.78971 0
M  V30 2942 N 270.492 0.636531 -1.44174 0
M  V30 2943 C 271.738 1.39826 -1.4689 0
M  V30 2944 C 272.071 1.93947 -0.0990585 0
M  V30 2945 O 271.346 1.73325 0.882544 0
M  V30 2946 C 271.629 2.56751 -2.5249 0
M  V30 2947 C 271.482 2.08014 -3.98811 0
M  V30 2948 C 272.801 3.58946 -2.54649 0
M  V30 2949 H 269.92 0.507075 -0.53483 0
M  V30 2950 H 272.562 0.720188 -1.75822 0
M  V30 2951 H 270.712 3.14597 -2.2795 0
M  V30 2952 H 272.384 1.5504 -4.34466 0
M  V30 2953 H 270.627 1.39242 -4.10846 0
M  V30 2954 H 271.298 2.92169 -4.68339 0
M  V30 2955 H 273.774 3.1089 -2.76563 0
M  V30 2956 H 272.65 4.38286 -3.3045 0
M  V30 2957 H 272.911 4.12655 -1.58646 0
M  V30 2958 N 271.97 1.30982 0.876444 0
M  V30 2959 C 273.216 1.20474 1.63138 0
M  V30 2960 C 273.549 -0.238096 1.92735 0
M  V30 2961 O 272.824 -1.1692 1.55435 0
M  V30 2962 C 273.107 2.04244 2.96574 0
M  V30 2963 C 272.96 3.56793 2.73896 0
M  V30 2964 C 274.279 1.88684 3.97601 0
M  V30 2965 H 271.398 0.439001 0.591985 0
M  V30 2966 H 274.04 1.60704 1.01361 0
M  V30 2967 H 272.19 1.70063 3.493 0
M  V30 2968 H 273.862 4.01077 2.27892 0
M  V30 2969 H 272.105 3.80548 2.08245 0
M  V30 2970 H 272.776 4.10706 3.68815 0
M  V30 2971 H 275.252 2.18584 3.54062 0
M  V30 2972 H 274.128 2.4961 4.88862 0
M  V30 2973 H 274.389 0.848343 4.33884 0
M  V30 2974 N 273.449 -1.08991 1.13837 0
M  V30 2975 C 274.677 -1.85011 0.926202 0
M  V30 2976 C 275.092 -1.8135 -0.525127 0
M  V30 2977 O 274.449 -1.21287 -1.36366 0
M  V30 2978 C 274.5 -3.32802 1.41155 0
M  V30 2979 O 274.221 -3.36444 2.80601 0
M  V30 2980 C 275.722 -4.25649 1.23847 0
M  V30 2981 H 272.942 -0.584249 0.32999 0
M  V30 2982 H 275.486 -1.37688 1.51202 0
M  V30 2983 H 273.641 -3.77536 0.868631 0
M  V30 2984 H 274.055 -4.28657 3.02248 0
M  V30 2985 H 275.529 -5.27485 1.62675 0
M  V30 2986 H 276.006 -4.38828 0.18065 0
M  V30 2987 H 276.612 -3.86735 1.76964 0
M  V30 2988 N 274.927 -0.932562 -1.27047 0
M  V30 2989 C 276.204 -0.49377 -1.89265 0
M  V30 2990 C 276.584 1.02833 -1.8436 0
M  V30 2991 O 275.932 1.88461 -1.29209 0
M  V30 2992 C 276.142 -1.04536 -3.32976 0
M  V30 2993 C 277.49 -1.10879 -4.09867 0
M  V30 2994 O 278.514 -0.995327 -3.42011 0
M  V30 2995 O 277.373 -1.28417 -5.31198 0
M  V30 2996 H 274.467 -0.159596 -0.811454 0
M  V30 2997 H 277.013 -1.02457 -1.3528 0
M  V30 2998 H 275.785 -2.08913 -3.30864 0
M  V30 2999 H 275.408 -0.496494 -3.94488 0
M  V30 3000 N 276.405 1.4127 -0.698611 0
M  V30 3001 C 277.653 2.00782 -0.230409 0
M  V30 3002 C 277.974 1.5562 1.17505 0
M  V30 3003 O 277.244 0.78815 1.79346 0
M  V30 3004 H 275.824 0.742464 -0.0821944 0
M  V30 3005 H 278.486 1.72852 -0.90045 0
M  V30 3006 H 277.582 3.11095 -0.25021 0
M  V30 3007 N 277.883 0.443576 1.51229 0
M  V30 3008 C 278.793 -0.370721 2.31652 0
M  V30 3009 C 279.809 -1.02186 1.40833 0
M  V30 3010 O 280.985 -1.01586 1.73903 0
M  V30 3011 C 278.05 -1.45376 3.14749 0
M  V30 3012 C 277.111 -0.822099 4.21355 0
M  V30 3013 C 276.344 -1.85353 5.0048 0
M  V30 3014 O 276.567 -3.07656 4.80316 0
M  V30 3015 O 275.501 -1.4406 5.84406 0
M  V30 3016 H 279.327 0.286002 3.0235 0
M  V30 3017 H 276.912 0.20598 1.47973 0
M  V30 3018 H 278.794 -2.08173 3.66391 0
M  V30 3019 H 277.469 -2.09445 2.46809 0
M  V30 3020 H 276.376 -0.155909 3.73775 0
M  V30 3021 H 277.709 -0.224797 4.91686 0
M  V30 3022 N 279.361 -1.56624 0.175154 0
M  V30 3023 C 280.777 -1.58571 -0.180966 0
M  V30 3024 C 280.977 -1.19065 -1.6256 0
M  V30 3025 O 280.033 -0.904044 -2.35761 0
M  V30 3026 C 281.346 -3.00522 0.103326 0
M  V30 3027 C 282.894 -3.12972 0.0418426 0
M  V30 3028 C 283.369 -4.57022 0.299175 0
M  V30 3029 N 284.86 -4.62541 0.247086 0
M  V30 3030 C 285.595 -5.71857 0.420318 0
M  V30 3031 N 285.091 -6.89717 0.652816 0
M  V30 3032 N 286.884 -5.60972 0.355957 0
M  V30 3033 H 279.035 -1.80589 1.11809 0
M  V30 3034 H 281.298 -0.837178 0.444788 0
M  V30 3035 H 281.004 -3.33916 1.10422 0
M  V30 3036 H 280.878 -3.72344 -0.603299 0
M  V30 3037 H 283.265 -2.79403 -0.949636 0
M  V30 3038 H 283.346 -2.43578 0.781238 0
M  V30 3039 H 282.99 -4.913 1.28788 0
M  V30 3040 H 282.92 -5.24579 -0.460876 0
M  V30 3041 H 285.411 -3.77829 0.0731895 0
M  V30 3042 H 285.724 -7.68911 0.774347 0
M  V30 3043 H 284.069 -6.91572 0.689476 0
M  V30 3044 H 287.26 -4.67773 0.174882 0
M  V30 3045 H 287.433 -6.46111 0.494388 0
M  V30 3046 N 280.839 0.0985539 -1.57292 0
M  V30 3047 C 282.088 0.801358 -1.85098 0
M  V30 3048 C 282.401 1.80066 -0.763902 0
M  V30 3049 O 283.607 2.55112 -0.928981 0
M  V30 3050 C 282.063 1.47599 -3.28242 0
M  V30 3051 C 281.671 0.516624 -4.45011 0
M  V30 3052 C 283.415 2.16272 -3.65276 0
M  V30 3053 C 281.322 1.19564 -5.79188 0
M  V30 3054 H 280.252 0.303022 -0.69043 0
M  V30 3055 H 282.903 0.0542623 -1.8342 0
M  V30 3056 H 281.285 2.27042 -3.2445 0
M  V30 3057 H 282.459 -0.246065 -4.60143 0
M  V30 3058 H 280.774 -0.064227 -4.1635 0
M  V30 3059 H 283.371 2.67802 -4.62803 0
M  V30 3060 H 283.714 2.95009 -2.93727 0
M  V30 3061 H 284.247 1.43693 -3.70941 0
M  V30 3062 H 280.986 0.449157 -6.53959 0
M  V30 3063 H 280.506 1.92984 -5.67906 0
M  V30 3064 H 282.185 1.7231 -6.23633 0
M  V30 3065 N 282.317 1.53212 0.369288 0
M  V30 3066 C 283.247 1.82365 1.45826 0
M  V30 3067 C 284.228 0.676907 1.56051 0
M  V30 3068 O 285.413 0.926401 1.70679 0
M  V30 3069 C 282.543 2.01023 2.83208 0
M  V30 3070 C 281.497 3.1678 2.8781 0
M  V30 3071 C 280.823 3.20724 4.27832 0
M  V30 3072 C 282.123 4.55447 2.55667 0
M  V30 3073 H 283.817 2.73559 1.21678 0
M  V30 3074 H 281.363 1.3163 0.583911 0
M  V30 3075 H 283.316 2.20001 3.59413 0
M  V30 3076 H 282.04 1.06536 3.08736 0
M  V30 3077 H 280.699 2.97616 2.14056 0
M  V30 3078 H 280.347 2.23882 4.50429 0
M  V30 3079 H 280.047 3.98496 4.31827 0
M  V30 3080 H 281.571 3.41881 5.05915 0
M  V30 3081 H 282.985 4.74611 3.21586 0
M  V30 3082 H 281.382 5.35432 2.70984 0
M  V30 3083 H 282.452 4.60812 1.5093 0
M  V30 3084 N 283.795 -0.628877 1.44509 0
M  V30 3085 C 285.043 -1.38565 1.4712 0
M  V30 3086 C 285.364 -1.94712 0.105899 0
M  V30 3087 O 284.634 -1.75912 -0.862079 0
M  V30 3088 H 283.214 -0.514333 0.541729 0
M  V30 3089 H 285.876 -0.740018 1.80305 0
M  V30 3090 H 284.972 -2.21583 2.19789 0
M  V30 3091 N 285.273 -1.31445 -0.869486 0
M  V30 3092 C 286.203 -1.21727 -1.99261 0
M  V30 3093 C 287.184 -0.104359 -1.6978 0
M  V30 3094 O 288.369 -0.289038 -1.92037 0
M  V30 3095 C 285.499 -0.924317 -3.34774 0
M  V30 3096 C 284.453 -1.99685 -3.78563 0
M  V30 3097 C 283.779 -1.55658 -5.11541 0
M  V30 3098 C 285.079 -3.41003 -3.95619 0
M  V30 3099 H 286.773 -2.1569 -2.07649 0
M  V30 3100 H 284.319 -1.03839 -0.997675 0
M  V30 3101 H 286.272 -0.842934 -4.12883 0
M  V30 3102 H 284.996 0.0509793 -3.2656 0
M  V30 3103 H 283.655 -2.06813 -3.02694 0
M  V30 3104 H 283.303 -0.569132 -4.9977 0
M  V30 3105 H 283.003 -2.27409 -5.41811 0
M  V30 3106 H 284.527 -1.48928 -5.92159 0
M  V30 3107 H 285.941 -3.36547 -4.64122 0
M  V30 3108 H 284.338 -4.10975 -4.37286 0
M  V30 3109 H 285.408 -3.81754 -2.98985 0
M  V30 3110 N 286.751 1.08385 -1.14413 0
M  V30 3111 C 287.999 1.80419 -0.910679 0
M  V30 3112 C 288.32 1.86658 0.564243 0
M  V30 3113 O 287.59 1.35985 1.41014 0
M  V30 3114 H 286.17 0.668204 -0.333934 0
M  V30 3115 H 288.832 1.31037 -1.44275 0
M  V30 3116 H 287.928 2.83238 -1.31082 0
M  V30 3117 N 288.23 0.939286 1.26551 0
M  V30 3118 C 289.507 0.5038 1.89001 0
M  V30 3119 C 289.887 -1.01854 1.84903 0
M  V30 3120 O 289.235 -1.87773 1.30206 0
M  V30 3121 C 289.445 1.063 3.32417 0
M  V30 3122 C 290.793 1.13051 4.09273 0
M  V30 3123 O 291.817 1.01345 3.41479 0
M  V30 3124 O 290.676 1.31233 5.30509 0
M  V30 3125 H 287.77 0.163897 0.810597 0
M  V30 3126 H 290.316 1.03173 1.34735 0
M  V30 3127 H 289.088 2.10665 3.29752 0
M  V30 3128 H 288.711 0.517408 3.94219 0
M  V30 3129 N 289.708 -1.40897 0.706093 0
M  V30 3130 C 290.638 -2.33418 0.0620085 0
M  V30 3131 C 291.619 -1.52385 -0.755827 0
M  V30 3132 O 292.804 -1.80886 -0.706674 0
M  V30 3133 C 289.934 -3.36293 -0.867445 0
M  V30 3134 C 288.888 -4.27716 -0.155932 0
M  V30 3135 C 288.214 -5.2105 -1.20046 0
M  V30 3136 C 289.514 -5.12944 0.984149 0
M  V30 3137 H 291.208 -2.87527 0.83477 0
M  V30 3138 H 288.754 -1.38249 0.402875 0
M  V30 3139 H 290.707 -3.99949 -1.32735 0
M  V30 3140 H 289.431 -2.80556 -1.67199 0
M  V30 3141 H 288.09 -3.65498 0.284047 0
M  V30 3142 H 287.738 -4.61624 -1.99781 0
M  V30 3143 H 287.438 -5.83056 -0.729328 0
M  V30 3144 H 288.962 -5.87584 -1.66066 0
M  V30 3145 H 290.376 -5.70109 0.604048 0
M  V30 3146 H 288.773 -5.83945 1.38304 0
M  V30 3147 H 289.843 -4.49485 1.81911 0
M  V30 3148 N 291.186 -0.45159 -1.50991 0
M  V30 3149 C 292.434 0.109857 -2.01801 0
M  V30 3150 C 292.755 1.41958 -1.3369 0
M  V30 3151 O 292.025 1.9003 -0.475951 0
M  V30 3152 H 290.605 0.0435884 -0.745727 0
M  V30 3153 H 293.267 -0.597557 -1.85514 0
M  V30 3154 H 292.363 0.275489 -3.10882 0
M  V30 3155 N 292.664 1.56529 -0.183458 0
M  V30 3156 C 293.904 1.99141 0.460667 0
M  V30 3157 C 294.268 1.06736 1.59597 0
M  V30 3158 O 295.469 1.38538 2.30349 0
M  V30 3159 C 293.74 3.45358 0.919939 0
M  V30 3160 S 295.299 4.09999 1.56354 0
M  V30 3161 H 292.117 0.695479 0.147748 0
M  V30 3162 H 294.719 1.93429 -0.283782 0
M  V30 3163 H 293.423 4.10315 0.0834208 0
M  V30 3164 H 292.954 3.54862 1.69814 0
M  V30 3165 H 294.969 4.06046 2.85203 0
M  V30 3166 N 294.142 -0.090211 1.57342 0
M  V30 3167 C 295.372 -0.805055 1.90269 0
M  V30 3168 C 295.78 -1.72561 0.775842 0
M  V30 3169 O 295.123 -1.81839 -0.260843 0
M  V30 3170 C 295.185 -1.66734 3.18497 0
M  V30 3171 C 294.849 -0.918092 4.47683 0
M  V30 3172 C 295.846 -0.245674 5.19319 0
M  V30 3173 C 293.531 -0.890724 4.94339 0
M  V30 3174 C 295.525 0.444088 6.35851 0
M  V30 3175 C 293.212 -0.197179 6.10782 0
M  V30 3176 C 294.21 0.469044 6.81388 0
M  V30 3177 O 293.898 1.15146 7.95611 0
M  V30 3178 H 293.63 -0.235143 0.633785 0
M  V30 3179 H 296.184 -0.0703805 2.05279 0
M  V30 3180 H 294.414 -2.44437 2.99646 0
M  V30 3181 H 296.103 -2.25919 3.37217 0
M  V30 3182 H 296.869 -0.258246 4.84312 0
M  V30 3183 H 292.748 -1.39873 4.39268 0
M  V30 3184 H 296.292 0.964667 6.90898 0
M  V30 3185 H 292.189 -0.18247 6.45242 0
M  V30 3186 H 292.957 1.05885 8.11622 0
M  V30 3187 N 295.62 -1.53406 -0.361157 0
M  V30 3188 C 296.868 -1.69467 -1.10115 0
M  V30 3189 C 297.189 -0.451352 -1.89705 0
M  V30 3190 O 296.459 0.534636 -1.88463 0
M  V30 3191 H 295.039 -0.624749 -0.409508 0
M  V30 3192 H 297.701 -1.90609 -0.406699 0
M  V30 3193 H 296.797 -2.55774 -1.78847 0
M  V30 3194 N 297.098 0.621204 -1.44841 0
M  V30 3195 C 298.031 1.7459 -1.46947 0
M  V30 3196 C 299.009 1.59273 -0.327238 0
M  V30 3197 O 300.193 1.81021 -0.525706 0
M  V30 3198 C 297.32 3.12274 -1.31159 0
M  V30 3199 C 296.366 3.46216 -2.49072 0
M  V30 3200 S 297.199 3.4258 -4.11581 0
M  V30 3201 C 298.355 4.82867 -3.98233 0
M  V30 3202 H 298.588 1.72538 -2.42111 0
M  V30 3203 H 296.121 0.796683 -1.32259 0
M  V30 3204 H 298.079 3.91722 -1.22737 0
M  V30 3205 H 296.74 3.11855 -0.374885 0
M  V30 3206 H 295.933 4.4643 -2.33915 0
M  V30 3207 H 295.535 2.74253 -2.54286 0
M  V30 3208 H 297.827 5.7234 -3.62537 0
M  V30 3209 H 298.77 5.0308 -4.98313 0
M  V30 3210 H 299.178 4.57908 -3.30121 0
M  V30 3211 N 298.576 1.31904 0.862503 0
M  V30 3212 C 299.824 1.21776 1.61292 0
M  V30 3213 C 300.145 -0.222413 1.93727 0
M  V30 3214 O 299.415 -1.1451 1.58947 0
M  V30 3215 H 297.995 0.447717 0.597962 0
M  V30 3216 H 300.657 1.65326 1.03215 0
M  V30 3217 H 299.753 1.7948 2.5533 0
M  V30 3218 N 300.054 -1.07777 1.14986 0
M  V30 3219 C 301.303 -1.79669 0.916617 0
M  V30 3220 C 301.616 -1.87474 -0.557917 0
M  V30 3221 O 302.822 -2.55845 -0.908617 0
M  V30 3222 C 301.278 -3.22848 1.59051 0
M  V30 3223 C 300.886 -3.23257 3.10176 0
M  V30 3224 C 302.63 -3.99379 1.43864 0
M  V30 3225 C 300.537 -4.61063 3.70372 0
M  V30 3226 H 299.467 -0.673349 0.33929 0
M  V30 3227 H 302.118 -1.21003 1.37951 0
M  V30 3228 H 300.5 -3.8168 1.0553 0
M  V30 3229 H 301.674 -2.74095 3.70417 0
M  V30 3230 H 299.989 -2.60222 3.25074 0
M  V30 3231 H 302.586 -5.0122 1.86232 0
M  V30 3232 H 302.929 -4.14511 0.385564 0
M  V30 3233 H 303.462 -3.47032 1.94457 0
M  V30 3234 H 300.201 -4.51135 4.7556 0
M  V30 3235 H 299.721 -5.1048 3.14913 0
M  V30 3236 H 301.4 -5.30034 3.71043 0
M  V30 3237 N 301.532 -0.945985 -1.26051 0
M  V30 3238 C 302.943 -0.638096 -1.75457 0
M  V30 3239 C 303.294 0.846672 -1.76991 0
M  V30 3240 O 302.419 1.66262 -1.38513 0
M  V30 3241 C 303.014 -1.15157 -3.18629 0
M  V30 3242 C 301.573 -0.894004 -3.65629 0
M  V30 3243 C 300.72 -1.29967 -2.44957 0
M  V30 3244 H 303.671 -1.12376 -1.1206 0
M  V30 3245 H 303.692 -0.507615 -3.77099 0
M  V30 3246 H 303.204 -2.23222 -3.1748 0
M  V30 3247 H 301.305 0.172057 -3.72203 0
M  V30 3248 H 301.418 -1.52439 -4.54202 0
M  V30 3249 H 299.782 -0.718078 -2.44368 0
M  V30 3250 H 300.565 -2.38935 -2.46505 0
M  V30 3251 N 303.011 1.40521 -0.713556 0
M  V30 3252 C 304.257 2.01221 -0.252564 0
M  V30 3253 C 304.59 1.56444 1.1506 0
M  V30 3254 O 303.865 0.783597 1.78017 0
M  V30 3255 C 304.148 3.58582 -0.330332 0
M  V30 3256 C 304.001 4.13437 -1.77173 0
M  V30 3257 C 305.32 4.39079 0.299641 0
M  V30 3258 H 302.439 0.731077 -0.0932471 0
M  V30 3259 H 305.081 1.67026 -0.905673 0
M  V30 3260 H 303.231 3.87844 0.225737 0
M  V30 3261 H 304.903 3.9498 -2.38303 0
M  V30 3262 H 303.146 3.67801 -2.3001 0
M  V30 3263 H 303.817 5.22597 -1.77755 0
M  V30 3264 H 306.293 4.15735 -0.174139 0
M  V30 3265 H 305.169 5.4848 0.214771 0
M  V30 3266 H 305.43 4.19915 1.38288 0
M  V30 3267 N 304.489 0.459591 1.5075 0
M  V30 3268 C 305.737 -0.0991532 2.01857 0
M  V30 3269 C 306.058 -1.41247 1.34441 0
M  V30 3270 O 305.328 -1.89775 0.486022 0
M  V30 3271 H 303.908 -0.039633 0.745948 0
M  V30 3272 H 306.57 0.607387 1.85194 0
M  V30 3273 H 305.666 -0.258998 3.11023 0
M  V30 3274 N 305.967 -1.56429 0.191757 0
M  V30 3275 C 306.914 -2.18936 -0.730454 0
M  V30 3276 C 307.884 -1.13557 -1.21219 0
M  V30 3277 O 309.069 -1.41794 -1.27668 0
M  V30 3278 C 306.209 -2.85013 -1.9458 0
M  V30 3279 C 305.322 -4.04909 -1.50574 0
M  V30 3280 C 304.457 -4.58853 -2.67634 0
M  V30 3281 C 303.496 -5.71114 -2.20217 0
M  V30 3282 N 302.633 -6.19478 -3.30442 0
M  V30 3283 H 307.473 -2.97389 -0.190664 0
M  V30 3284 H 305.01 -1.46869 -0.0823694 0
M  V30 3285 H 306.968 -3.21492 -2.65893 0
M  V30 3286 H 305.598 -2.09129 -2.45896 0
M  V30 3287 H 304.65 -3.74115 -0.688605 0
M  V30 3288 H 305.962 -4.86113 -1.11784 0
M  V30 3289 H 305.116 -4.97619 -3.47074 0
M  V30 3290 H 303.855 -3.76749 -3.09696 0
M  V30 3291 H 302.86 -5.31879 -1.3923 0
M  V30 3292 H 304.085 -6.55033 -1.79189 0
M  V30 3293 H 302.031 -5.40297 -3.72041 0
M  V30 3294 H 301.948 -6.95725 -2.9581 0
M  V30 3295 H 303.216 -6.62898 -4.10106 0
M  V30 3296 N 307.445 0.0818655 -1.57387 0
M  V30 3297 C 308.375 1.09885 -2.06028 0
M  V30 3298 C 309.356 1.4098 -0.951774 0
M  V30 3299 O 310.541 1.50781 -1.22387 0
M  V30 3300 C 307.671 2.4151 -2.4958 0
M  V30 3301 C 306.625 2.24792 -3.64215 0
M  V30 3302 C 305.951 3.61712 -3.93787 0
M  V30 3303 C 307.251 1.67749 -4.94629 0
M  V30 3304 H 308.945 0.694128 -2.91243 0
M  V30 3305 H 306.491 0.332448 -1.4011 0
M  V30 3306 H 308.444 3.12939 -2.82219 0
M  V30 3307 H 307.168 2.83943 -1.61381 0
M  V30 3308 H 305.827 1.55807 -3.31843 0
M  V30 3309 H 305.475 4.01697 -3.02735 0
M  V30 3310 H 305.175 3.51368 -4.70971 0
M  V30 3311 H 306.699 4.34587 -4.28913 0
M  V30 3312 H 308.113 2.29032 -5.25564 0
M  V30 3313 H 306.51 1.68128 -5.76067 0
M  V30 3314 H 307.58 0.638059 -4.80684 0
M  V30 3315 N 308.923 1.53595 0.353017 0
M  V30 3316 C 309.886 1.80232 1.41594 0
M  V30 3317 C 310.886 0.673081 1.46035 0
M  V30 3318 O 312.076 0.941335 1.46576 0
M  V30 3319 C 309.208 1.93578 2.80607 0
M  V30 3320 H 310.401 2.75174 1.19244 0
M  V30 3321 H 307.954 1.44864 0.586872 0
M  V30 3322 H 308.689 1.00746 3.08254 0
M  V30 3323 H 308.474 2.75724 2.78781 0
M  V30 3324 H 309.964 2.15735 3.57558 0
M  V30 3325 N 310.401 -0.613514 1.45168 0
M  V30 3326 C 311.331 -1.7354 1.56225 0
M  V30 3327 C 312.312 -1.64981 0.41414 0
M  V30 3328 O 313.497 -1.83472 0.636526 0
M  V30 3329 C 310.627 -3.12128 1.52295 0
M  V30 3330 C 309.581 -3.35491 2.65762 0
M  V30 3331 C 308.907 -4.74291 2.46885 0
M  V30 3332 C 310.207 -3.26325 4.0781 0
M  V30 3333 H 311.901 -1.64543 2.50132 0
M  V30 3334 H 309.447 -0.790185 1.20383 0
M  V30 3335 H 311.4 -3.90404 1.58628 0
M  V30 3336 H 310.124 -3.2195 0.549139 0
M  V30 3337 H 308.783 -2.59603 2.58847 0
M  V30 3338 H 308.431 -4.80839 1.47657 0
M  V30 3339 H 308.131 -4.9088 3.22972 0
M  V30 3340 H 309.655 -5.54775 2.55063 0
M  V30 3341 H 311.069 -3.94483 4.16 0
M  V30 3342 H 309.466 -3.54445 4.8424 0
M  V30 3343 H 310.536 -2.23855 4.30136 0
M  V30 3344 N 311.879 -1.3236 -0.855495 0
M  V30 3345 C 313.109 -1.25688 -1.6397 0
M  V30 3346 C 313.517 0.177592 -1.88365 0
M  V30 3347 O 312.86 1.12485 -1.45234 0
M  V30 3348 C 312.922 -1.94602 -3.02275 0
M  V30 3349 C 312.586 -3.43937 -3.00926 0
M  V30 3350 C 313.583 -4.39435 -2.77835 0
M  V30 3351 C 311.268 -3.85858 -3.21588 0
M  V30 3352 C 313.262 -5.74829 -2.75409 0
M  V30 3353 C 310.949 -5.21361 -3.18789 0
M  V30 3354 C 311.947 -6.15658 -2.95727 0
M  V30 3355 O 311.635 -7.48681 -2.928 0
M  V30 3356 H 311.367 -0.434972 -0.51747 0
M  V30 3357 H 313.921 -1.75023 -1.075 0
M  V30 3358 H 312.151 -1.39836 -3.60531 0
M  V30 3359 H 313.84 -1.81651 -3.62985 0
M  V30 3360 H 314.606 -4.08374 -2.6164 0
M  V30 3361 H 310.485 -3.12883 -3.38564 0
M  V30 3362 H 314.029 -6.48404 -2.57328 0
M  V30 3363 H 309.926 -5.52052 -3.34528 0
M  V30 3364 H 310.694 -7.5803 -3.0876 0
M  V30 3365 N 313.357 1.07166 -1.15556 0
M  V30 3366 C 314.585 1.83514 -0.955519 0
M  V30 3367 C 315 1.82163 0.49621 0
M  V30 3368 O 314.357 1.23441 1.34419 0
M  V30 3369 C 314.408 3.30515 -1.46432 0
M  V30 3370 O 314.129 3.31937 -2.85918 0
M  V30 3371 C 315.63 4.23625 -1.30603 0
M  V30 3372 H 312.85 0.578926 -0.339244 0
M  V30 3373 H 315.394 1.35265 -1.53374 0
M  V30 3374 H 313.549 3.76106 -0.928584 0
M  V30 3375 H 313.963 4.23794 -3.09029 0
M  V30 3376 H 315.437 5.24831 -1.71047 0
M  V30 3377 H 315.914 4.38485 -0.250441 0
M  V30 3378 H 316.52 3.83871 -1.83094 0
M  V30 3379 N 314.835 0.952656 1.25548 0
M  V30 3380 C 315.798 0.475794 2.24207 0
M  V30 3381 C 316.798 -0.419428 1.55234 0
M  V30 3382 O 317.988 -0.216994 1.72843 0
M  V30 3383 C 315.12 -0.312814 3.39462 0
M  V30 3384 H 316.313 1.34779 2.67908 0
M  V30 3385 H 313.866 0.735739 1.37901 0
M  V30 3386 H 314.601 -1.20257 3.01179 0
M  V30 3387 H 314.386 0.329404 3.90714 0
M  V30 3388 H 315.876 -0.635986 4.12729 0
M  V30 3389 N 316.313 -1.40141 0.720998 0
M  V30 3390 C 317.553 -2.02644 0.267335 0
M  V30 3391 C 317.917 -1.55948 -1.12001 0
M  V30 3392 O 319.118 -2.10552 -1.67097 0
M  V30 3393 C 317.389 -3.55679 0.350281 0
M  V30 3394 S 318.948 -4.38793 -0.0256004 0
M  V30 3395 H 315.766 -0.703105 0.105664 0
M  V30 3396 H 318.368 -1.71175 0.944416 0
M  V30 3397 H 317.072 -3.87157 1.36153 0
M  V30 3398 H 316.603 -3.91883 -0.345096 0
M  V30 3399 H 318.618 -4.803 -1.24604 0
M  V30 3400 N 317.792 -0.46758 -1.50504 0
M  V30 3401 C 319.04 0.0884469 -2.01906 0
M  V30 3402 C 319.361 1.40532 -1.35188 0
M  V30 3403 O 318.631 1.89515 -0.496079 0
M  V30 3404 H 317.211 0.0356765 -0.746148 0
M  V30 3405 H 319.873 -0.6172 -1.84869 0
M  V30 3406 H 318.969 0.2425 -3.11156 0
M  V30 3407 N 319.27 1.56325 -0.20005 0
M  V30 3408 C 320.518 1.97329 0.436547 0
M  V30 3409 C 320.839 1.08826 1.61808 0
M  V30 3410 O 320.109 0.160604 1.95241 0
M  V30 3411 H 318.689 0.728714 0.164272 0
M  V30 3412 H 321.351 1.92761 -0.287937 0
M  V30 3413 H 320.447 3.02264 0.777353 0
M  V30 3414 N 320.748 -0.0735177 1.57428 0
M  V30 3415 C 321.994 -0.774145 1.87443 0
M  V30 3416 C 322.327 -1.77311 0.792103 0
M  V30 3417 O 321.602 -1.93492 -0.197793 0
M  V30 3418 C 321.885 -1.48367 3.28115 0
M  V30 3419 C 321.738 -0.501227 4.46999 0
M  V30 3420 C 323.057 -2.429 3.66998 0
M  V30 3421 H 320.176 -0.279971 0.681752 0
M  V30 3422 H 322.818 -0.0373616 1.89963 0
M  V30 3423 H 320.968 -2.11171 3.26097 0
M  V30 3424 H 322.64 0.121468 4.6114 0
M  V30 3425 H 320.883 0.183593 4.33411 0
M  V30 3426 H 321.554 -1.03526 5.42205 0
M  V30 3427 H 324.03 -1.90175 3.70098 0
M  V30 3428 H 322.906 -2.89549 4.66318 0
M  V30 3429 H 323.167 -3.27628 2.96837 0
M  V30 3430 N 322.226 -1.5378 -0.344866 0
M  V30 3431 C 323.174 -1.82373 -1.4437 0
M  V30 3432 C 324.168 -0.694128 -1.54526 0
M  V30 3433 O 325.374 -0.877442 -1.57165 0
M  V30 3434 H 321.749 -0.577765 -0.481344 0
M  V30 3435 H 323.72 -2.74306 -1.17468 0
M  V30 3436 C 322.469 -2.04898 -2.80913 0
M  V30 3437 H 321.792 -2.9127 -2.73865 0
M  V30 3438 H 323.232 -2.28871 -3.56923 0
M  V30 3439 C 321.691 -0.834116 -3.26411 0
M  V30 3440 O 322.221 -0.0328885 -4.01687 0
M  V30 3441 N 320.427 -0.65171 -2.83198 0
M  V30 3442 H 319.974 -1.30489 -2.22104 0
M  V30 3443 H 319.932 0.159686 -3.13994 0
M  V30 3444 N 323.704 0.605807 -1.45491 0
M  V30 3445 C 325.115 1.18777 -1.44045 0
M  V30 3446 C 325.466 1.95471 -0.169001 0
M  V30 3447 O 324.591 2.0374 0.729324 0
M  V30 3448 C 325.186 2.16064 -2.60963 0
M  V30 3449 C 323.745 2.69633 -2.62631 0
M  V30 3450 C 322.892 1.45072 -2.36325 0
M  V30 3451 H 325.843 0.395017 -1.53705 0
M  V30 3452 H 325.864 2.9913 -2.35163 0
M  V30 3453 H 325.376 1.60217 -3.53486 0
M  V30 3454 H 323.477 3.29414 -1.74119 0
M  V30 3455 H 323.59 3.13944 -3.61906 0
M  V30 3456 H 321.954 1.74089 -1.85917 0
M  V30 3457 H 322.737 0.910899 -3.30995 0
M  V30 3458 N 325.182 1.32811 0.848464 0
M  V30 3459 C 326.114 1.18095 1.96433 0
M  V30 3460 C 327.127 0.114354 1.62398 0
M  V30 3461 O 328.316 0.363892 1.74751 0
M  V30 3462 C 325.416 0.786798 3.2964 0
M  V30 3463 C 324.589 1.943 3.91875 0
M  V30 3464 C 323.648 1.53138 5.03423 0
M  V30 3465 O 322.674 2.24432 5.23086 0
M  V30 3466 N 323.876 0.430915 5.78898 0
M  V30 3467 H 326.641 2.14218 2.09597 0
M  V30 3468 H 324.202 1.2543 1.02367 0
M  V30 3469 H 326.194 0.493715 4.01677 0
M  V30 3470 H 324.764 -0.0834541 3.12489 0
M  V30 3471 H 323.984 2.40224 3.12547 0
M  V30 3472 H 325.272 2.71689 4.30189 0
M  V30 3473 H 324.67 -0.162333 5.65467 0
M  V30 3474 H 323.227 0.197466 6.51501 0
M  V30 3475 N 326.66 -1.06551 1.16123 0
M  V30 3476 C 327.592 -2.13908 0.823171 0
M  V30 3477 C 328.605 -1.61926 -0.16843 0
M  V30 3478 O 329.794 -1.78412 0.055962 0
M  V30 3479 C 326.894 -3.38283 0.204424 0
M  V30 3480 C 326.067 -4.19589 1.23548 0
M  V30 3481 C 325.126 -5.2233 0.637011 0
M  V30 3482 O 324.152 -5.54034 1.30516 0
M  V30 3483 N 325.354 -5.77621 -0.577474 0
M  V30 3484 H 328.119 -2.43508 1.74711 0
M  V30 3485 H 325.68 -1.2253 1.05821 0
M  V30 3486 H 327.672 -4.0416 -0.208909 0
M  V30 3487 H 326.242 -3.06329 -0.623012 0
M  V30 3488 H 325.462 -3.49406 1.82507 0
M  V30 3489 H 326.75 -4.70718 1.93137 0
M  V30 3490 H 326.148 -5.54125 -1.13853 0
M  V30 3491 H 324.705 -6.45087 -0.933053 0
M  V30 3492 N 328.138 -0.959301 -1.25041 0
M  V30 3493 C 329.378 -0.624343 -1.94631 0
M  V30 3494 C 329.742 0.82403 -1.73418 0
M  V30 3495 O 330.943 1.26881 -2.3697 0
M  V30 3496 C 329.214 -0.978805 -3.43736 0
M  V30 3497 S 330.773 -0.757127 -4.32219 0
M  V30 3498 H 327.591 -0.229327 -0.673001 0
M  V30 3499 H 330.193 -1.23447 -1.51595 0
M  V30 3500 H 328.897 -2.02997 -3.56679 0
M  V30 3501 H 328.428 -0.359117 -3.91757 0
M  V30 3502 H 330.443 0.369759 -4.9482 0
M  V30 3503 N 329.616 1.39756 -0.72842 0
M  V30 3504 C 330.546 2.33289 -0.0991354 0
M  V30 3505 C 331.527 1.53568 0.731489 0
M  V30 3506 O 332.712 1.81987 0.677807 0
M  V30 3507 C 329.842 3.3763 0.813834 0
M  V30 3508 C 328.796 4.2791 0.0878663 0
M  V30 3509 C 328.122 5.22894 1.11741 0
M  V30 3510 C 329.422 5.11314 -1.06563 0
M  V30 3511 H 331.116 2.86163 -0.880408 0
M  V30 3512 H 328.662 1.37591 -0.424819 0
M  V30 3513 H 330.615 4.0201 1.26355 0
M  V30 3514 H 329.339 2.83181 1.62715 0
M  V30 3515 H 327.998 3.65 -0.342159 0
M  V30 3516 H 327.646 4.64744 1.92412 0
M  V30 3517 H 327.346 5.84143 0.636477 0
M  V30 3518 H 328.87 5.90151 1.56697 0
M  V30 3519 H 330.284 5.69076 -0.694671 0
M  V30 3520 H 328.681 5.81671 -1.47577 0
M  V30 3521 H 329.751 4.46534 -1.89038 0
M  V30 3522 N 331.094 0.475555 1.50254 0
M  V30 3523 C 332.505 0.0215174 1.86688 0
M  V30 3524 C 332.856 -1.38467 1.39001 0
M  V30 3525 O 331.981 -2.02732 0.756894 0
M  V30 3526 C 332.576 0.0322715 3.38785 0
M  V30 3527 C 331.135 -0.366314 3.74613 0
M  V30 3528 C 330.282 0.415832 2.74164 0
M  V30 3529 H 333.233 0.689612 1.42934 0
M  V30 3530 H 333.254 -0.76889 3.7265 0
M  V30 3531 H 332.766 1.05584 3.73462 0
M  V30 3532 H 330.867 -1.39406 3.45538 0
M  V30 3533 H 330.98 -0.064555 4.79057 0
M  V30 3534 H 329.344 -0.131048 2.54363 0
M  V30 3535 H 330.127 1.43899 3.11686 0
M  V30 3536 N 332.573 -1.56217 0.208337 0
M  V30 3537 C 333.819 -1.98242 -0.427552 0
M  V30 3538 C 334.152 -1.09554 -1.60348 0
M  V30 3539 O 333.427 -0.15035 -1.93918 0
M  V30 3540 C 333.71 -3.4931 -0.874907 0
M  V30 3541 C 333.563 -4.48773 0.303751 0
M  V30 3542 C 334.882 -4.04424 -1.73577 0
M  V30 3543 H 332.001 -0.720744 -0.153936 0
M  V30 3544 H 334.643 -1.87586 0.30192 0
M  V30 3545 H 332.793 -3.58522 -1.49648 0
M  V30 3546 H 334.465 -4.51586 0.941682 0
M  V30 3547 H 332.708 -4.23194 0.953375 0
M  V30 3548 H 333.379 -5.51976 -0.0519883 0
M  V30 3549 H 335.855 -3.98075 -1.21143 0
M  V30 3550 H 334.731 -5.1047 -2.01771 0
M  V30 3551 H 334.992 -3.50494 -2.69456 0
M  V30 3552 N 334.051 0.0651679 -1.57465 0
M  V30 3553 C 334.981 1.07693 -2.07182 0
M  V30 3554 C 335.962 1.39962 -0.966673 0
M  V30 3555 O 337.147 1.49475 -1.2398 0
M  V30 3556 C 334.277 2.3885 -2.52127 0
M  V30 3557 C 333.231 2.20917 -3.66579 0
M  V30 3558 C 332.557 3.57515 -3.97601 0
M  V30 3559 C 333.857 1.62493 -4.9638 0
M  V30 3560 H 335.551 0.663199 -2.91962 0
M  V30 3561 H 333.097 0.317569 -1.40455 0
M  V30 3562 H 335.05 3.09928 -2.85522 0
M  V30 3563 H 333.774 2.82215 -1.64384 0
M  V30 3564 H 332.433 1.52279 -3.33477 0
M  V30 3565 H 332.081 3.98463 -3.06979 0
M  V30 3566 H 331.781 3.46353 -4.74672 0
M  V30 3567 H 333.305 4.30013 -4.33499 0
M  V30 3568 H 334.719 2.23445 -5.27963 0
M  V30 3569 H 333.116 1.62009 -5.77818 0
M  V30 3570 H 334.186 0.587041 -4.81333 0
M  V30 3571 N 335.529 1.53961 0.336706 0
M  V30 3572 C 336.459 1.85417 1.41925 0
M  V30 3573 C 337.44 0.709856 1.5458 0
M  V30 3574 O 338.625 0.962396 1.68676 0
M  V30 3575 C 335.755 2.06985 2.78881 0
M  V30 3576 C 334.709 3.22813 2.81026 0
M  V30 3577 C 334.035 3.29727 4.20932 0
M  V30 3578 C 335.335 4.60767 2.45949 0
M  V30 3579 H 337.029 2.76079 1.15848 0
M  V30 3580 H 334.575 1.32839 0.555859 0
M  V30 3581 H 336.528 2.27575 3.54665 0
M  V30 3582 H 335.252 1.13061 3.06406 0
M  V30 3583 H 333.911 3.0209 2.07695 0
M  V30 3584 H 333.559 2.33385 4.45579 0
M  V30 3585 H 333.259 4.07566 4.23277 0
M  V30 3586 H 334.783 3.52536 4.98549 0
M  V30 3587 H 336.197 4.81325 3.11446 0
M  V30 3588 H 334.594 5.4106 2.59566 0
M  V30 3589 H 335.664 4.6391 1.41122 0
M  V30 3590 N 337.007 -0.598083 1.45811 0
M  V30 3591 C 338.284 -1.35777 1.40797 0
M  V30 3592 C 338.664 -2.10935 0.083462 0
M  V30 3593 O 338.012 -2.08505 -0.934763 0
M  V30 3594 C 338.222 -2.29666 2.62783 0
M  V30 3595 C 339.57 -2.91977 3.08277 0
M  V30 3596 O 340.594 -2.39984 2.63223 0
M  V30 3597 O 339.453 -3.86376 3.86491 0
M  V30 3598 H 336.547 -0.609291 0.55919 0
M  V30 3599 H 339.093 -0.620379 1.57954 0
M  V30 3600 H 337.865 -1.73454 3.50756 0
M  V30 3601 H 337.488 -3.1077 2.48008 0
M  V30 3602 N 338.485 -1.33259 -0.841409 0
M  V30 3603 C 339.731 -1.24757 -1.59886 0
M  V30 3604 C 340.064 0.186913 -1.93298 0
M  V30 3605 O 339.339 1.12757 -1.5848 0
M  V30 3606 C 339.622 -2.12036 -2.91055 0
M  V30 3607 C 339.475 -3.63929 -2.6434 0
M  V30 3608 C 340.794 -1.9916 -3.92458 0
M  V30 3609 H 337.913 -0.454542 -0.580138 0
M  V30 3610 H 340.555 -1.63335 -0.970647 0
M  V30 3611 H 338.705 -1.79265 -3.44669 0
M  V30 3612 H 340.377 -4.06978 -2.17178 0
M  V30 3613 H 338.62 -3.85935 -1.98082 0
M  V30 3614 H 339.291 -4.20341 -3.57796 0
M  V30 3615 H 341.767 -2.27895 -3.48143 0
M  V30 3616 H 340.643 -2.62484 -4.82072 0
M  V30 3617 H 340.904 -0.963082 -4.31482 0
M  V30 3618 N 339.963 1.05934 -1.16686 0
M  V30 3619 C 341.211 1.78447 -0.948744 0
M  V30 3620 C 341.532 1.87813 0.524523 0
M  V30 3621 O 340.802 1.38945 1.38098 0
M  V30 3622 H 339.382 0.660971 -0.348033 0
M  V30 3623 H 342.044 1.27947 -1.47022 0
M  V30 3624 H 341.14 2.80394 -1.37061 0
M  V30 3625 N 341.441 0.965919 1.2453 0
M  V30 3626 C 342.669 0.644385 1.96609 0
M  V30 3627 C 343.084 -0.785823 1.71669 0
M  V30 3628 O 342.441 -1.52703 0.999399 0
M  V30 3629 C 342.492 0.907375 3.49927 0
M  V30 3630 O 342.213 2.28136 3.74013 0
M  V30 3631 C 343.714 0.599784 4.39224 0
M  V30 3632 H 340.934 0.240588 0.626385 0
M  V30 3633 H 343.478 1.29337 1.58405 0
M  V30 3634 H 341.633 0.304631 3.862 0
M  V30 3635 H 342.047 2.36002 4.68405 0
M  V30 3636 H 343.521 0.834263 5.45659 0
M  V30 3637 H 343.998 -0.465921 4.36722 0
M  V30 3638 H 344.604 1.18235 4.08535 0
M  V30 3639 N 342.919 -1.39368 0.735821 0
M  V30 3640 C 343.867 -2.32443 0.0855131 0
M  V30 3641 C 344.861 -1.53104 -0.724954 0
M  V30 3642 O 346.067 -1.68762 -0.626047 0
M  V30 3643 H 342.442 -0.751948 0.00885257 0
M  V30 3644 H 344.413 -2.84916 0.886883 0
M  V30 3645 C 343.162 -3.38206 -0.806983 0
M  V30 3646 H 342.485 -3.99335 -0.19274 0
M  V30 3647 H 343.925 -4.05779 -1.2296 0
M  V30 3648 C 342.384 -2.75321 -1.94165 0
M  V30 3649 O 342.914 -2.63231 -3.03435 0
M  V30 3650 N 341.12 -2.33396 -1.73132 0
M  V30 3651 H 340.667 -2.4343 -0.842596 0
M  V30 3652 H 340.625 -1.91661 -2.49225 0
M  V30 3653 N 344.397 -0.483516 -1.5 0
M  V30 3654 C 345.345 0.318061 -2.30415 0
M  V30 3655 C 346.339 0.978988 -1.38247 0
M  V30 3656 O 347.545 0.908673 -1.55381 0
M  V30 3657 H 343.92 0.121419 -0.742133 0
M  V30 3658 H 345.891 -0.380403 -2.95965 0
M  V30 3659 C 344.64 1.38013 -3.19136 0
M  V30 3660 H 343.963 0.880952 -3.89973 0
M  V30 3661 H 345.403 1.91332 -3.78375 0
M  V30 3662 C 343.862 2.38884 -2.37563 0
M  V30 3663 O 344.392 3.44412 -2.06744 0
M  V30 3664 N 342.598 2.10912 -1.99911 0
M  V30 3665 H 342.145 1.25118 -2.25174 0
M  V30 3666 H 342.103 2.78635 -1.45636 0
M  V30 3667 N 345.875 1.56104 -0.216619 0
M  V30 3668 C 346.785 2.23694 0.706982 0
M  V30 3669 C 347.801 1.24295 1.21765 0
M  V30 3670 O 348.977 1.57094 1.2603 0
M  V30 3671 C 346.042 2.8998 1.90033 0
M  V30 3672 C 345.103 4.04708 1.43213 0
M  V30 3673 C 344.336 4.67824 2.56859 0
M  V30 3674 O 344.559 4.29913 3.74874 0
M  V30 3675 O 343.493 5.56905 2.28343 0
M  V30 3676 H 347.319 3.03272 0.161235 0
M  V30 3677 H 344.904 1.49394 0.0136177 0
M  V30 3678 H 346.786 3.31837 2.59735 0
M  V30 3679 H 345.461 2.13365 2.43428 0
M  V30 3680 H 344.368 3.6743 0.70327 0
M  V30 3681 H 345.701 4.83051 0.944615 0
M  V30 3682 N 347.353 -0.0568162 1.57498 0
M  V30 3683 C 348.263 -1.08346 2.08083 0
M  V30 3684 C 349.279 -1.41439 1.01346 0
M  V30 3685 O 350.455 -1.51316 1.32912 0
M  V30 3686 C 347.52 -2.37352 2.52715 0
M  V30 3687 C 346.581 -2.11093 3.73816 0
M  V30 3688 C 345.814 -3.33949 4.1631 0
M  V30 3689 O 346.037 -4.43622 3.58547 0
M  V30 3690 O 344.971 -3.21279 5.08983 0
M  V30 3691 H 348.797 -0.683667 2.95905 0
M  V30 3692 H 346.382 -0.271965 1.46904 0
M  V30 3693 H 348.264 -3.13246 2.81877 0
M  V30 3694 H 346.939 -2.76681 1.68016 0
M  V30 3695 H 345.846 -1.32856 3.49714 0
M  V30 3696 H 347.179 -1.76637 4.59413 0
M  V30 3697 N 348.832 -1.54138 -0.328536 0
M  V30 3698 C 349.762 -1.86167 -1.40939 0
M  V30 3699 C 350.743 -0.718044 -1.54202 0
M  V30 3700 O 351.928 -0.971328 -1.68163 0
M  V30 3701 C 349.058 -2.08461 -2.77779 0
M  V30 3702 C 348.012 -3.24299 -2.7931 0
M  V30 3703 C 347.338 -3.31955 -4.19178 0
M  V30 3704 C 348.638 -4.62065 -2.43502 0
M  V30 3705 H 350.332 -2.76689 -1.14383 0
M  V30 3706 H 347.878 -1.33132 -0.548806 0
M  V30 3707 H 349.831 -2.29453 -3.53454 0
M  V30 3708 H 348.555 -1.14684 -3.05802 0
M  V30 3709 H 347.214 -3.03187 -2.0609 0
M  V30 3710 H 346.862 -2.35745 -4.44335 0
M  V30 3711 H 346.562 -4.09805 -4.2111 0
M  V30 3712 H 348.086 -3.55175 -4.96672 0
M  V30 3713 H 349.5 -4.8297 -3.08889 0
M  V30 3714 H 347.897 -5.42429 -2.56693 0
M  V30 3715 H 348.967 -4.64652 -1.38659 0
M  V30 3716 N 350.31 0.590341 -1.46126 0
M  V30 3717 C 351.24 1.71032 -1.58966 0
M  V30 3718 C 352.221 1.64302 -0.440335 0
M  V30 3719 O 353.406 1.82436 -0.665634 0
M  V30 3720 C 350.536 3.09665 -1.57241 0
M  V30 3721 C 349.49 3.31221 -2.71066 0
M  V30 3722 C 348.816 4.70303 -2.54399 0
M  V30 3723 C 350.116 3.19796 -4.1295 0
M  V30 3724 H 351.81 1.60543 -2.52718 0
M  V30 3725 H 349.356 0.770933 -1.21625 0
M  V30 3726 H 351.309 3.87831 -1.64819 0
M  V30 3727 H 350.033 3.21036 -0.600289 0
M  V30 3728 H 348.692 2.55452 -2.62944 0
M  V30 3729 H 348.34 4.78429 -1.55288 0
M  V30 3730 H 348.04 4.85679 -3.30741 0
M  V30 3731 H 349.564 5.50647 -2.63857 0
M  V30 3732 H 350.978 3.87815 -4.22223 0
M  V30 3733 H 349.375 3.46696 -4.89818 0
M  V30 3734 H 350.445 2.16983 -4.33643 0
M  V30 3735 N 351.788 1.33704 0.83433 0
M  V30 3736 C 353.204 1.13137 1.12571 0
M  V30 3737 C 353.404 -0.0747261 2.01361 0
M  V30 3738 O 352.46 -0.753647 2.4099 0
M  V30 3739 C 353.773 2.42105 1.78342 0
M  V30 3740 C 355.321 2.48054 1.90888 0
M  V30 3741 C 355.796 3.76995 2.60075 0
M  V30 3742 N 357.287 3.78092 2.67584 0
M  V30 3743 C 358.022 4.74574 3.21818 0
M  V30 3744 N 357.518 5.81434 3.76705 0
M  V30 3745 N 359.311 4.62044 3.20112 0
M  V30 3746 H 351.462 2.11 0.243489 0
M  V30 3747 H 353.725 0.932532 0.17055 0
M  V30 3748 H 353.431 3.30391 1.20561 0
M  V30 3749 H 353.305 2.54594 2.7832 0
M  V30 3750 H 355.692 1.60215 2.47821 0
M  V30 3751 H 355.773 2.39502 0.898459 0
M  V30 3752 H 355.417 4.65219 2.03799 0
M  V30 3753 H 355.347 3.82825 3.61597 0
M  V30 3754 H 357.838 3.00865 2.28667 0
M  V30 3755 H 358.151 6.51084 4.16305 0
M  V30 3756 H 356.496 5.85163 3.7498 0
M  V30 3757 H 359.687 3.77716 2.76493 0
M  V30 3758 H 359.86 5.37406 3.62076 0
M  V30 3759 N 353.266 -1.05314 1.17247 0
M  V30 3760 C 354.543 -1.75184 0.87005 0
M  V30 3761 C 354.923 -2.01481 -0.629965 0
M  V30 3762 O 354.271 -1.64988 -1.58086 0
M  V30 3763 C 354.481 -3.04594 1.70363 0
M  V30 3764 C 355.829 -3.78567 1.92281 0
M  V30 3765 O 356.853 -3.14461 1.67311 0
M  V30 3766 O 355.712 -4.93755 2.3424 0
M  V30 3767 H 352.806 -0.761729 0.322021 0
M  V30 3768 H 355.352 -1.11493 1.27935 0
M  V30 3769 H 354.124 -2.81201 2.72106 0
M  V30 3770 H 353.747 -3.76022 1.29202 0
M  V30 3771 N 354.744 -0.972509 -1.24016 0
M  V30 3772 C 356.155 -0.67517 -1.74064 0
M  V30 3773 C 356.506 0.808939 -1.78747 0
M  V30 3774 O 355.631 1.63286 -1.42009 0
M  V30 3775 C 356.226 -1.21889 -3.16115 0
M  V30 3776 C 354.785 -0.971358 -3.6365 0
M  V30 3777 C 353.932 -1.35134 -2.42145 0
M  V30 3778 H 356.883 -1.14727 -1.09651 0
M  V30 3779 H 356.904 -0.587489 -3.75937 0
M  V30 3780 H 356.416 -2.29906 -3.12674 0
M  V30 3781 H 354.517 0.0930686 -3.72484 0
M  V30 3782 H 354.63 -1.62039 -4.50866 0
M  V30 3783 H 352.994 -0.769751 -2.4279 0
M  V30 3784 H 353.777 -2.4411 -2.41381 0
M  V30 3785 N 356.222 1.38976 -0.743202 0
M  V30 3786 C 357.152 2.33171 -0.123873 0
M  V30 3787 C 358.133 1.54336 0.71516 0
M  V30 3788 O 359.318 1.82696 0.658467 0
M  V30 3789 C 356.448 3.38474 0.777978 0
M  V30 3790 C 355.402 4.27979 0.0424758 0
M  V30 3791 C 354.728 5.2405 1.06189 0
M  V30 3792 C 356.028 5.10155 -1.1198 0
M  V30 3793 H 357.722 2.85213 -0.910709 0
M  V30 3794 H 355.268 1.37133 -0.439388 0
M  V30 3795 H 357.221 4.03328 1.22084 0
M  V30 3796 H 355.945 2.84891 1.59702 0
M  V30 3797 H 354.604 3.64616 -0.380853 0
M  V30 3798 H 354.252 4.66758 1.87472 0
M  V30 3799 H 353.952 5.84785 0.574485 0
M  V30 3800 H 355.476 5.9178 1.50428 0
M  V30 3801 H 356.89 5.68307 -0.75499 0
M  V30 3802 H 355.287 5.80073 -1.53738 0
M  V30 3803 H 356.357 4.44504 -1.93764 0
M  V30 3804 N 357.7 0.491464 1.49741 0
M  V30 3805 C 358.93 -0.0534375 2.06531 0
M  V30 3806 C 359.338 -1.32233 1.35318 0
M  V30 3807 O 358.681 -1.78781 0.422243 0
M  V30 3808 C 358.743 -0.387034 3.57411 0
M  V30 3809 C 358.407 0.782764 4.50246 0
M  V30 3810 C 359.404 1.67059 4.92329 0
M  V30 3811 C 357.089 0.978866 4.9267 0
M  V30 3812 C 359.083 2.73874 5.75562 0
M  V30 3813 C 356.77 2.05022 5.75682 0
M  V30 3814 C 357.768 2.92851 6.17031 0
M  V30 3815 O 357.456 3.98138 6.98385 0
M  V30 3816 H 357.188 0.0129324 0.675876 0
M  V30 3817 H 359.742 0.685238 1.93633 0
M  V30 3818 H 357.972 -1.17918 3.68283 0
M  V30 3819 H 359.661 -0.869419 3.96479 0
M  V30 3820 H 360.427 1.53086 4.60206 0
M  V30 3821 H 356.306 0.304646 4.59992 0
M  V30 3822 H 359.85 3.42458 6.07757 0
M  V30 3823 H 355.747 2.18993 6.07217 0
M  V30 3824 H 356.515 3.95374 7.16674 0
M  V30 3825 N 359.178 -1.55987 0.224894 0
M  V30 3826 C 360.427 -1.97566 -0.406273 0
M  V30 3827 C 360.74 -1.11569 -1.6066 0
M  V30 3828 O 361.946 -1.43062 -2.3075 0
M  V30 3829 C 360.402 -3.51474 -0.774207 0
M  V30 3830 C 360.01 -4.46179 0.403496 0
M  V30 3831 C 361.754 -4.01758 -1.37079 0
M  V30 3832 C 359.661 -5.91399 0.0129412 0
M  V30 3833 H 358.591 -0.737777 -0.155565 0
M  V30 3834 H 361.242 -1.80659 0.321635 0
M  V30 3835 H 359.624 -3.63994 -1.55963 0
M  V30 3836 H 360.798 -4.45409 1.18101 0
M  V30 3837 H 359.113 -4.06255 0.913536 0
M  V30 3838 H 361.71 -5.07756 -1.67596 0
M  V30 3839 H 362.053 -3.47805 -2.28773 0
M  V30 3840 H 362.586 -3.92475 -0.648733 0
M  V30 3841 H 359.325 -6.49341 0.896451 0
M  V30 3842 H 358.845 -5.95356 -0.728821 0
M  V30 3843 H 360.524 -6.45683 -0.412582 0
M  V30 3844 N 360.656 0.0484629 -1.57525 0
M  V30 3845 C 361.904 0.741657 -1.88 0
M  V30 3846 C 362.225 1.76918 -0.820054 0
M  V30 3847 O 361.495 1.95335 0.148661 0
M  V30 3848 H 360.075 0.276908 -0.69378 0
M  V30 3849 H 362.737 0.019013 -1.94891 0
M  V30 3850 H 361.833 1.24336 -2.86264 0
M  V30 3851 N 362.134 1.5431 0.320358 0
M  V30 3852 C 363.064 1.86912 1.3995 0
M  V30 3853 C 364.045 0.726211 1.53819 0
M  V30 3854 O 365.23 0.980233 1.67646 0
M  V30 3855 C 362.36 2.09932 2.7667 0
M  V30 3856 C 361.314 3.25776 2.77586 0
M  V30 3857 C 360.64 3.34173 4.17412 0
M  V30 3858 C 361.94 4.6335 2.41048 0
M  V30 3859 H 363.634 2.77292 1.12914 0
M  V30 3860 H 361.18 1.33421 0.541738 0
M  V30 3861 H 363.133 2.31324 3.52232 0
M  V30 3862 H 361.857 1.16304 3.0519 0
M  V30 3863 H 360.516 3.04276 2.04479 0
M  V30 3864 H 360.164 2.38098 4.43078 0
M  V30 3865 H 359.864 4.12033 4.18931 0
M  V30 3866 H 361.388 3.57803 4.94782 0
M  V30 3867 H 362.802 4.84602 3.06324 0
M  V30 3868 H 361.199 5.43782 2.53813 0
M  V30 3869 H 362.269 4.65381 1.36193 0
M  V30 3870 N 363.613 -0.582584 1.46437 0
M  V30 3871 C 364.56 -1.69164 1.5701 0
M  V30 3872 C 365.53 -1.60847 0.414403 0
M  V30 3873 O 366.715 -1.80058 0.631171 0
M  V30 3874 C 363.855 -3.075 1.56646 0
M  V30 3875 C 362.968 -3.2644 2.82951 0
M  V30 3876 C 362.103 -4.55026 2.7409 0
M  V30 3877 C 361.142 -4.6731 3.95333 0
M  V30 3878 N 360.279 -5.87221 3.84858 0
M  V30 3879 H 365.119 -1.59464 2.51744 0
M  V30 3880 H 362.656 -0.777186 1.24893 0
M  V30 3881 H 364.614 -3.8757 1.5442 0
M  V30 3882 H 363.244 -3.16096 0.654439 0
M  V30 3883 H 362.296 -2.39974 2.95155 0
M  V30 3884 H 363.608 -3.31385 3.72808 0
M  V30 3885 H 362.762 -5.43324 2.6997 0
M  V30 3886 H 361.501 -4.52519 1.81873 0
M  V30 3887 H 360.506 -3.77429 3.99784 0
M  V30 3888 H 361.731 -4.71595 4.88646 0
M  V30 3889 H 359.677 -5.85712 2.95427 0
M  V30 3890 H 359.594 -5.93435 4.6837 0
M  V30 3891 H 360.862 -6.7795 3.84713 0
M  V30 3892 N 365.091 -1.34144 -0.827227 0
M  V30 3893 C 366.041 -1.21923 -1.92663 0
M  V30 3894 C 367.025 -0.119294 -1.60457 0
M  V30 3895 O 368.217 -0.348539 -1.73534 0
M  V30 3896 C 365.346 -0.972492 -3.29238 0
M  V30 3897 C 364.432 -2.1154 -3.67576 0
M  V30 3898 N 364.823 -3.36627 -3.77512 0
M  V30 3899 C 363.121 -2.02468 -3.97395 0
M  V30 3900 C 363.822 -4.11658 -4.1099 0
M  V30 3901 N 362.798 -3.40207 -4.23981 0
M  V30 3902 H 366.6 -2.16721 -1.98517 0
M  V30 3903 H 364.114 -1.2632 -1.02064 0
M  V30 3904 H 366.111 -0.865847 -4.0781 0
M  V30 3905 H 364.771 -0.0331509 -3.24683 0
M  V30 3906 H 365.782 -3.71234 -3.61118 0
M  V30 3907 H 362.459 -1.16265 -4.00985 0
M  V30 3908 H 363.849 -5.19657 -4.25918 0
M  V30 3909 N 366.569 1.04691 -1.17803 0
M  V30 3910 C 367.501 2.12571 -0.857097 0
M  V30 3911 C 368.514 1.62174 0.142647 0
M  V30 3912 O 369.703 1.78301 -0.0843387 0
M  V30 3913 C 366.803 3.37915 -0.258216 0
M  V30 3914 C 365.976 4.1757 -1.30207 0
M  V30 3915 C 365.035 5.2125 -0.720029 0
M  V30 3916 O 364.061 5.51888 -1.39314 0
M  V30 3917 N 365.263 5.78466 0.485507 0
M  V30 3918 H 368.028 2.40698 -1.78562 0
M  V30 3919 H 365.589 1.20831 -1.07757 0
M  V30 3920 H 367.581 4.04442 0.144584 0
M  V30 3921 H 366.151 3.07281 0.574199 0
M  V30 3922 H 365.371 3.46458 -1.88043 0
M  V30 3923 H 366.659 4.67586 -2.00601 0
M  V30 3924 H 366.057 5.55866 1.05022 0
M  V30 3925 H 364.614 6.4649 0.830307 0
M  V30 3926 N 368.047 0.979072 1.23499 0
M  V30 3927 C 369.463 0.687475 1.44034 0
M  V30 3928 C 369.663 -0.746801 1.8715 0
M  V30 3929 O 368.719 -1.51939 2.0167 0
M  V30 3930 C 370.032 1.68127 2.49307 0
M  V30 3931 C 371.58 1.69516 2.63122 0
M  V30 3932 C 372.055 2.67723 3.71603 0
M  V30 3933 N 373.546 2.66233 3.79044 0
M  V30 3934 C 374.281 3.38891 4.62537 0
M  V30 3935 N 373.777 4.21103 5.50131 0
M  V30 3936 N 375.57 3.27661 4.56721 0
M  V30 3937 H 367.721 1.90559 0.938135 0
M  V30 3938 H 369.984 0.821051 0.473897 0
M  V30 3939 H 369.69 2.70693 2.2454 0
M  V30 3940 H 369.564 1.46306 3.4767 0
M  V30 3941 H 371.951 0.676561 2.8724 0
M  V30 3942 H 372.032 1.95404 1.65079 0
M  V30 3943 H 371.676 3.69724 3.48233 0
M  V30 3944 H 371.606 2.39111 4.69184 0
M  V30 3945 H 374.097 2.06568 3.16446 0
M  V30 3946 H 374.41 4.73403 6.10827 0
M  V30 3947 H 372.755 4.25195 5.49759 0
M  V30 3948 H 375.946 2.62887 3.87309 0
M  V30 3949 H 376.119 3.84547 5.21562 0
M  V30 3950 N 369.525 -1.3858 0.750561 0
M  V30 3951 C 370.771 -2.00481 0.305825 0
M  V30 3952 C 371.104 -1.5944 -1.10872 0
M  V30 3953 O 370.379 -0.83052 -1.75877 0
M  V30 3954 C 370.662 -3.5758 0.425287 0
M  V30 3955 C 370.515 -4.08594 1.88072 0
M  V30 3956 C 371.834 -4.39719 -0.183122 0
M  V30 3957 H 368.953 -0.728348 0.112598 0
M  V30 3958 H 371.595 -1.64566 0.949638 0
M  V30 3959 H 369.745 -3.88306 -0.122828 0
M  V30 3960 H 371.417 -3.88523 2.48691 0
M  V30 3961 H 369.66 -3.61574 2.39681 0
M  V30 3962 H 370.331 -5.177 1.91548 0
M  V30 3963 H 372.807 -4.15128 0.284303 0
M  V30 3964 H 371.683 -5.48856 -0.0692757 0
M  V30 3965 H 371.944 -4.23434 -1.27106 0
M  V30 3966 N 371.003 -0.499398 -1.49478 0
M  V30 3967 C 371.953 0.299103 -2.2603 0
M  V30 3968 C 372.937 0.936934 -1.30807 0
M  V30 3969 O 374.129 0.844798 -1.55538 0
M  V30 3970 C 371.258 1.36391 -3.15044 0
M  V30 3971 C 370.344 0.732398 -4.17728 0
M  V30 3972 N 370.735 -0.164028 -5.05534 0
M  V30 3973 C 369.033 0.993162 -4.34801 0
M  V30 3974 C 369.734 -0.525345 -5.79323 0
M  V30 3975 N 368.71 0.106348 -5.43496 0
M  V30 3976 H 372.512 -0.391003 -2.91287 0
M  V30 3977 H 370.026 -0.31537 -1.59308 0
M  V30 3978 H 372.023 1.94939 -3.68516 0
M  V30 3979 H 370.683 2.05571 -2.51338 0
M  V30 3980 H 371.694 -0.534736 -5.15132 0
M  V30 3981 H 368.371 1.67783 -3.82302 0
M  V30 3982 H 369.761 -1.25862 -6.60006 0
M  V30 3983 N 372.481 1.55866 -0.233164 0
M  V30 3984 C 373.729 1.9821 0.394593 0
M  V30 3985 C 374.05 1.12234 1.59463 0
M  V30 3986 O 373.32 0.201981 1.94856 0
M  V30 3987 H 371.9 0.732034 0.148778 0
M  V30 3988 H 374.562 1.92107 -0.32876 0
M  V30 3989 H 373.658 3.03845 0.713063 0
M  V30 3990 N 373.959 -0.0401083 1.57549 0
M  V30 3991 C 374.906 -1.04413 2.05831 0
M  V30 3992 C 375.876 -1.36585 0.945184 0
M  V30 3993 O 377.061 -1.47112 1.21502 0
M  V30 3994 C 374.201 -2.34336 2.53339 0
M  V30 3995 C 373.314 -2.08419 3.78398 0
M  V30 3996 C 372.449 -3.32133 4.14561 0
M  V30 3997 C 371.488 -3.01721 5.3257 0
M  V30 3998 N 370.625 -4.17855 5.64218 0
M  V30 3999 H 375.465 -0.625442 2.91363 0
M  V30 4000 H 373.002 -0.297218 1.44066 0
M  V30 4001 H 374.96 -3.10234 2.78946 0
M  V30 4002 H 373.59 -2.73948 1.7074 0
M  V30 4003 H 372.642 -1.23069 3.59942 0
M  V30 4004 H 373.954 -1.81978 4.64419 0
M  V30 4005 H 373.108 -4.16406 4.41238 0
M  V30 4006 H 371.847 -3.61678 3.2717 0
M  V30 4007 H 370.852 -2.15849 5.05657 0
M  V30 4008 H 372.077 -2.73466 6.21605 0
M  V30 4009 H 370.023 -4.47372 4.79786 0
M  V30 4010 H 369.94 -3.94798 6.44725 0
M  V30 4011 H 371.208 -5.03033 5.95465 0
M  V30 4012 N 375.437 -1.54477 -0.31217 0
M  V30 4013 C 376.4 -1.83923 -1.36766 0
M  V30 4014 C 377.4 -0.711563 -1.44199 0
M  V30 4015 O 378.59 -0.979866 -1.44029 0
M  V30 4016 C 375.722 -2.0095 -2.75376 0
M  V30 4017 H 376.915 -2.78239 -1.11906 0
M  V30 4018 H 374.468 -1.46369 -0.548257 0
M  V30 4019 H 375.203 -1.08883 -3.05475 0
M  V30 4020 H 374.988 -2.83018 -2.71373 0
M  V30 4021 H 376.478 -2.2514 -3.51713 0
M  V30 4022 N 376.915 0.57481 -1.46744 0
M  V30 4023 C 378.145 1.35659 -1.55821 0
M  V30 4024 C 378.553 1.88129 -0.201036 0
M  V30 4025 O 377.896 1.64723 0.813134 0
M  V30 4026 C 377.958 2.57473 -2.50894 0
M  V30 4027 C 377.622 2.26415 -3.9697 0
M  V30 4028 C 378.619 1.84771 -4.85958 0
M  V30 4029 C 376.304 2.38316 -4.42166 0
M  V30 4030 C 378.298 1.55434 -6.18158 0
M  V30 4031 C 375.985 2.08591 -5.74398 0
M  V30 4032 C 376.983 1.67216 -6.62214 0
M  V30 4033 O 376.671 1.37859 -7.91991 0
M  V30 4034 H 376.403 0.420496 -0.529301 0
M  V30 4035 H 378.957 0.704967 -1.92923 0
M  V30 4036 H 377.187 3.25468 -2.08824 0
M  V30 4037 H 378.876 3.19546 -2.50291 0
M  V30 4038 H 379.642 1.75085 -4.52295 0
M  V30 4039 H 375.521 2.69483 -3.74032 0
M  V30 4040 H 379.065 1.23065 -6.86659 0
M  V30 4041 H 374.962 2.17905 -6.07608 0
M  V30 4042 H 375.73 1.51638 -8.04331 0
M  V30 4043 N 378.394 1.34581 0.820102 0
M  V30 4044 C 379.671 1.17675 1.56244 0
M  V30 4045 C 380.051 -0.249541 2.0962 0
M  V30 4046 O 379.399 -1.25125 1.91196 0
M  V30 4047 C 379.609 2.23364 2.6816 0
M  V30 4048 C 380.957 2.58485 3.36854 0
M  V30 4049 O 381.981 2.22175 2.78418 0
M  V30 4050 O 380.84 3.20868 4.42386 0
M  V30 4051 H 377.934 0.456333 0.689702 0
M  V30 4052 H 380.48 1.46222 0.861231 0
M  V30 4053 H 379.252 3.19087 2.26493 0
M  V30 4054 H 378.875 1.96009 3.45928 0
M  V30 4055 N 379.872 -1.04064 1.18357 0
M  V30 4056 C 381.149 -1.74252 0.888581 0
M  V30 4057 C 381.529 -2.02138 -0.60856 0
M  V30 4058 O 380.877 -1.66656 -1.56327 0
M  V30 4059 C 381.087 -3.0277 1.73584 0
M  V30 4060 C 382.435 -3.76506 1.96286 0
M  V30 4061 O 383.459 -3.12668 1.70637 0
M  V30 4062 O 382.318 -4.91243 2.39464 0
M  V30 4063 H 379.412 -0.758271 0.330082 0
M  V30 4064 H 381.958 -1.1013 1.2911 0
M  V30 4065 H 380.73 -2.78299 2.75073 0
M  V30 4066 H 380.353 -3.74631 1.33183 0
M  V30 4067 N 381.35 -0.985608 -1.22978 0
M  V30 4068 C 382.28 -0.549649 -2.26939 0
M  V30 4069 C 383.261 0.419803 -1.64838 0
M  V30 4070 O 384.446 0.31203 -1.91677 0
M  V30 4071 C 381.576 0.143652 -3.47003 0
M  V30 4072 C 380.53 -0.743606 -4.21491 0
M  V30 4073 C 379.856 0.0822027 -5.34637 0
M  V30 4074 C 381.156 -2.03694 -4.80943 0
M  V30 4075 H 382.85 -1.41862 -2.63658 0
M  V30 4076 H 380.396 -0.683571 -1.26741 0
M  V30 4077 H 382.349 0.459985 -4.18882 0
M  V30 4078 H 381.073 1.04711 -3.09359 0
M  V30 4079 H 379.732 -1.04347 -3.51436 0
M  V30 4080 H 379.38 0.986359 -4.93234 0
M  V30 4081 H 379.08 -0.508377 -5.85397 0
M  V30 4082 H 380.604 0.392797 -6.09335 0
M  V30 4083 H 382.018 -1.78504 -5.44802 0
M  V30 4084 H 380.415 -2.57573 -5.42011 0
M  V30 4085 H 381.485 -2.72042 -4.01399 0
M  V30 4086 N 382.828 1.3818 -0.7579 0
M  V30 4087 C 383.758 2.33027 -0.148597 0
M  V30 4088 C 384.739 1.55085 0.69875 0
M  V30 4089 O 385.924 1.83384 0.639053 0
M  V30 4090 C 383.054 3.3928 0.742034 0
M  V30 4091 C 382.008 4.28 -0.00291946 0
M  V30 4092 C 381.334 5.25146 1.00625 0
M  V30 4093 C 382.634 5.08938 -1.17385 0
M  V30 4094 H 384.328 2.84231 -0.940909 0
M  V30 4095 H 381.874 1.36659 -0.453908 0
M  V30 4096 H 383.827 4.046 1.17799 0
M  V30 4097 H 382.551 2.86569 1.56671 0
M  V30 4098 H 381.21 3.64192 -0.419504 0
M  V30 4099 H 380.858 4.68721 1.8251 0
M  V30 4100 H 380.558 5.85361 0.512428 0
M  V30 4101 H 382.082 5.93342 1.44143 0
M  V30 4102 H 383.496 5.67474 -0.815224 0
M  V30 4103 H 381.893 5.7841 -1.59882 0
M  V30 4104 H 382.963 4.42424 -1.98468 0
M  V30 4105 N 384.306 0.507319 1.49211 0
M  V30 4106 C 385.583 -0.0982702 1.95353 0
M  V30 4107 C 385.963 -1.53516 1.449 0
M  V30 4108 O 385.311 -2.18594 0.66551 0
M  V30 4109 C 385.521 -0.00440283 3.49 0
M  V30 4110 C 386.869 -0.175147 4.24239 0
M  V30 4111 O 387.893 -0.0792891 3.56112 0
M  V30 4112 O 386.752 -0.37276 5.45227 0
M  V30 4113 H 383.846 -0.0918236 0.821887 0
M  V30 4114 H 386.392 0.570307 1.5983 0
M  V30 4115 H 385.164 0.997402 3.78375 0
M  V30 4116 H 384.787 -0.712845 3.91158 0
M  V30 4117 N 385.784 -1.5574 0.241426 0
M  V30 4118 C 386.694 -2.2479 -0.671305 0
M  V30 4119 C 387.71 -1.26217 -1.19772 0
M  V30 4120 O 388.886 -1.59079 -1.23514 0
M  V30 4121 C 385.951 -2.92966 -1.85396 0
M  V30 4122 C 385.012 -4.06935 -1.36756 0
M  V30 4123 C 384.245 -4.71851 -2.49384 0
M  V30 4124 O 384.468 -4.35823 -3.67987 0
M  V30 4125 O 383.402 -5.60467 -2.19454 0
M  V30 4126 H 387.228 -3.0349 -0.112966 0
M  V30 4127 H 384.813 -1.49397 0.0101513 0
M  V30 4128 H 386.695 -3.35927 -2.54423 0
M  V30 4129 H 385.37 -2.17211 -2.40002 0
M  V30 4130 H 384.277 -3.68503 -0.644726 0
M  V30 4131 H 385.61 -4.84492 -0.867647 0
M  V30 4132 N 387.262 0.0317525 -1.57568 0
M  V30 4133 C 388.509 0.723104 -1.89149 0
M  V30 4134 C 388.837 1.75504 -0.838377 0
M  V30 4135 O 388.092 1.95037 0.160982 0
M  V30 4136 C 388.391 1.43167 -3.27472 0
M  V30 4137 C 388.057 0.535972 -4.47703 0
M  V30 4138 C 386.719 0.289262 -4.8033 0
M  V30 4139 C 389.071 -0.0826125 -5.21135 0
M  V30 4140 C 386.399 -0.584853 -5.83778 0
M  V30 4141 C 388.751 -0.944414 -6.25511 0
M  V30 4142 C 387.415 -1.20061 -6.56614 0
M  V30 4143 H 386.685 0.264602 -0.692146 0
M  V30 4144 H 389.332 -0.0169496 -1.91492 0
M  V30 4145 H 387.637 2.24497 -3.21105 0
M  V30 4146 H 389.334 1.97209 -3.49155 0
M  V30 4147 H 385.924 0.738414 -4.22191 0
M  V30 4148 H 390.108 0.0950302 -4.96209 0
M  V30 4149 H 385.364 -0.79168 -6.06253 0
M  V30 4150 H 389.538 -1.43026 -6.81554 0
M  V30 4151 H 387.165 -1.87967 -7.36595 0
M  V30 4152 N 388.74 1.54641 0.303973 0
M  V30 4153 C 389.673 1.80263 1.3993 0
M  V30 4154 C 390.651 0.653657 1.48883 0
M  V30 4155 O 391.835 0.893284 1.6599 0
M  V30 4156 C 388.962 1.9367 2.77866 0
M  V30 4157 C 388.008 3.16078 2.86351 0
M  V30 4158 S 388.841 4.74219 2.4875 0
M  V30 4159 C 389.997 4.90558 3.88721 0
M  V30 4160 H 390.23 2.72886 1.17986 0
M  V30 4161 H 387.763 1.46014 0.501918 0
M  V30 4162 H 389.721 2.0208 3.57315 0
M  V30 4163 H 388.382 1.01991 2.9708 0
M  V30 4164 H 387.575 3.22252 3.87517 0
M  V30 4165 H 387.177 3.06099 2.14893 0
M  V30 4166 H 389.469 4.74398 4.83687 0
M  V30 4167 H 390.412 5.92651 3.87518 0
M  V30 4168 H 390.82 4.18728 3.78585 0
M  V30 4169 N 390.218 -0.567019 1.47046 0
M  V30 4170 C 391.15 -1.68985 1.54844 0
M  V30 4171 C 392.163 -1.56869 0.435431 0
M  V30 4172 O 393.352 -1.64006 0.70457 0
M  V30 4173 C 390.452 -3.07373 1.42742 0
M  V30 4174 C 389.625 -3.45339 2.6844 0
M  V30 4175 C 388.684 -4.62849 2.50314 0
M  V30 4176 O 387.71 -4.67922 3.24095 0
M  V30 4177 N 388.912 -5.58726 1.57499 0
M  V30 4178 H 391.677 -1.62745 2.51663 0
M  V30 4179 H 389.238 -0.753411 1.43302 0
M  V30 4180 H 391.23 -3.83803 1.28365 0
M  V30 4181 H 389.8 -3.07893 0.540445 0
M  V30 4182 H 389.02 -2.58455 2.97648 0
M  V30 4183 H 390.308 -3.67476 3.51907 0
M  V30 4184 H 389.706 -5.57376 0.966876 0
M  V30 4185 H 388.263 -6.34523 1.49078 0
M  V30 4186 N 391.696 -1.35014 -0.812953 0
M  V30 4187 C 392.659 -1.27292 -1.90602 0
M  V30 4188 C 393.659 -0.185817 -1.59723 0
M  V30 4189 O 394.849 -0.439102 -1.68575 0
M  V30 4190 C 391.981 -0.967676 -3.26877 0
M  V30 4191 H 393.174 -2.24479 -1.9887 0
M  V30 4192 H 390.727 -1.19446 -1.00808 0
M  V30 4193 H 391.462 0.0005954 -3.243 0
M  V30 4194 H 391.247 -1.75412 -3.50675 0
M  V30 4195 H 392.737 -0.939085 -4.06904 0
M  V30 4196 N 393.175 1.03435 -1.18907 0
M  V30 4197 C 394.421 1.77005 -0.989798 0
M  V30 4198 C 394.754 1.88205 0.478816 0
M  V30 4199 O 394.029 1.39481 1.35556 0
M  V30 4200 C 394.312 3.19925 -1.65287 0
M  V30 4201 C 394.165 3.1663 -3.19477 0
M  V30 4202 C 395.484 4.18189 -1.37134 0
M  V30 4203 H 392.603 0.642538 -0.360991 0
M  V30 4204 H 395.245 1.20784 -1.46667 0
M  V30 4205 H 393.395 3.67929 -1.24741 0
M  V30 4206 H 395.067 2.76567 -3.692 0
M  V30 4207 H 393.31 2.54491 -3.51307 0
M  V30 4208 H 393.981 4.1758 -3.61013 0
M  V30 4209 H 396.457 3.78761 -1.72276 0
M  V30 4210 H 395.333 5.16394 -1.86087 0
M  V30 4211 H 395.594 4.41112 -0.295424 0
M  V30 4212 N 394.653 0.992116 1.22453 0
M  V30 4213 C 395.881 0.685944 1.95198 0
M  V30 4214 C 396.296 -0.749233 1.73297 0
M  V30 4215 O 395.653 -1.50549 1.03156 0
M  V30 4216 C 395.704 0.981395 3.47924 0
M  V30 4217 O 395.425 2.36018 3.6909 0
M  V30 4218 C 396.926 0.692815 4.37853 0
M  V30 4219 H 394.146 0.253821 0.621141 0
M  V30 4220 H 396.69 1.32668 1.55626 0
M  V30 4221 H 394.845 0.386481 3.85467 0
M  V30 4222 H 395.259 2.45884 4.63294 0
M  V30 4223 H 396.733 0.949818 5.43767 0
M  V30 4224 H 397.21 -0.373181 4.37612 0
M  V30 4225 H 397.816 1.26874 4.05935 0
M  V30 4226 N 396.131 -1.37776 0.765217 0
M  V30 4227 C 397.408 -1.93975 0.251596 0
M  V30 4228 C 397.788 -1.69949 -1.25222 0
M  V30 4229 O 397.136 -1.04457 -2.03226 0
M  V30 4230 C 397.346 -3.43487 0.617895 0
M  V30 4231 C 398.694 -4.20564 0.584029 0
M  V30 4232 O 399.718 -3.5182 0.556888 0
M  V30 4233 O 398.577 -5.43138 0.605291 0
M  V30 4234 H 395.671 -0.82509 0.0561806 0
M  V30 4235 H 398.217 -1.47101 0.846128 0
M  V30 4236 H 396.989 -3.5453 1.65602 0
M  V30 4237 H 396.612 -3.976 -0.00403411 0
M  V30 4238 N 397.609 -0.515225 -1.4894 0
M  V30 4239 C 398.556 0.255567 -2.29381 0
M  V30 4240 C 399.526 0.947387 -1.36432 0
M  V30 4241 O 400.711 0.951288 -1.65394 0
M  V30 4242 C 397.851 1.30551 -3.19453 0
M  V30 4243 C 396.964 0.624029 -4.27469 0
M  V30 4244 C 396.099 1.65563 -5.0474 0
M  V30 4245 C 395.138 0.956802 -6.04576 0
M  V30 4246 N 394.275 1.93326 -6.74959 0
M  V30 4247 H 399.115 -0.436607 -2.94784 0
M  V30 4248 H 396.652 -0.227154 -1.45336 0
M  V30 4249 H 398.61 1.92639 -3.70062 0
M  V30 4250 H 397.24 1.96626 -2.56004 0
M  V30 4251 H 396.292 -0.110459 -3.8024 0
M  V30 4252 H 397.604 0.0746092 -4.98744 0
M  V30 4253 H 396.758 2.35119 -5.59289 0
M  V30 4254 H 395.497 2.23893 -4.3327 0
M  V30 4255 H 394.502 0.247097 -5.49244 0
M  V30 4256 H 395.727 0.379814 -6.78037 0
M  V30 4257 H 393.673 2.50591 -6.06251 0
M  V30 4258 H 393.59 1.43489 -7.42258 0
M  V30 4259 H 394.858 2.62126 -7.34105 0
M  V30 4260 N 399.087 1.5561 -0.249682 0
M  V30 4261 C 400.334 1.99011 0.374287 0
M  V30 4262 C 400.662 1.13785 1.57744 0
M  V30 4263 O 399.917 0.189326 1.94782 0
M  V30 4264 C 400.216 3.4775 0.824887 0
M  V30 4265 C 399.882 4.50086 -0.270819 0
M  V30 4266 C 398.544 4.77791 -0.571746 0
M  V30 4267 C 400.896 5.11312 -1.01041 0
M  V30 4268 C 398.224 5.63997 -1.61629 0
M  V30 4269 C 400.576 5.98651 -2.0445 0
M  V30 4270 C 399.24 6.24688 -2.35204 0
M  V30 4271 H 398.51 0.728233 0.136961 0
M  V30 4272 H 401.157 1.88122 -0.358087 0
M  V30 4273 H 399.462 3.55985 1.63651 0
M  V30 4274 H 401.159 3.78721 1.31799 0
M  V30 4275 H 397.749 4.28592 -0.026136 0
M  V30 4276 H 401.933 4.89953 -0.791177 0
M  V30 4277 H 397.189 5.82425 -1.85988 0
M  V30 4278 H 401.363 6.45135 -2.62248 0
M  V30 4279 H 398.99 6.91281 -3.16282 0
M  V30 4280 N 400.565 -0.0233959 1.57583 0
M  V30 4281 C 401.813 -0.711654 1.89156 0
M  V30 4282 C 402.134 -1.75591 0.848096 0
M  V30 4283 O 401.404 -1.95547 -0.117566 0
M  V30 4284 H 399.984 -0.265835 0.698098 0
M  V30 4285 H 402.646 0.0119948 1.94896 0
M  V30 4286 H 401.742 -1.19766 2.88206 0
M  V30 4287 N 402.043 -1.548 -0.295768 0
M  V30 4288 C 403.292 -1.73538 -1.02798 0
M  V30 4289 C 403.605 -0.531159 -1.8825 0
M  V30 4290 O 404.811 -0.600458 -2.64777 0
M  V30 4291 C 403.267 -3.07051 -1.87744 0
M  V30 4292 C 402.875 -4.34968 -1.07269 0
M  V30 4293 C 404.619 -3.35146 -2.60533 0
M  V30 4294 C 402.526 -5.5953 -1.91521 0
M  V30 4295 H 401.456 -0.646794 -0.387522 0
M  V30 4296 H 404.107 -1.81278 -0.284718 0
M  V30 4297 H 402.489 -2.93289 -2.66078 0
M  V30 4298 H 403.663 -4.5958 -0.335117 0
M  V30 4299 H 401.978 -4.13847 -0.460384 0
M  V30 4300 H 404.575 -4.2541 -3.23929 0
M  V30 4301 H 404.918 -2.54255 -3.29636 0
M  V30 4302 H 405.451 -3.49902 -1.89244 0
M  V30 4303 H 402.19 -6.43103 -1.26878 0
M  V30 4304 H 401.71 -5.39096 -2.62937 0
M  V30 4305 H 403.389 -5.96982 -2.49442 0
M  V30 4306 N 403.521 0.559213 -1.47345 0
M  V30 4307 C 404.469 1.68747 -1.60085 0
M  V30 4308 C 405.463 1.628 -0.46825 0
M  V30 4309 O 406.669 1.68009 -0.645977 0
M  V30 4310 H 403.044 0.558329 -0.503759 0
M  V30 4311 H 405.015 1.55138 -2.54902 0
M  V30 4312 C 403.764 3.07103 -1.63042 0
M  V30 4313 H 403.087 3.12361 -2.49541 0
M  V30 4314 H 404.527 3.85743 -1.76006 0
M  V30 4315 C 402.986 3.34935 -0.363357 0
M  V30 4316 O 403.516 3.98102 0.536416 0
M  V30 4317 N 401.722 2.89574 -0.244 0
M  V30 4318 H 401.269 2.38348 -0.977133 0
M  V30 4319 H 401.227 3.08566 0.602836 0
M  V30 4320 N 404.999 1.35443 0.805782 0
M  V30 4321 C 406.239 1.30127 1.57627 0
M  V30 4322 C 406.603 -0.122567 1.91608 0
M  V30 4323 O 407.804 -0.300107 2.67119 0
M  V30 4324 C 406.075 2.18314 2.82973 0
M  V30 4325 S 407.634 2.30521 3.7337 0
M  V30 4326 H 404.452 0.462439 0.540066 0
M  V30 4327 H 407.054 1.70843 0.95042 0
M  V30 4328 H 405.758 3.20741 2.56034 0
M  V30 4329 H 405.289 1.78558 3.50543 0
M  V30 4330 H 407.304 1.49062 4.73281 0
M  V30 4331 N 406.477 -1.02803 1.19454 0
M  V30 4332 C 407.407 -2.12999 0.956758 0
M  V30 4333 C 408.388 -1.69743 -0.110188 0
M  V30 4334 O 409.573 -1.94148 0.0450038 0
M  V30 4335 C 406.703 -3.43746 0.495553 0
M  V30 4336 C 405.657 -4.00688 1.50443 0
M  V30 4337 C 404.983 -5.27067 0.900275 0
M  V30 4338 C 406.283 -4.35397 2.8849 0
M  V30 4339 H 407.977 -2.33148 1.87836 0
M  V30 4340 H 405.523 -1.12045 0.904539 0
M  V30 4341 H 407.476 -4.2021 0.316493 0
M  V30 4342 H 406.2 -3.23321 -0.461646 0
M  V30 4343 H 404.859 -3.2632 1.67065 0
M  V30 4344 H 404.507 -5.02959 -0.064503 0
M  V30 4345 H 404.207 -5.66127 1.57397 0
M  V30 4346 H 405.731 -6.06196 0.73203 0
M  V30 4347 H 407.145 -5.02795 2.75446 0
M  V30 4348 H 405.542 -4.85541 3.52661 0
M  V30 4349 H 406.612 -3.44662 3.41081 0
M  V30 4350 N 407.956 -0.998596 -1.21925 0
M  V30 4351 C 409.205 -0.673085 -1.90138 0
M  V30 4352 C 409.518 0.79895 -1.78539 0
M  V30 4353 O 410.724 1.23628 -2.4172 0
M  V30 4354 C 409.18 -1.15339 -3.40918 0
M  V30 4355 C 408.788 -2.65106 -3.61141 0
M  V30 4356 C 410.532 -0.902476 -4.14796 0
M  V30 4357 C 408.439 -3.0671 -5.05651 0
M  V30 4358 H 407.369 -0.248057 -0.712028 0
M  V30 4359 H 410.02 -1.20891 -1.38049 0
M  V30 4360 H 408.402 -0.545658 -3.92223 0
M  V30 4361 H 409.576 -3.31274 -3.20304 0
M  V30 4362 H 407.891 -2.88142 -3.00605 0
M  V30 4363 H 410.488 -1.18895 -5.21314 0
M  V30 4364 H 410.831 0.161349 -4.15987 0
M  V30 4365 H 411.364 -1.47269 -3.69536 0
M  V30 4366 H 408.103 -4.12292 -5.09603 0
M  V30 4367 H 407.623 -2.45249 -5.47369 0
M  V30 4368 H 409.302 -2.9833 -5.74115 0
M  V30 4369 N 409.434 1.37368 -0.772513 0
M  V30 4370 C 410.366 2.28899 -0.117502 0
M  V30 4371 C 411.379 1.4867 0.663405 0
M  V30 4372 O 412.568 1.71314 0.501372 0
M  V30 4373 C 409.668 3.2788 0.857192 0
M  V30 4374 C 408.841 4.37207 0.129938 0
M  V30 4375 C 407.9 5.16257 1.01811 0
M  V30 4376 O 406.926 5.67159 0.481601 0
M  V30 4377 N 408.128 5.31058 2.3443 0
M  V30 4378 H 410.893 2.85752 -0.903662 0
M  V30 4379 H 408.454 1.49353 -0.62493 0
M  V30 4380 H 410.446 3.77647 1.45482 0
M  V30 4381 H 409.016 2.7179 1.54432 0
M  V30 4382 H 408.236 3.88827 -0.648605 0
M  V30 4383 H 409.524 5.07434 -0.372559 0
M  V30 4384 H 408.922 4.91287 2.80452 0
M  V30 4385 H 407.479 5.84131 2.89197 0
M  V30 4386 N 410.912 0.523116 1.48665 0
M  V30 4387 C 412.159 -0.0134763 2.02496 0
M  V30 4388 C 412.487 -1.3493 1.40086 0
M  V30 4389 O 411.742 -1.88286 0.533567 0
M  V30 4390 C 412.041 -0.191671 3.56886 0
M  V30 4391 C 411.707 1.06893 4.38046 0
M  V30 4392 C 410.369 1.41443 4.59943 0
M  V30 4393 C 412.721 1.90584 4.85106 0
M  V30 4394 C 410.049 2.59594 5.26144 0
M  V30 4395 C 412.401 3.07907 5.52609 0
M  V30 4396 C 411.065 3.42811 5.72745 0
M  V30 4397 H 410.335 -0.00493133 0.740984 0
M  V30 4398 H 412.982 0.687751 1.78724 0
M  V30 4399 H 411.287 -0.97561 3.79459 0
M  V30 4400 H 412.984 -0.621659 3.96152 0
M  V30 4401 H 409.574 0.789848 4.21259 0
M  V30 4402 H 413.758 1.65203 4.67997 0
M  V30 4403 H 409.014 2.86847 5.39934 0
M  V30 4404 H 413.188 3.73066 5.88043 0
M  V30 4405 H 410.815 4.34462 6.23816 0
M  V30 4406 N 412.39 -1.55475 0.257931 0
M  V30 4407 C 413.3 -2.2549 -0.647425 0
M  V30 4408 C 414.316 -1.2748 -1.18427 0
M  V30 4409 O 415.492 -1.6038 -1.2182 0
M  V30 4410 C 412.557 -2.94916 -1.82278 0
M  V30 4411 C 411.618 -4.08363 -1.32432 0
M  V30 4412 C 410.851 -4.74469 -2.44366 0
M  V30 4413 O 411.074 -4.39701 -3.63344 0
M  V30 4414 O 410.008 -5.62763 -2.13497 0
M  V30 4415 H 413.834 -3.03593 -0.0807707 0
M  V30 4416 H 411.419 -1.49377 0.0259962 0
M  V30 4417 H 413.301 -3.38606 -2.50846 0
M  V30 4418 H 411.976 -2.19744 -2.37685 0
M  V30 4419 H 410.883 -3.69166 -0.605605 0
M  V30 4420 H 412.216 -4.85385 -0.816211 0
M  V30 4421 N 413.868 0.0150385 -1.57593 0
M  V30 4422 C 415.145 0.7392 -1.81094 0
M  V30 4423 C 415.525 1.92817 -0.859344 0
M  V30 4424 O 414.873 2.28301 0.095362 0
M  V30 4425 C 415.083 1.15907 -3.29191 0
M  V30 4426 C 416.431 1.56918 -3.9454 0
M  V30 4427 O 417.455 1.25328 -3.33424 0
M  V30 4428 O 416.314 2.15604 -5.02173 0
M  V30 4429 H 413.408 0.358631 -0.745193 0
M  V30 4430 H 415.954 -0.00926156 -1.69697 0
M  V30 4431 H 414.726 0.310921 -3.90063 0
M  V30 4432 H 414.349 1.96711 -3.45529 0
M  V30 4433 N 415.346 1.54954 0.287554 0
M  V30 4434 C 416.593 1.74873 1.02106 0
M  V30 4435 C 416.921 0.541829 1.86801 0
M  V30 4436 O 416.176 -0.475992 1.89823 0
M  V30 4437 C 416.475 2.99833 1.94512 0
M  V30 4438 C 416.141 4.33029 1.25686 0
M  V30 4439 C 414.803 4.69233 1.06649 0
M  V30 4440 C 417.155 5.15542 0.765913 0
M  V30 4441 C 414.483 5.85518 0.372222 0
M  V30 4442 C 416.835 6.32542 0.0853101 0
M  V30 4443 C 415.499 6.67398 -0.1169 0
M  V30 4444 H 414.769 0.639906 0.373632 0
M  V30 4445 H 417.416 1.89219 0.294665 0
M  V30 4446 H 415.721 2.80325 2.73725 0
M  V30 4447 H 417.418 3.1244 2.51361 0
M  V30 4448 H 414.008 4.04564 1.41512 0
M  V30 4449 H 418.192 4.88059 0.90066 0
M  V30 4450 H 413.448 6.11057 0.204695 0
M  V30 4451 H 417.622 6.95741 -0.302936 0
M  V30 4452 H 415.249 7.57357 -0.656859 0
M  V30 4453 N 416.824 -0.551391 1.4764 0
M  V30 4454 C 417.787 -1.64007 1.60107 0
M  V30 4455 C 418.787 -1.53601 0.47576 0
M  V30 4456 O 419.977 -1.57655 0.740988 0
M  V30 4457 C 417.109 -3.03569 1.55108 0
M  V30 4458 H 418.302 -1.543 2.57161 0
M  V30 4459 H 415.855 -0.771776 1.35917 0
M  V30 4460 H 416.59 -3.18804 0.594519 0
M  V30 4461 H 416.375 -3.12532 2.36783 0
M  V30 4462 H 417.865 -3.82762 1.66982 0
M  V30 4463 N 418.302 -1.35869 -0.798587 0
M  V30 4464 C 419.25 -1.29491 -1.93222 0
M  V30 4465 C 420.244 -0.18836 -1.6835 0
M  V30 4466 O 421.45 -0.354822 -1.76468 0
M  V30 4467 H 417.825 -0.402901 -0.63496 0
M  V30 4468 H 419.796 -2.25247 -1.9572 0
M  V30 4469 C 418.545 -1.09184 -3.30112 0
M  V30 4470 H 417.868 -1.93574 -3.49813 0
M  V30 4471 H 419.308 -1.08766 -4.09812 0
M  V30 4472 C 417.767 0.203959 -3.36282 0
M  V30 4473 O 418.297 1.19699 -3.83451 0
M  V30 4474 N 416.503 0.245488 -2.89561 0
M  V30 4475 H 416.05 -0.563223 -2.51367 0
M  V30 4476 H 416.008 1.11219 -2.94071 0
M  V30 4477 N 419.78 1.02168 -1.19998 0
M  V30 4478 C 420.743 2.08765 -0.94604 0
M  V30 4479 C 421.743 1.60618 0.0763846 0
M  V30 4480 O 422.933 1.73472 -0.159135 0
M  V30 4481 C 420.065 3.38262 -0.423255 0
M  V30 4482 H 421.258 2.32726 -1.89153 0
M  V30 4483 H 418.811 1.1889 -1.01464 0
M  V30 4484 H 419.546 3.19974 0.527938 0
M  V30 4485 H 419.331 3.74532 -1.16053 0
M  V30 4486 H 420.821 4.16759 -0.264911 0
M  V30 4487 N 421.258 1.00505 1.21394 0
M  V30 4488 C 422.206 0.558623 2.25792 0
M  V30 4489 C 423.2 -0.396848 1.64686 0
M  V30 4490 O 424.406 -0.268035 1.77993 0
M  V30 4491 H 420.781 0.1623 0.734277 0
M  V30 4492 H 422.752 1.4503 2.60785 0
M  V30 4493 C 421.501 -0.0989574 3.47559 0
M  V30 4494 H 420.824 0.627225 3.94849 0
M  V30 4495 H 422.264 -0.3746 4.22342 0
M  V30 4496 C 420.723 -1.33817 3.09184 0
M  V30 4497 O 421.253 -2.43252 3.19674 0
M  V30 4498 N 419.459 -1.21793 2.63846 0
M  V30 4499 H 419.006 -0.32746 2.5551 0
M  V30 4500 H 418.964 -2.04809 2.38539 0
M  V30 4501 N 422.737 -1.36956 0.779787 0
M  V30 4502 C 423.7 -2.2851 0.177662 0
M  V30 4503 C 424.7 -1.48393 -0.619377 0
M  V30 4504 O 425.89 -1.68505 -0.441785 0
M  V30 4505 C 423.022 -3.32428 -0.755279 0
M  V30 4506 H 424.215 -2.83269 0.984823 0
M  V30 4507 H 421.768 -1.46358 0.548544 0
M  V30 4508 H 422.503 -2.82808 -1.58714 0
M  V30 4509 H 422.288 -3.91659 -0.185817 0
M  V30 4510 H 423.778 -4.00824 -1.17174 0
M  V30 4511 N 424.215 -0.530993 -1.48385 0
M  V30 4512 C 425.462 0.0027373 -2.025 0
M  V30 4513 C 425.79 1.34186 -1.40799 0
M  V30 4514 O 425.045 1.88 -0.543544 0
M  V30 4515 C 425.344 0.172742 -3.56982 0
M  V30 4516 C 425.01 -1.09215 -4.37473 0
M  V30 4517 C 423.672 -1.43881 -4.59186 0
M  V30 4518 C 426.024 -1.93153 -4.84088 0
M  V30 4519 C 423.352 -2.62381 -5.2476 0
M  V30 4520 C 425.704 -3.10833 -5.50968 0
M  V30 4521 C 424.368 -3.45843 -5.70919 0
M  V30 4522 H 423.638 0.00100165 -0.740999 0
M  V30 4523 H 426.285 -0.697219 -1.78357 0
M  V30 4524 H 424.59 0.955473 -3.79971 0
M  V30 4525 H 426.287 0.600642 -3.96476 0
M  V30 4526 H 422.877 -0.812177 -4.20834 0
M  V30 4527 H 427.061 -1.67683 -4.67115 0
M  V30 4528 H 422.317 -2.89707 -5.38405 0
M  V30 4529 H 426.491 -3.7618 -5.86056 0
M  V30 4530 H 424.118 -4.37764 -6.21503 0
M  V30 4531 N 425.693 1.55336 -0.266172 0
M  V30 4532 C 427.109 1.59356 0.0882065 0
M  V30 4533 C 427.309 1.2834 1.55342 0
M  V30 4534 O 426.365 1.03996 2.30089 0
M  V30 4535 C 427.678 2.99409 -0.278364 0
M  V30 4536 C 429.226 3.12196 -0.224243 0
M  V30 4537 C 429.701 4.545 -0.565123 0
M  V30 4538 N 431.192 4.60313 -0.51634 0
M  V30 4539 C 431.927 5.68434 -0.753013 0
M  V30 4540 N 431.423 6.84738 -1.05383 0
M  V30 4541 N 433.216 5.57942 -0.682414 0
M  V30 4542 H 425.367 1.73764 -1.22147 0
M  V30 4543 H 427.63 0.809822 -0.492841 0
M  V30 4544 H 427.336 3.2691 -1.29703 0
M  V30 4545 H 427.21 3.75228 0.385186 0
M  V30 4546 H 429.597 2.84464 0.78512 0
M  V30 4547 H 429.678 2.38609 -0.921922 0
M  V30 4548 H 429.322 4.82956 -1.57213 0
M  V30 4549 H 429.252 5.26374 0.154248 0
M  V30 4550 H 431.743 3.7676 -0.29335 0
M  V30 4551 H 432.056 7.63088 -1.22133 0
M  V30 4552 H 430.401 6.86375 -1.09151 0
M  V30 4553 H 433.592 4.65958 -0.44731 0
M  V30 4554 H 433.765 6.4213 -0.870248 0
M  V30 4555 N 427.171 -0.0066808 1.57599 0
M  V30 4556 C 428.101 -0.999296 2.11036 0
M  V30 4557 C 429.082 -1.36278 1.01795 0
M  V30 4558 O 430.267 -1.4477 1.29442 0
M  V30 4559 C 427.397 -2.29328 2.60818 0
M  V30 4560 C 426.351 -2.07159 3.74525 0
M  V30 4561 C 425.677 -3.42512 4.10596 0
M  V30 4562 C 426.977 -1.43959 5.02069 0
M  V30 4563 H 428.671 -0.554382 2.94223 0
M  V30 4564 H 426.217 -0.265221 1.41536 0
M  V30 4565 H 428.17 -2.99117 2.96828 0
M  V30 4566 H 426.894 -2.7592 1.74745 0
M  V30 4567 H 425.553 -1.39797 3.38899 0
M  V30 4568 H 425.201 -3.86795 3.21556 0
M  V30 4569 H 424.901 -3.28498 4.87199 0
M  V30 4570 H 426.425 -4.13628 4.4916 0
M  V30 4571 H 427.839 -2.03696 5.35893 0
M  V30 4572 H 426.236 -1.40452 5.83432 0
M  V30 4573 H 427.306 -0.407992 4.83181 0
M  V30 4574 N 428.649 -1.55105 -0.279332 0
M  V30 4575 C 429.579 -1.90557 -1.34945 0
M  V30 4576 C 430.56 -0.766738 -1.51839 0
M  V30 4577 O 431.745 -1.02434 -1.64988 0
M  V30 4578 C 428.875 -2.17193 -2.71006 0
M  V30 4579 C 427.829 -3.33021 -2.68851 0
M  V30 4580 C 427.155 -3.45123 -4.08405 0
M  V30 4581 C 428.455 -4.69578 -2.28678 0
M  V30 4582 H 430.149 -2.80188 -1.05522 0
M  V30 4583 H 427.695 -1.34811 -0.506173 0
M  V30 4584 H 429.648 -2.40581 -3.45975 0
M  V30 4585 H 428.372 -1.24355 -3.01999 0
M  V30 4586 H 427.031 -3.0959 -1.9634 0
M  V30 4587 H 426.679 -2.49762 -4.3661 0
M  V30 4588 H 426.379 -4.22995 -4.07859 0
M  V30 4589 H 427.903 -3.70796 -4.85121 0
M  V30 4590 H 429.317 -4.92553 -2.93368 0
M  V30 4591 H 427.714 -5.5032 -2.39306 0
M  V30 4592 H 428.784 -4.68828 -1.23807 0
M  V30 4593 N 430.127 0.543554 -1.4793 0
M  V30 4594 C 431.075 1.67039 -1.61866 0
M  V30 4595 C 432.069 1.62294 -0.48549 0
M  V30 4596 O 433.275 1.67315 -0.66376 0
M  V30 4597 H 429.65 0.552954 -0.509652 0
M  V30 4598 H 431.621 1.52426 -2.56533 0
M  V30 4599 C 430.37 3.05357 -1.6629 0
M  V30 4600 H 429.693 3.09696 -2.5284 0
M  V30 4601 H 431.133 3.83855 -1.80088 0
M  V30 4602 C 429.592 3.34531 -0.398861 0
M  V30 4603 O 430.122 3.98649 0.494162 0
M  V30 4604 N 428.328 2.89299 -0.2747 0
M  V30 4605 H 427.875 2.37298 -1.00236 0
M  V30 4606 H 427.833 3.09188 0.570075 0
M  V30 4607 N 431.605 1.3629 0.791371 0
M  V30 4608 C 432.552 1.30458 1.90393 0
M  V30 4609 C 433.522 0.173632 1.6519 0
M  V30 4610 O 434.707 0.35983 1.87376 0
M  V30 4611 C 431.847 1.09777 3.27174 0
M  V30 4612 C 430.96 2.31929 3.64462 0
M  V30 4613 C 430.095 2.04276 4.90352 0
M  V30 4614 C 429.134 3.224 5.20312 0
M  V30 4615 N 428.271 2.94424 6.37385 0
M  V30 4616 H 433.111 2.25589 1.94714 0
M  V30 4617 H 430.648 1.12122 0.952216 0
M  V30 4618 H 432.606 0.958133 4.06049 0
M  V30 4619 H 431.236 0.183014 3.22281 0
M  V30 4620 H 430.288 2.56703 2.80727 0
M  V30 4621 H 431.6 3.20085 3.82553 0
M  V30 4622 H 430.754 1.87231 5.77087 0
M  V30 4623 H 429.493 1.13428 4.74326 0
M  V30 4624 H 428.498 3.40005 4.32061 0
M  V30 4625 H 429.723 4.14071 5.38258 0
M  V30 4626 H 427.669 2.06185 6.22755 0
M  V30 4627 H 427.586 3.76118 6.55798 0
M  V30 4628 H 428.854 2.80953 7.27108 0
M  V30 4629 N 433.083 -1.0153 1.20538 0
M  V30 4630 C 434.313 -1.78487 1.04048 0
M  V30 4631 C 434.721 -1.84631 -0.413292 0
M  V30 4632 O 434.064 -1.29919 -1.29872 0
M  V30 4633 C 434.126 -3.24367 1.55003 0
M  V30 4634 C 433.79 -3.41827 3.0332 0
M  V30 4635 C 434.787 -3.30941 4.00966 0
M  V30 4636 C 432.472 -3.67602 3.42307 0
M  V30 4637 C 434.466 -3.45577 5.35589 0
M  V30 4638 C 432.153 -3.81881 4.77085 0
M  V30 4639 C 433.151 -3.70874 5.73534 0
M  V30 4640 O 432.839 -3.84714 7.05868 0
M  V30 4641 H 432.571 -0.568108 0.366373 0
M  V30 4642 H 435.125 -1.28677 1.60098 0
M  V30 4643 H 433.355 -3.75266 0.933397 0
M  V30 4644 H 435.044 -3.82963 1.34514 0
M  V30 4645 H 435.81 -3.10964 3.72191 0
M  V30 4646 H 431.689 -3.75256 2.67776 0
M  V30 4647 H 435.233 -3.36902 6.10854 0
M  V30 4648 H 431.13 -4.01359 5.0555 0
M  V30 4649 H 431.898 -4.01724 7.13134 0
M  V30 4650 N 434.561 -1.01147 -1.20859 0
M  V30 4651 C 435.977 -0.725422 -1.42161 0
M  V30 4652 C 436.177 0.696919 -1.89064 0
M  V30 4653 O 435.233 1.46539 -2.05627 0
M  V30 4654 C 436.546 -1.74678 -2.44761 0
M  V30 4655 C 438.094 -1.76433 -2.58535 0
M  V30 4656 C 438.569 -2.77481 -3.64374 0
M  V30 4657 N 440.06 -2.76189 -3.71852 0
M  V30 4658 C 440.795 -3.51035 -4.53389 0
M  V30 4659 N 440.291 -4.35541 -5.38773 0
M  V30 4660 N 442.084 -3.39655 -4.47873 0
M  V30 4661 H 434.235 -1.92979 -0.887282 0
M  V30 4662 H 436.498 -0.833327 -0.451962 0
M  V30 4663 H 436.204 -2.76551 -2.17285 0
M  V30 4664 H 436.078 -1.55472 -3.43669 0
M  V30 4665 H 438.465 -0.75248 -2.85345 0
M  V30 4666 H 438.546 -1.99712 -1.5984 0
M  V30 4667 H 438.19 -3.78827 -3.38308 0
M  V30 4668 H 438.12 -2.51466 -4.6268 0
M  V30 4669 H 440.611 -2.14885 -3.10858 0
M  V30 4670 H 440.924 -4.89432 -5.98061 0
M  V30 4671 H 439.269 -4.39621 -5.38292 0
M  V30 4672 H 442.46 -2.73063 -3.80203 0
M  V30 4673 H 442.633 -3.9824 -5.11184 0
M  V30 4674 N 436.039 1.36541 -0.78704 0
M  V30 4675 C 436.987 2.31965 -0.171724 0
M  V30 4676 C 437.981 1.55689 0.667631 0
M  V30 4677 O 439.187 1.70969 0.562981 0
M  V30 4678 H 435.562 0.751101 -0.0367545 0
M  V30 4679 H 437.533 2.81428 -0.992017 0
M  V30 4680 C 436.282 3.40968 0.680904 0
M  V30 4681 H 435.605 3.99775 0.0443961 0
M  V30 4682 H 437.045 4.10063 1.07815 0
M  V30 4683 C 435.504 2.82338 1.83813 0
M  V30 4684 O 436.034 2.74311 2.93456 0
M  V30 4685 N 434.24 2.39661 1.6435 0
M  V30 4686 H 433.787 2.46389 0.751668 0
M  V30 4687 H 433.745 2.00779 2.4194 0
M  V30 4688 N 437.518 0.538854 1.48102 0
M  V30 4689 C 438.465 -0.219042 2.29758 0
M  V30 4690 C 439.435 -0.925562 1.37922 0
M  V30 4691 O 440.62 -0.924855 1.66886 0
M  V30 4692 C 437.76 -1.25452 3.2149 0
M  V30 4693 C 436.873 -0.555943 4.28408 0
M  V30 4694 C 436.008 -1.57512 5.0731 0
M  V30 4695 C 435.047 -0.860498 6.06021 0
M  V30 4696 N 434.184 -1.82564 6.77949 0
M  V30 4697 H 439.024 0.483449 2.94052 0
M  V30 4698 H 436.561 0.250247 1.44956 0
M  V30 4699 H 438.519 -1.86727 3.7308 0
M  V30 4700 H 437.149 -1.92528 2.591 0
M  V30 4701 H 436.201 0.170938 3.80016 0
M  V30 4702 H 437.513 0.00474616 4.988 0
M  V30 4703 H 436.667 -2.26191 5.62959 0
M  V30 4704 H 435.406 -2.16972 4.36778 0
M  V30 4705 H 434.411 -0.159686 5.49568 0
M  V30 4706 H 435.636 -0.271897 6.78555 0
M  V30 4707 H 433.582 -2.40915 6.10161 0
M  V30 4708 H 433.499 -1.31662 7.44447 0
M  V30 4709 H 434.767 -2.50414 7.38182 0
M  V30 4710 N 438.996 -1.55193 0.274407 0
M  V30 4711 C 440.226 -2.03692 -0.345442 0
M  V30 4712 C 440.634 -1.15224 -1.50067 0
M  V30 4713 O 439.977 -0.164749 -1.8296 0
M  V30 4714 C 440.039 -3.48325 -0.88939 0
M  V30 4715 C 439.703 -4.56794 0.137115 0
M  V30 4716 C 440.7 -5.11028 0.956378 0
M  V30 4717 C 438.385 -5.01568 0.27115 0
M  V30 4718 C 440.379 -6.08552 1.89587 0
M  V30 4719 C 438.066 -5.98918 1.21412 0
M  V30 4720 C 439.064 -6.52291 2.02498 0
M  V30 4721 O 438.752 -7.47738 2.952 0
M  V30 4722 H 438.484 -0.670893 -0.0829332 0
M  V30 4723 H 441.038 -2.01387 0.404056 0
M  V30 4724 H 439.268 -3.47867 -1.68895 0
M  V30 4725 H 440.957 -3.80167 -1.42225 0
M  V30 4726 H 441.723 -4.7725 0.863559 0
M  V30 4727 H 437.602 -4.5967 -0.349987 0
M  V30 4728 H 441.146 -6.50137 2.52918 0
M  V30 4729 H 437.043 -6.32114 1.30776 0
M  V30 4730 H 437.811 -7.65451 2.89874 0
M  V30 4731 N 440.474 -0.00167713 -1.576 0
M  V30 4732 C 441.714 0.687302 -1.92498 0
M  V30 4733 C 442.078 1.70844 -0.876144 0
M  V30 4734 O 443.279 2.44792 -1.11043 0
M  V30 4735 C 441.55 1.31217 -3.32441 0
M  V30 4736 S 443.109 2.02604 -3.89226 0
M  V30 4737 H 439.927 0.226985 -0.673794 0
M  V30 4738 H 442.529 -0.0587666 -1.95412 0
M  V30 4739 H 441.233 0.556164 -4.06614 0
M  V30 4740 H 440.764 2.09613 -3.32905 0
M  V30 4741 H 442.779 3.30137 -3.70438 0
M  V30 4742 N 441.952 1.55251 0.271103 0
M  V30 4743 C 442.885 1.83191 1.36075 0
M  V30 4744 C 443.863 0.685091 1.47463 0
M  V30 4745 O 445.047 0.928292 1.64058 0
M  V30 4746 C 442.174 1.99521 2.73696 0
M  V30 4747 C 441.22 3.22081 2.79582 0
M  V30 4748 S 442.053 4.79388 2.38636 0
M  V30 4749 C 443.209 4.98693 3.78228 0
M  V30 4750 H 443.442 2.75327 1.12171 0
M  V30 4751 H 440.975 1.47046 0.470833 0
M  V30 4752 H 442.933 2.09613 3.52948 0
M  V30 4753 H 441.594 1.0827 2.9485 0
M  V30 4754 H 440.787 3.304 3.80594 0
M  V30 4755 H 440.389 3.10589 2.08352 0
M  V30 4756 H 442.681 4.84551 4.73515 0
M  V30 4757 H 443.624 6.00738 3.7486 0
M  V30 4758 H 444.032 4.26665 3.69618 0
M  V30 4759 N 443.43 -0.535701 1.48216 0
M  V30 4760 C 444.677 -1.29183 1.55942 0
M  V30 4761 C 445.005 -1.93125 0.230857 0
M  V30 4762 O 444.26 -1.79556 -0.778331 0
M  V30 4763 C 444.559 -2.4068 2.64212 0
M  V30 4764 C 444.225 -1.94428 4.06827 0
M  V30 4765 C 442.887 -1.81532 4.45645 0
M  V30 4766 C 445.239 -1.59405 4.96225 0
M  V30 4767 C 442.567 -1.31939 5.71672 0
M  V30 4768 C 444.919 -1.11276 6.22736 0
M  V30 4769 C 443.583 -0.969924 6.60416 0
M  V30 4770 H 442.853 -0.472715 0.570632 0
M  V30 4771 H 445.5 -0.598437 1.81909 0
M  V30 4772 H 443.805 -3.15666 2.32083 0
M  V30 4773 H 445.502 -2.98822 2.67407 0
M  V30 4774 H 442.092 -2.05415 3.76168 0
M  V30 4775 H 446.276 -1.68231 4.66917 0
M  V30 4776 H 441.532 -1.19562 5.99596 0
M  V30 4777 H 445.706 -0.832453 6.91407 0
M  V30 4778 H 443.333 -0.583436 7.57958 0
M  V30 4779 N 444.908 -1.36708 -0.784132 0
M  V30 4780 C 445.856 -1.31533 -1.91838 0
M  V30 4781 C 446.85 -0.206205 -1.6814 0
M  V30 4782 O 448.056 -0.373519 -1.76082 0
M  V30 4783 H 444.431 -0.409613 -0.630651 0
M  V30 4784 H 446.402 -2.2731 -1.9332 0
M  V30 4785 C 445.151 -1.12679 -3.28936 0
M  V30 4786 H 444.474 -1.97274 -3.4774 0
M  V30 4787 H 445.914 -1.13106 -4.08636 0
M  V30 4788 C 444.373 0.168281 -3.36479 0
M  V30 4789 O 444.903 1.15625 -3.84699 0
M  V30 4790 N 443.109 0.214762 -2.89805 0
M  V30 4791 H 442.656 -0.589852 -2.50756 0
M  V30 4792 H 442.614 1.08094 -2.95234 0
M  V30 4793 N 446.386 1.0089 -1.21074 0
M  V30 4794 C 447.663 1.71834 -0.934469 0
M  V30 4795 C 448.043 2.0368 0.554753 0
M  V30 4796 O 447.391 1.70742 1.51854 0
M  V30 4797 C 447.601 2.98061 -1.8155 0
M  V30 4798 C 448.949 3.7117 -2.06199 0
M  V30 4799 O 449.973 3.08034 -1.78867 0
M  V30 4800 O 448.832 4.84721 -2.52404 0
M  V30 4801 H 445.926 0.749253 -0.35007 0
M  V30 4802 H 448.472 1.06668 -1.31985 0
M  V30 4803 H 447.244 2.70908 -2.82355 0
M  V30 4804 H 446.867 3.70968 -1.43068 0
M  V30 4805 N 447.864 1.01787 1.20321 0
M  V30 4806 C 449.141 0.622978 1.85414 0
M  V30 4807 C 449.521 -0.898887 1.91006 0
M  V30 4808 O 448.869 -1.79112 1.41884 0
M  V30 4809 C 449.079 1.27226 3.24984 0
M  V30 4810 C 450.427 1.3885 4.01255 0
M  V30 4811 O 451.451 1.22857 3.34342 0
M  V30 4812 O 450.31 1.64705 5.2109 0
M  V30 4813 H 447.404 0.215116 0.798533 0
M  V30 4814 H 449.95 1.11533 1.27901 0
M  V30 4815 H 448.722 2.31209 3.15687 0
M  V30 4816 H 448.345 0.767069 3.90131 0
M  V30 4817 N 449.342 -1.36122 0.79427 0
M  V30 4818 C 450.591 -1.98361 0.365464 0
M  V30 4819 C 450.904 -1.6374 -1.06997 0
M  V30 4820 O 452.11 -2.19251 -1.60129 0
M  V30 4821 C 450.566 -3.54821 0.602496 0
M  V30 4822 C 450.174 -3.98362 2.04967 0
M  V30 4823 C 451.918 -4.2383 0.238437 0
M  V30 4824 C 449.825 -5.47619 2.2331 0
M  V30 4825 H 448.755 -0.742193 0.13291 0
M  V30 4826 H 451.406 -1.55354 0.976589 0
M  V30 4827 H 449.788 -3.95922 -0.078409 0
M  V30 4828 H 450.962 -3.68447 2.76737 0
M  V30 4829 H 449.277 -3.42206 2.37243 0
M  V30 4830 H 451.874 -5.33529 0.353705 0
M  V30 4831 H 452.217 -4.08264 -0.814006 0
M  V30 4832 H 452.75 -3.88108 0.872769 0
M  V30 4833 H 449.489 -5.68138 3.26955 0
M  V30 4834 H 449.009 -5.79145 1.5605 0
M  V30 4835 H 450.688 -6.13911 2.0426 0
M  V30 4836 N 450.82 -0.546701 -1.47814 0
M  V30 4837 C 451.752 0.244196 -2.27895 0
M  V30 4838 C 452.765 0.88911 -1.36377 0
M  V30 4839 O 453.954 0.764733 -1.61289 0
M  V30 4840 C 451.054 1.36252 -3.10304 0
M  V30 4841 C 450.227 0.816382 -4.29714 0
M  V30 4842 C 449.286 1.81789 -4.93801 0
M  V30 4843 O 448.312 1.36818 -5.52512 0
M  V30 4844 N 449.514 3.15085 -4.87547 0
M  V30 4845 H 452.279 -0.442694 -2.96412 0
M  V30 4846 H 449.84 -0.382095 -1.57327 0
M  V30 4847 H 451.832 2.03102 -3.50045 0
M  V30 4848 H 450.402 1.95281 -2.44099 0
M  V30 4849 H 449.622 -0.0285981 -3.9419 0
M  V30 4850 H 450.91 0.430668 -5.06974 0
M  V30 4851 H 450.308 3.54275 -4.41028 0
M  V30 4852 H 448.865 3.77522 -5.31339 0
M  V30 4853 N 452.299 1.55045 -0.282633 0
M  V30 4854 C 453.547 1.99365 0.331334 0
M  V30 4855 C 453.868 1.1725 1.55812 0
M  V30 4856 O 453.138 0.263871 1.94115 0
M  V30 4857 H 451.718 0.736397 0.125414 0
M  V30 4858 H 454.38 1.90964 -0.389711 0
M  V30 4859 H 453.476 3.0596 0.616036 0
M  V30 4860 N 453.777 0.010035 1.57597 0
M  V30 4861 C 455.005 -0.683413 1.95287 0
M  V30 4862 C 455.42 -1.66747 0.885481 0
M  V30 4863 O 454.777 -1.82003 -0.134629 0
M  V30 4864 C 454.828 -1.40652 3.33015 0
M  V30 4865 O 454.549 -0.461916 4.35658 0
M  V30 4866 C 456.05 -2.19356 3.85225 0
M  V30 4867 H 453.27 -0.189708 0.643624 0
M  V30 4868 H 455.814 0.0641359 2.04399 0
M  V30 4869 H 453.969 -2.10562 3.2518 0
M  V30 4870 H 454.383 -0.973215 5.15392 0
M  V30 4871 H 455.857 -2.65433 4.83993 0
M  V30 4872 H 456.334 -3.02457 3.18459 0
M  V30 4873 H 456.94 -1.54442 3.96267 0
M  V30 4874 N 455.255 -1.55392 -0.262866 0
M  V30 4875 C 456.218 -1.88181 -1.30846 0
M  V30 4876 C 457.218 -0.757079 -1.41862 0
M  V30 4877 O 458.408 -1.02519 -1.40838 0
M  V30 4878 C 455.54 -2.09609 -2.68844 0
M  V30 4879 H 456.733 -2.81659 -1.02997 0
M  V30 4880 H 454.286 -1.48039 -0.501414 0
M  V30 4881 H 455.021 -1.18547 -3.01856 0
M  V30 4882 H 454.806 -2.91508 -2.62231 0
M  V30 4883 H 456.296 -2.36215 -3.44372 0
M  V30 4884 N 456.733 0.527833 -1.48498 0
M  V30 4885 C 457.958 1.313 -1.60546 0
M  V30 4886 C 458.383 1.86199 -0.26672 0
M  V30 4887 O 457.741 1.64513 0.761918 0
M  V30 4888 C 457.789 2.43818 -2.65678 0
M  V30 4889 O 456.893 3.46916 -2.22987 0
M  V30 4890 H 456.234 0.388784 -0.538277 0
M  V30 4891 H 458.764 0.634896 -1.945 0
M  V30 4892 H 458.774 2.89973 -2.87018 0
M  V30 4893 H 457.449 2.03222 -3.62869 0
M  V30 4894 H 456.026 3.06864 -2.11869 0
M  V30 4895 N 458.211 1.37122 0.776871 0
M  V30 4896 C 459.457 1.32243 1.53752 0
M  V30 4897 C 459.79 -0.0944745 1.9397 0
M  V30 4898 O 459.065 -1.05068 1.6368 0
M  V30 4899 C 459.348 2.25681 2.80607 0
M  V30 4900 C 459.201 3.76127 2.46676 0
M  V30 4901 C 460.52 2.17657 3.82509 0
M  V30 4902 H 457.639 0.481704 0.557791 0
M  V30 4903 H 460.281 1.6778 0.891612 0
M  V30 4904 H 458.431 1.95505 3.35723 0
M  V30 4905 H 460.103 4.16877 1.97513 0
M  V30 4906 H 458.346 3.94946 1.79443 0
M  V30 4907 H 459.017 4.36933 3.37333 0
M  V30 4908 H 461.493 2.44245 3.36873 0
M  V30 4909 H 460.369 2.85185 4.69 0
M  V30 4910 H 460.63 1.16785 4.26396 0
M  V30 4911 N 459.689 -1.00246 1.21608 0
M  V30 4912 C 460.652 -2.07233 0.979133 0
M  V30 4913 C 461.652 -1.6072 -0.0508219 0
M  V30 4914 O 462.842 -1.73196 0.186712 0
M  V30 4915 C 459.974 -3.37546 0.477016 0
M  V30 4916 H 461.167 -2.29687 1.92831 0
M  V30 4917 H 458.72 -1.17261 1.03342 0
M  V30 4918 H 459.455 -3.20773 -0.476966 0
M  V30 4919 H 459.24 -3.72638 1.21997 0
M  V30 4920 H 460.73 -4.16285 0.331181 0
M  V30 4921 N 461.167 -1.02423 -1.1978 0
M  V30 4922 C 462.413 -0.719051 -1.89625 0
M  V30 4923 C 462.746 0.750083 -1.7913 0
M  V30 4924 O 462.021 1.54574 -1.18056 0
M  V30 4925 C 462.304 -1.16499 -3.40735 0
M  V30 4926 C 462.157 -2.695 -3.60125 0
M  V30 4927 C 463.476 -0.742166 -4.33797 0
M  V30 4928 H 460.595 -0.26269 -0.688595 0
M  V30 4929 H 463.237 -1.27333 -1.41018 0
M  V30 4930 H 461.387 -0.69341 -3.82262 0
M  V30 4931 H 463.059 -3.24569 -3.278 0
M  V30 4932 H 461.302 -3.10113 -3.03336 0
M  V30 4933 H 461.973 -2.95757 -4.66081 0
M  V30 4934 H 464.449 -1.1477 -3.99959 0
M  V30 4935 H 463.325 -1.08213 -5.38127 0
M  V30 4936 H 463.586 0.355747 -4.40666 0
M  V30 4937 N 462.645 1.35699 -0.801477 0
M  V30 4938 C 463.608 2.28199 -0.213994 0
M  V30 4939 C 464.608 1.49359 0.595691 0
M  V30 4940 O 465.798 1.69186 0.414921 0
M  V30 4941 C 462.93 3.33587 0.702297 0
M  V30 4942 H 464.123 2.81666 -1.02976 0
M  V30 4943 H 461.676 1.45467 -0.571759 0
M  V30 4944 H 462.411 2.85297 1.54195 0
M  V30 4945 H 462.196 3.91906 0.123484 0
M  V30 4946 H 463.686 4.02638 1.10783 0
M  V30 4947 N 464.123 0.554532 1.47522 0
M  V30 4948 C 465.371 0.0294208 2.02079 0
M  V30 4949 C 465.692 -1.32411 1.43151 0
M  V30 4950 O 464.962 -1.863 0.605728 0
M  V30 4951 H 463.542 0.00788672 0.746958 0
M  V30 4952 H 466.204 0.723934 1.80956 0
M  V30 4953 H 465.3 -0.0606745 3.12041 0
M  V30 4954 N 465.601 -1.54893 0.290851 0
M  V30 4955 C 466.85 -1.99111 -0.322113 0
M  V30 4956 C 467.163 -1.18283 -1.55784 0
M  V30 4957 O 468.369 -1.5272 -2.24475 0
M  V30 4958 C 466.825 -3.54442 -0.624438 0
M  V30 4959 C 466.433 -4.44066 0.592373 0
M  V30 4960 C 468.177 -4.07211 -1.19916 0
M  V30 4961 C 466.084 -5.90812 0.263762 0
M  V30 4962 H 465.014 -0.743712 -0.124133 0
M  V30 4963 H 467.665 -1.79132 0.39797 0
M  V30 4964 H 466.047 -3.70281 -1.40384 0
M  V30 4965 H 467.221 -4.39999 1.36886 0
M  V30 4966 H 465.536 -4.02015 1.08502 0
M  V30 4967 H 468.133 -5.14407 -1.45909 0
M  V30 4968 H 468.476 -3.57196 -2.13815 0
M  V30 4969 H 469.009 -3.94873 -0.481687 0
M  V30 4970 H 465.748 -6.44955 1.17105 0
M  V30 4971 H 465.268 -5.97911 -0.475655 0
M  V30 4972 H 466.947 -6.46852 -0.138354 0
M  V30 4973 N 467.08 -0.0183926 -1.57589 0
M  V30 4974 C 468.01 0.965596 -2.12599 0
M  V30 4975 C 468.991 1.34641 -1.0395 0
M  V30 4976 O 470.176 1.42693 -1.31729 0
M  V30 4977 C 467.306 2.25149 -2.64434 0
M  V30 4978 C 466.26 2.01175 -3.77773 0
M  V30 4979 C 465.586 3.35937 -4.15994 0
M  V30 4980 C 466.886 1.35953 -5.04296 0
M  V30 4981 H 468.58 0.507504 -2.95067 0
M  V30 4982 H 466.126 0.242671 -1.41941 0
M  V30 4983 H 468.079 2.94357 -3.01549 0
M  V30 4984 H 466.803 2.73105 -1.79112 0
M  V30 4985 H 465.462 1.34388 -3.4108 0
M  V30 4986 H 465.11 3.81631 -3.27669 0
M  V30 4987 H 464.81 3.20705 -4.92364 0
M  V30 4988 H 466.334 4.0643 -4.55683 0
M  V30 4989 H 467.748 1.95144 -5.39065 0
M  V30 4990 H 466.145 1.31152 -5.85593 0
M  V30 4991 H 467.215 0.331071 -4.83768 0
M  V30 4992 N 468.558 1.5553 0.254621 0
M  V30 4993 C 469.521 1.88872 1.29846 0
M  V30 4994 C 470.521 0.764591 1.41459 0
M  V30 4995 O 471.711 1.03265 1.40293 0
M  V30 4996 C 468.843 2.11032 2.67728 0
M  V30 4997 H 470.036 2.82201 1.01502 0
M  V30 4998 H 467.589 1.48303 0.493556 0
M  V30 4999 H 468.324 1.20146 3.01223 0
M  V30 5000 H 468.109 2.92895 2.60682 0
M  V30 5001 H 469.599 2.38038 3.43115 0
M  V30 5002 N 470.036 -0.519951 1.48776 0
M  V30 5003 C 470.999 -1.60574 1.6355 0
M  V30 5004 C 471.999 -1.52557 0.508234 0
M  V30 5005 O 473.189 -1.56047 0.774262 0
M  V30 5006 C 470.321 -3.00211 1.61512 0
M  V30 5007 H 471.514 -1.4881 2.60376 0
M  V30 5008 H 469.067 -0.742772 1.37523 0
M  V30 5009 H 469.802 -3.17471 0.662009 0
M  V30 5010 H 469.587 -3.07439 2.43359 0
M  V30 5011 H 471.077 -3.79134 1.75064 0
M  V30 5012 N 471.514 -1.37532 -0.769588 0
M  V30 5013 C 472.444 -1.36172 -1.89682 0
M  V30 5014 C 473.425 -0.23001 -1.68538 0
M  V30 5015 O 474.61 -0.43069 -1.89364 0
M  V30 5016 C 471.74 -1.1701 -3.26995 0
M  V30 5017 C 470.694 -2.27216 -3.62708 0
M  V30 5018 C 470.02 -1.93174 -4.98586 0
M  V30 5019 C 471.32 -3.6941 -3.69234 0
M  V30 5020 H 473.014 -2.30499 -1.91078 0
M  V30 5021 H 470.56 -1.10953 -0.917902 0
M  V30 5022 H 472.513 -1.14688 -4.05493 0
M  V30 5023 H 471.237 -0.191395 -3.26039 0
M  V30 5024 H 469.896 -2.28697 -2.86519 0
M  V30 5025 H 469.544 -0.938281 -4.94171 0
M  V30 5026 H 469.244 -2.66973 -5.23449 0
M  V30 5027 H 470.768 -1.92443 -5.79481 0
M  V30 5028 H 472.182 -3.70047 -4.37879 0
M  V30 5029 H 470.579 -4.4228 -4.05597 0
M  V30 5030 H 471.649 -4.0288 -2.69844 0
M  V30 5031 N 472.992 0.995999 -1.22138 0
M  V30 5032 C 474.408 1.25917 -0.980667 0
M  V30 5033 C 474.608 1.98819 0.327604 0
M  V30 5034 O 473.664 2.29587 1.05101 0
M  V30 5035 C 474.977 2.07399 -2.17729 0
M  V30 5036 C 476.525 2.20594 -2.22052 0
M  V30 5037 C 477 3.05462 -3.41258 0
M  V30 5038 N 478.491 3.13049 -3.41401 0
M  V30 5039 C 479.226 3.78997 -4.30289 0
M  V30 5040 N 478.722 4.46899 -5.2939 0
M  V30 5041 N 480.515 3.75728 -4.18073 0
M  V30 5042 H 472.666 0.507158 -2.06256 0
M  V30 5043 H 474.929 0.28658 -0.903646 0
M  V30 5044 H 474.635 1.61191 -3.12586 0
M  V30 5045 H 474.509 3.08154 -2.17534 0
M  V30 5046 H 476.896 2.66017 -1.27745 0
M  V30 5047 H 476.977 1.1928 -2.26287 0
M  V30 5048 H 476.621 2.60739 -4.35864 0
M  V30 5049 H 476.551 4.06911 -3.34262 0
M  V30 5050 H 479.042 2.64721 -2.69688 0
M  V30 5051 H 479.355 4.94952 -5.935 0
M  V30 5052 H 477.7 4.45657 -5.33306 0
M  V30 5053 H 480.891 3.2184 -3.39907 0
M  V30 5054 H 481.064 4.26845 -4.87553 0
M  V30 5055 N 474.47 1.03057 1.19235 0
M  V30 5056 C 475.719 0.72326 1.88287 0
M  V30 5057 C 476.032 -0.751333 1.80594 0
M  V30 5058 O 477.238 -1.17176 2.44912 0
M  V30 5059 C 475.694 1.24338 3.3774 0
M  V30 5060 C 475.302 2.74587 3.53986 0
M  V30 5061 C 477.046 1.01213 4.12257 0
M  V30 5062 C 474.953 3.20009 4.97341 0
M  V30 5063 H 473.883 0.266848 0.705201 0
M  V30 5064 H 476.534 1.24509 1.34795 0
M  V30 5065 H 474.916 0.649457 3.90638 0
M  V30 5066 H 476.09 3.39649 3.11408 0
M  V30 5067 H 474.405 2.9601 2.9286 0
M  V30 5068 H 477.002 1.32675 5.17978 0
M  V30 5069 H 477.345 -0.051001 4.16269 0
M  V30 5070 H 477.878 1.57014 3.65501 0
M  V30 5071 H 474.617 4.25659 4.98493 0
M  V30 5072 H 474.137 2.59676 5.40674 0
M  V30 5073 H 475.816 3.13447 5.66003 0
M  V30 5074 N 475.948 -1.35272 0.808662 0
M  V30 5075 C 477.176 -2.02946 0.402537 0
M  V30 5076 C 477.591 -1.60937 -0.987147 0
M  V30 5077 O 476.948 -0.807917 -1.63643 0
M  V30 5078 C 476.999 -3.58317 0.47868 0
M  V30 5079 O 476.72 -3.98799 1.81358 0
M  V30 5080 C 478.221 -4.43251 0.0656281 0
M  V30 5081 H 475.441 -0.650831 0.163279 0
M  V30 5082 H 477.985 -1.72849 1.09286 0
M  V30 5083 H 476.14 -3.87055 -0.163415 0
M  V30 5084 H 476.554 -4.93451 1.77781 0
M  V30 5085 H 478.028 -5.51738 0.170017 0
M  V30 5086 H 478.505 -4.27913 -0.989278 0
M  V30 5087 H 479.111 -4.19813 0.68096 0
M  V30 5088 N 477.426 -0.562348 -1.47226 0
M  V30 5089 C 478.373 0.182461 -2.30078 0
M  V30 5090 C 479.343 0.903503 -1.39377 0
M  V30 5091 O 480.528 0.898188 -1.68337 0
M  V30 5092 C 477.668 1.20322 -3.23445 0
M  V30 5093 C 476.781 0.487717 -4.29238 0
M  V30 5094 C 475.916 1.49422 -5.09752 0
M  V30 5095 C 474.955 0.763976 -6.07314 0
M  V30 5096 N 474.092 1.71755 -6.80768 0
M  V30 5097 H 478.932 -0.530169 -2.93246 0
M  V30 5098 H 476.469 -0.273276 -1.44539 0
M  V30 5099 H 478.427 1.80768 -3.76004 0
M  V30 5100 H 477.057 1.88382 -2.6213 0
M  V30 5101 H 476.109 -0.231374 -3.79696 0
M  V30 5102 H 477.421 -0.0841003 -4.98729 0
M  V30 5103 H 476.575 2.17206 -5.66486 0
M  V30 5104 H 475.314 2.09995 -4.40174 0
M  V30 5105 H 474.319 0.0722344 -5.49753 0
M  V30 5106 H 475.544 0.16391 -6.78902 0
M  V30 5107 H 473.49 2.31177 -6.13916 0
M  V30 5108 H 473.407 1.19802 -7.46447 0
M  V30 5109 H 474.675 2.38638 -7.42073 0
M  V30 5110 N 478.904 1.54736 -0.299062 0
M  V30 5111 C 479.852 2.24897 0.593658 0
M  V30 5112 C 480.846 1.25429 1.13859 0
M  V30 5113 O 482.052 1.43286 1.08945 0
M  V30 5114 H 478.427 0.72207 0.210046 0
M  V30 5115 H 480.398 2.98393 -0.0206421 0
M  V30 5116 C 479.147 3.00159 1.75499 0
M  V30 5117 H 478.47 3.76501 1.34489 0
M  V30 5118 H 479.91 3.52535 2.35574 0
M  V30 5119 C 478.369 2.07015 2.65794 0
M  V30 5120 O 478.899 1.63692 3.66835 0
M  V30 5121 N 477.105 1.73012 2.33485 0
M  V30 5122 H 476.652 2.08439 1.51364 0
M  V30 5123 H 476.61 1.10965 2.94167 0
M  V30 5124 N 480.382 0.0267497 1.57577 0
M  V30 5125 C 481.329 -0.955894 2.10075 0
M  V30 5126 C 482.299 -1.32453 1.00226 0
M  V30 5127 O 483.484 -1.41826 1.27632 0
M  V30 5128 C 480.624 -2.2338 2.6305 0
M  V30 5129 C 479.737 -1.92183 3.86898 0
M  V30 5130 C 478.872 -3.14251 4.28275 0
M  V30 5131 C 477.911 -2.78862 5.44888 0
M  V30 5132 N 477.048 -3.93548 5.81433 0
M  V30 5133 H 481.888 -0.501303 2.93753 0
M  V30 5134 H 479.425 -0.235847 1.45197 0
M  V30 5135 H 481.383 -2.98124 2.91853 0
M  V30 5136 H 480.013 -2.6646 1.82205 0
M  V30 5137 H 479.065 -1.07692 3.64838 0
M  V30 5138 H 480.377 -1.62117 4.7172 0
M  V30 5139 H 479.531 -3.97317 4.58502 0
M  V30 5140 H 478.27 -3.47476 3.42215 0
M  V30 5141 H 477.275 -1.94208 5.14357 0
M  V30 5142 H 478.5 -2.46855 6.32645 0
M  V30 5143 H 476.446 -4.2662 4.98328 0
M  V30 5144 H 476.363 -3.67098 6.6089 0
M  V30 5145 H 477.631 -4.77325 6.16264 0
M  V30 5146 N 481.861 -1.55662 -0.24637 0
M  V30 5147 C 482.791 -1.93377 -1.30873 0
M  V30 5148 C 483.772 -0.798773 -1.50179 0
M  V30 5149 O 484.957 -1.0591 -1.62778 0
M  V30 5150 C 482.087 -2.22893 -2.66338 0
M  V30 5151 C 481.041 -3.38649 -2.61727 0
M  V30 5152 C 480.367 -3.53708 -4.00992 0
M  V30 5153 C 481.667 -4.74323 -2.18666 0
M  V30 5154 H 483.361 -2.82363 -0.995552 0
M  V30 5155 H 480.907 -1.35854 -0.477464 0
M  V30 5156 H 482.86 -2.47866 -3.40794 0
M  V30 5157 H 481.584 -1.30733 -2.99293 0
M  V30 5158 H 480.243 -3.13685 -1.89729 0
M  V30 5159 H 479.891 -2.58967 -4.31214 0
M  V30 5160 H 479.591 -4.31551 -3.98795 0
M  V30 5161 H 481.115 -3.81003 -4.77147 0
M  V30 5162 H 482.529 -4.98665 -2.82854 0
M  V30 5163 H 480.926 -5.55273 -2.27579 0
M  V30 5164 H 481.996 -4.71349 -1.13834 0
M  V30 5165 N 483.339 0.512053 -1.4905 0
M  V30 5166 C 484.564 1.2959 -1.6193 0
M  V30 5167 C 484.989 1.85906 -0.286454 0
M  V30 5168 O 484.347 1.65312 0.744426 0
M  V30 5169 C 484.395 2.40987 -2.68249 0
M  V30 5170 O 483.499 3.44531 -2.26654 0
M  V30 5171 H 482.84 0.383053 -0.542371 0
M  V30 5172 H 485.37 0.614231 -1.95162 0
M  V30 5173 H 485.38 2.86913 -2.90078 0
M  V30 5174 H 484.055 1.99361 -3.65004 0
M  V30 5175 H 482.632 3.046 -2.15112 0
M  V30 5176 N 484.817 1.37938 0.762283 0
M  V30 5177 C 485.765 1.34569 1.89721 0
M  V30 5178 C 486.759 0.232929 1.67791 0
M  V30 5179 O 487.965 0.401485 1.75465 0
M  V30 5180 H 484.34 0.419594 0.624055 0
M  V30 5181 H 486.311 2.30357 1.8968 0
M  V30 5182 C 485.06 1.17898 3.27101 0
M  V30 5183 H 484.383 2.02781 3.44558 0
M  V30 5184 H 485.823 1.19593 4.06784 0
M  V30 5185 C 484.282 -0.114728 3.36705 0
M  V30 5186 O 484.812 -1.0949 3.8649 0
M  V30 5187 N 483.018 -0.16863 2.9011 0
M  V30 5188 H 482.565 0.62967 2.49786 0
M  V30 5189 H 482.523 -1.03383 2.96916 0
M  V30 5190 N 486.295 -0.989507 1.22664 0
M  V30 5191 C 487.245 -2.06478 0.967005 0
M  V30 5192 C 488.229 -1.60682 -0.0836374 0
M  V30 5193 O 489.421 -1.76541 0.127322 0
M  V30 5194 C 486.55 -3.38861 0.550313 0
M  V30 5195 C 485.636 -3.9128 1.63587 0
M  V30 5196 N 486.027 -4.16884 2.86429 0
M  V30 5197 C 484.325 -4.1972 1.50834 0
M  V30 5198 C 485.026 -4.5954 3.56648 0
M  V30 5199 N 484.002 -4.63434 2.84131 0
M  V30 5200 H 487.804 -2.24219 1.90008 0
M  V30 5201 H 485.318 -1.17153 1.12467 0
M  V30 5202 H 487.315 -4.15465 0.345612 0
M  V30 5203 H 485.975 -3.22518 -0.375822 0
M  V30 5204 H 486.986 -4.04976 3.22823 0
M  V30 5205 H 483.663 -4.1243 0.648643 0
M  V30 5206 H 485.053 -4.87944 4.61909 0
M  V30 5207 N 487.773 -1.03688 -1.18687 0
M  V30 5208 C 489.019 -0.739123 -1.88851 0
M  V30 5209 C 489.352 0.731042 -1.79915 0
M  V30 5210 O 488.627 1.53313 -1.19688 0
M  V30 5211 C 488.91 -1.20106 -3.3948 0
M  V30 5212 C 488.763 -2.73304 -3.57246 0
M  V30 5213 C 490.082 -0.788134 -4.32986 0
M  V30 5214 H 487.201 -0.269978 -0.68577 0
M  V30 5215 H 489.843 -1.28822 -1.3966 0
M  V30 5216 H 487.993 -0.733915 -3.81505 0
M  V30 5217 H 489.665 -3.28027 -3.24339 0
M  V30 5218 H 487.908 -3.13313 -3.00029 0
M  V30 5219 H 488.579 -3.00684 -4.62918 0
M  V30 5220 H 491.055 -1.19005 -3.98719 0
M  V30 5221 H 489.931 -1.13915 -5.36949 0
M  V30 5222 H 490.192 0.308988 -4.41019 0
M  V30 5223 N 489.251 1.34841 -0.815825 0
M  V30 5224 C 490.498 1.98499 -0.400535 0
M  V30 5225 C 490.826 1.64699 1.03463 0
M  V30 5226 O 490.081 0.907006 1.73412 0
M  V30 5227 C 490.38 3.53273 -0.541541 0
M  V30 5228 C 490.046 4.06966 -1.94138 0
M  V30 5229 C 488.708 4.21341 -2.32433 0
M  V30 5230 C 491.06 4.35933 -2.85677 0
M  V30 5231 C 488.388 4.62007 -3.61617 0
M  V30 5232 C 490.74 4.78042 -4.14317 0
M  V30 5233 C 489.404 4.90622 -4.52599 0
M  V30 5234 H 488.674 0.72636 -0.146566 0
M  V30 5235 H 491.321 1.60902 -1.0384 0
M  V30 5236 H 489.626 3.91387 0.179741 0
M  V30 5237 H 491.323 4.00497 -0.20085 0
M  V30 5238 H 487.913 3.96235 -1.63388 0
M  V30 5239 H 492.097 4.24372 -2.57337 0
M  V30 5240 H 487.353 4.69937 -3.91113 0
M  V30 5241 H 491.527 4.99415 -4.85342 0
M  V30 5242 H 489.154 5.2189 -5.52752 0
M  V30 5243 N 490.729 0.570148 1.46925 0
M  V30 5244 C 491.975 0.0510284 2.02736 0
M  V30 5245 C 492.308 -1.3006 1.44215 0
M  V30 5246 O 491.583 -1.84932 0.602521 0
M  V30 5247 C 491.866 -0.028215 3.60089 0
M  V30 5248 C 491.719 1.35142 4.29018 0
M  V30 5249 C 493.038 -0.735181 4.33916 0
M  V30 5250 H 490.157 0.0200178 0.736728 0
M  V30 5251 H 492.799 0.73493 1.75211 0
M  V30 5252 H 490.949 -0.610648 3.83671 0
M  V30 5253 H 492.621 1.97806 4.16738 0
M  V30 5254 H 490.864 1.9226 3.88868 0
M  V30 5255 H 491.535 1.24857 5.37694 0
M  V30 5256 H 494.011 -0.240519 4.15404 0
M  V30 5257 H 492.887 -0.759622 5.43618 0
M  V30 5258 H 493.148 -1.79397 4.04066 0
M  V30 5259 N 492.207 -1.54576 0.307264 0
M  V30 5260 C 493.454 -2.00263 -0.300167 0
M  V30 5261 C 493.782 -1.19561 -1.53413 0
M  V30 5262 O 493.037 -0.261487 -1.93945 0
M  V30 5263 C 493.336 -3.50572 -0.695253 0
M  V30 5264 C 493.002 -4.48771 0.437679 0
M  V30 5265 C 491.664 -4.7534 0.748681 0
M  V30 5266 C 494.016 -5.0721 1.19949 0
M  V30 5267 C 491.344 -5.5761 1.8245 0
M  V30 5268 C 493.696 -5.90651 2.26527 0
M  V30 5269 C 492.36 -6.15528 2.58227 0
M  V30 5270 H 491.63 -0.732814 -0.109839 0
M  V30 5271 H 494.277 -1.86664 0.427661 0
M  V30 5272 H 492.582 -3.61814 -1.50326 0
M  V30 5273 H 494.279 -3.83352 -1.17653 0
M  V30 5274 H 490.869 -4.282 0.185187 0
M  V30 5275 H 495.053 -4.86679 0.972474 0
M  V30 5276 H 490.309 -5.75121 2.07476 0
M  V30 5277 H 494.483 -6.34957 2.86011 0
M  V30 5278 H 492.11 -6.79066 3.4172 0
M  V30 5279 N 493.685 -0.035106 -1.57561 0
M  V30 5280 C 494.617 0.973604 -2.07494 0
M  V30 5281 C 495.63 1.28504 -0.999534 0
M  V30 5282 O 496.819 1.24864 -1.27559 0
M  V30 5283 C 493.919 2.29945 -2.48955 0
M  V30 5284 C 493.092 2.1723 -3.79644 0
M  V30 5285 C 492.151 3.328 -4.07592 0
M  V30 5286 O 491.177 3.09418 -4.77754 0
M  V30 5287 N 492.379 4.56779 -3.58236 0
M  V30 5288 H 495.144 0.547525 -2.94656 0
M  V30 5289 H 492.705 0.151515 -1.61189 0
M  V30 5290 H 494.697 3.06097 -2.64739 0
M  V30 5291 H 493.267 2.64173 -1.67126 0
M  V30 5292 H 492.487 1.25768 -3.73599 0
M  V30 5293 H 493.775 2.05945 -4.65257 0
M  V30 5294 H 493.173 4.78668 -3.01485 0
M  V30 5295 H 491.73 5.30079 -3.79288 0
M  V30 5296 N 495.163 1.55791 0.238111 0
M  V30 5297 C 496.411 1.77681 0.963001 0
M  V30 5298 C 496.732 0.600674 1.85518 0
M  V30 5299 O 496.002 -0.383182 1.92116 0
M  V30 5300 H 494.582 0.655315 0.358568 0
M  V30 5301 H 497.244 1.93239 0.253945 0
M  V30 5302 H 496.34 2.69177 1.57956 0
M  V30 5303 N 496.642 -0.504142 1.49319 0
M  V30 5304 C 497.605 -1.5883 1.65244 0
M  V30 5305 C 498.605 -1.52009 0.524386 0
M  V30 5306 O 499.795 -1.55218 0.79077 0
M  V30 5307 C 496.927 -2.98481 1.64687 0
M  V30 5308 H 498.12 -1.4604 2.61939 0
M  V30 5309 H 495.673 -0.728144 1.38303 0
M  V30 5310 H 496.408 -3.16751 0.695644 0
M  V30 5311 H 496.193 -3.0484 2.46607 0
M  V30 5312 H 497.683 -3.77256 1.79075 0
M  V30 5313 N 498.12 -1.38341 -0.754957 0
M  V30 5314 C 499.368 -1.34208 -1.51105 0
M  V30 5315 C 499.689 0.0677634 -1.94882 0
M  V30 5316 O 498.959 1.01517 -1.67544 0
M  V30 5317 H 497.539 -0.493819 -0.560493 0
M  V30 5318 H 500.201 -1.73005 -0.897507 0
M  V30 5319 H 499.297 -1.99203 -2.4026 0
M  V30 5320 N 499.598 0.982988 -1.23187 0
M  V30 5321 C 500.508 2.10907 -1.02739 0
M  V30 5322 C 501.524 1.73979 0.0273188 0
M  V30 5323 O 502.7 2.00702 -0.16757 0
M  V30 5324 C 499.765 3.41142 -0.618304 0
M  V30 5325 C 498.826 3.92112 -1.74777 0
M  V30 5326 C 498.059 5.16131 -1.3581 0
M  V30 5327 O 498.282 5.6989 -0.241201 0
M  V30 5328 O 497.216 5.61103 -2.17824 0
M  V30 5329 H 501.042 2.31046 -1.97108 0
M  V30 5330 H 498.627 1.09284 -1.01869 0
M  V30 5331 H 500.509 4.19488 -0.400982 0
M  V30 5332 H 499.184 3.2234 0.296421 0
M  V30 5333 H 498.091 3.14895 -2.0197 0
M  V30 5334 H 499.424 4.15364 -2.64071 0
M  V30 5335 N 501.076 1.04316 1.18135 0
M  V30 5336 C 502.039 0.640794 2.2006 0
M  V30 5337 C 503.039 -0.303124 1.57917 0
M  V30 5338 O 504.229 -0.0881855 1.73977 0
M  V30 5339 C 501.361 -0.060148 3.40847 0
M  V30 5340 H 502.554 1.54281 2.57172 0
M  V30 5341 H 500.107 0.836004 1.32063 0
M  V30 5342 H 500.842 -0.975845 3.0927 0
M  V30 5343 H 500.627 0.618319 3.87194 0
M  V30 5344 H 502.117 -0.328082 4.16309 0
M  V30 5345 N 502.554 -1.34406 0.822964 0
M  V30 5346 C 503.517 -2.2783 0.250271 0
M  V30 5347 C 504.517 -1.50288 -0.571854 0
M  V30 5348 O 505.707 -1.69825 -0.387952 0
M  V30 5349 C 502.839 -3.34663 -0.649137 0
M  V30 5350 H 504.032 -2.79992 1.07444 0
M  V30 5351 H 501.585 -1.44539 0.594829 0
M  V30 5352 H 502.32 -2.87714 -1.49637 0
M  V30 5353 H 502.105 -3.92052 -0.0611199 0
M  V30 5354 H 503.595 -4.04349 -1.04363 0
M  V30 5355 N 504.032 -0.577932 -1.46621 0
M  V30 5356 C 504.965 0.206312 -2.27265 0
M  V30 5357 C 505.943 0.901306 -1.35334 0
M  V30 5358 O 507.127 0.916151 -1.64739 0
M  V30 5359 C 504.254 1.29563 -3.1294 0
M  V30 5360 C 503.3 0.706981 -4.206 0
M  V30 5361 S 504.133 -0.462459 -5.33499 0
M  V30 5362 C 505.289 0.628171 -6.2274 0
M  V30 5363 H 505.522 -0.477961 -2.93433 0
M  V30 5364 H 503.055 -0.364715 -1.50031 0
M  V30 5365 H 505.013 1.91935 -3.62865 0
M  V30 5366 H 503.674 1.95183 -2.46095 0
M  V30 5367 H 502.867 1.52565 -4.80354 0
M  V30 5368 H 502.469 0.159022 -3.73662 0
M  V30 5369 H 504.761 1.51506 -6.60342 0
M  V30 5370 H 505.704 0.0674961 -7.08068 0
M  V30 5371 H 506.112 0.930167 -5.56784 0
M  V30 5372 N 505.51 1.54411 -0.315457 0
M  V30 5373 C 506.758 2.00023 0.288971 0
M  V30 5374 C 507.079 1.20529 1.5329 0
M  V30 5375 O 506.349 0.304986 1.93511 0
M  V30 5376 H 504.929 0.738891 0.109766 0
M  V30 5377 H 507.591 1.90094 -0.430129 0
M  V30 5378 H 506.687 3.07198 0.550999 0
M  V30 5379 N 506.988 0.0434614 1.5754 0
M  V30 5380 C 508.237 -0.631454 1.91561 0
M  V30 5381 C 508.55 -1.72457 0.92292 0
M  V30 5382 O 509.756 -2.45712 1.15489 0
M  V30 5383 C 508.212 -1.17447 3.40197 0
M  V30 5384 C 507.82 -0.113867 4.47855 0
M  V30 5385 C 509.564 -1.82507 3.83264 0
M  V30 5386 C 507.471 -0.669326 5.876 0
M  V30 5387 H 506.401 -0.239629 0.714908 0
M  V30 5388 H 509.052 0.111097 1.83163 0
M  V30 5389 H 507.434 -1.96909 3.43574 0
M  V30 5390 H 508.608 0.659348 4.56058 0
M  V30 5391 H 506.923 0.438821 4.14081 0
M  V30 5392 H 509.52 -2.25047 4.85034 0
M  V30 5393 H 509.863 -2.67365 3.19095 0
M  V30 5394 H 510.396 -1.09712 3.82372 0
M  V30 5395 H 507.135 0.141449 6.55347 0
M  V30 5396 H 506.655 -1.4107 5.82974 0
M  V30 5397 H 508.334 -1.15463 6.36614 0
M  V30 5398 N 508.466 -1.55915 -0.229846 0
M  V30 5399 C 509.429 -1.90914 -1.26824 0
M  V30 5400 C 510.429 -0.786999 -1.40225 0
M  V30 5401 O 511.619 -1.05484 -1.38632 0
M  V30 5402 C 508.751 -2.15264 -2.64337 0
M  V30 5403 H 509.944 -2.8378 -0.969998 0
M  V30 5404 H 507.497 -1.49069 -0.4699 0
M  V30 5405 H 508.232 -1.24923 -2.99274 0
M  V30 5406 H 508.017 -2.97005 -2.55989 0
M  V30 5407 H 509.507 -2.43467 -3.39284 0
M  V30 5408 N 509.944 0.496216 -1.49584 0
M  V30 5409 C 510.894 1.59422 -1.62999 0
M  V30 5410 C 511.878 1.53402 -0.485457 0
M  V30 5411 O 513.07 1.60851 -0.738649 0
M  V30 5412 C 510.199 2.98009 -1.70427 0
M  V30 5413 C 509.285 3.09008 -2.90473 0
M  V30 5414 N 509.676 2.89884 -4.14489 0
M  V30 5415 C 507.974 3.40115 -2.8851 0
M  V30 5416 C 508.675 3.0519 -4.95211 0
M  V30 5417 N 507.651 3.3428 -4.2867 0
M  V30 5418 H 511.453 1.43297 -2.56599 0
M  V30 5419 H 508.967 0.702443 -1.46422 0
M  V30 5420 H 510.964 3.76926 -1.78136 0
M  V30 5421 H 509.624 3.152 -0.77967 0
M  V30 5422 H 510.635 2.65963 -4.44392 0
M  V30 5423 H 507.312 3.63452 -2.05448 0
M  V30 5424 H 508.702 2.94856 -6.03746 0
M  V30 5425 N 511.423 1.38739 0.74761 0
M  V30 5426 C 512.353 1.39173 1.87492 0
M  V30 5427 C 513.334 0.256794 1.6815 0
M  V30 5428 O 514.519 0.460762 1.88655 0
M  V30 5429 C 511.649 1.22197 3.25093 0
M  V30 5430 C 510.603 2.32957 3.59047 0
M  V30 5431 C 509.929 2.01082 4.95449 0
M  V30 5432 C 511.229 3.75237 3.6331 0
M  V30 5433 H 512.923 2.3351 1.87386 0
M  V30 5434 H 510.469 1.12399 0.900134 0
M  V30 5435 H 512.422 1.21124 4.03617 0
M  V30 5436 H 511.146 0.243241 3.25693 0
M  V30 5437 H 509.805 2.33226 2.82845 0
M  V30 5438 H 509.453 1.01678 4.92616 0
M  V30 5439 H 509.153 2.75267 5.19136 0
M  V30 5440 H 510.677 2.01638 5.76346 0
M  V30 5441 H 512.091 3.76966 4.31937 0
M  V30 5442 H 510.488 4.48677 3.98509 0
M  V30 5443 H 511.558 4.07122 2.634 0
M  V30 5444 N 512.901 -0.976442 1.23707 0
M  V30 5445 C 513.831 -2.08749 1.04624 0
M  V30 5446 C 514.812 -1.70057 -0.0380956 0
M  V30 5447 O 515.997 -1.93782 0.127308 0
M  V30 5448 C 513.127 -3.41335 0.640902 0
M  V30 5449 C 512.081 -3.93947 1.67302 0
M  V30 5450 C 511.407 -5.22774 1.12301 0
M  V30 5451 C 512.707 -4.22769 3.06697 0
M  V30 5452 H 514.401 -2.24972 1.97555 0
M  V30 5453 H 511.947 -1.08108 0.951247 0
M  V30 5454 H 513.9 -4.18489 0.494434 0
M  V30 5455 H 512.624 -3.24988 -0.324099 0
M  V30 5456 H 511.283 -3.18941 1.80755 0
M  V30 5457 H 510.931 -5.0278 0.148877 0
M  V30 5458 H 510.631 -5.58942 1.81267 0
M  V30 5459 H 512.155 -6.02546 0.988479 0
M  V30 5460 H 513.569 -4.90659 2.96524 0
M  V30 5461 H 511.966 -4.70147 3.72937 0
M  V30 5462 H 513.036 -3.29885 3.55392 0
M  V30 5463 N 514.379 -1.04941 -1.1758 0
M  V30 5464 C 515.625 -0.759112 -1.88057 0
M  V30 5465 C 515.958 0.711918 -1.8068 0
M  V30 5466 O 515.233 1.52035 -1.21308 0
M  V30 5467 C 515.516 -1.237 -3.38187 0
M  V30 5468 C 515.369 -2.77078 -3.54327 0
M  V30 5469 C 516.688 -0.834014 -4.32125 0
M  V30 5470 H 513.807 -0.277237 -0.682868 0
M  V30 5471 H 516.449 -1.30296 -1.38286 0
M  V30 5472 H 514.599 -0.774337 -3.80705 0
M  V30 5473 H 516.271 -3.31449 -3.20842 0
M  V30 5474 H 514.514 -3.16477 -2.96689 0
M  V30 5475 H 515.185 -3.05577 -4.59703 0
M  V30 5476 H 517.661 -1.23228 -3.97434 0
M  V30 5477 H 516.537 -1.19603 -5.35711 0
M  V30 5478 H 516.798 0.262195 -4.41322 0
M  V30 5479 N 515.857 1.33968 -0.830081 0
M  V30 5480 C 516.79 2.27303 -0.202182 0
M  V30 5481 C 517.768 1.49235 0.645581 0
M  V30 5482 O 518.952 1.78433 0.607762 0
M  V30 5483 C 516.079 3.31025 0.716932 0
M  V30 5484 C 515.125 4.26466 -0.0542271 0
M  V30 5485 S 515.958 5.16707 -1.40622 0
M  V30 5486 C 517.114 6.23962 -0.492167 0
M  V30 5487 H 517.347 2.8021 -0.99346 0
M  V30 5488 H 514.88 1.41124 -0.626359 0
M  V30 5489 H 516.838 3.91271 1.24165 0
M  V30 5490 H 515.499 2.76951 1.4818 0
M  V30 5491 H 514.692 4.99858 0.644785 0
M  V30 5492 H 514.294 3.7051 -0.509722 0
M  V30 5493 H 516.586 6.76774 0.31347 0
M  V30 5494 H 517.529 6.97927 -1.19599 0
M  V30 5495 H 517.937 5.64447 -0.0774176 0
M  V30 5496 N 517.335 0.585699 1.46312 0
M  V30 5497 C 518.298 -0.135673 2.28798 0
M  V30 5498 C 519.298 -0.815988 1.38558 0
M  V30 5499 O 520.488 -0.667487 1.60904 0
M  V30 5500 C 517.62 -1.20163 3.1902 0
M  V30 5501 H 518.813 0.589257 2.94054 0
M  V30 5502 H 516.366 0.343794 1.52472 0
M  V30 5503 H 517.101 -1.95804 2.58517 0
M  V30 5504 H 516.886 -0.718282 3.85465 0
M  V30 5505 H 518.376 -1.70749 3.81096 0
M  V30 5506 N 518.813 -1.54241 0.323641 0
M  V30 5507 C 519.743 -2.27289 -0.534993 0
M  V30 5508 C 520.724 -1.28087 -1.11927 0
M  V30 5509 O 521.909 -1.56899 -1.14439 0
M  V30 5510 C 519.039 -3.03075 -1.69596 0
M  V30 5511 C 517.993 -4.09614 -1.24098 0
M  V30 5512 C 517.319 -4.73242 -2.4889 0
M  V30 5513 C 518.619 -5.21087 -0.355789 0
M  V30 5514 H 520.313 -2.99308 0.0743257 0
M  V30 5515 H 517.859 -1.43952 0.0371874 0
M  V30 5516 H 519.812 -3.52907 -2.30293 0
M  V30 5517 H 518.536 -2.28673 -2.33187 0
M  V30 5518 H 517.195 -3.60666 -0.656945 0
M  V30 5519 H 516.843 -3.95455 -3.10845 0
M  V30 5520 H 516.543 -5.45209 -2.19138 0
M  V30 5521 H 518.067 -5.25848 -3.10348 0
M  V30 5522 H 519.481 -5.66675 -0.869042 0
M  V30 5523 H 517.878 -5.9991 -0.151045 0
M  V30 5524 H 518.948 -4.81005 0.613339 0
M  V30 5525 N 520.291 -0.0518155 -1.57515 0
M  V30 5526 C 521.201 0.937539 -2.15052 0
M  V30 5527 C 522.217 1.34121 -1.10849 0
M  V30 5528 O 523.393 1.418 -1.4302 0
M  V30 5529 C 520.458 2.19379 -2.68466 0
M  V30 5530 C 519.519 1.84841 -3.87469 0
M  V30 5531 C 518.752 3.04477 -4.38326 0
M  V30 5532 O 518.975 4.17868 -3.88256 0
M  V30 5533 O 517.909 2.85453 -5.29906 0
M  V30 5534 H 521.735 0.478201 -2.99912 0
M  V30 5535 H 519.32 0.17012 -1.48428 0
M  V30 5536 H 521.202 2.93084 -3.02787 0
M  V30 5537 H 519.877 2.64449 -1.86677 0
M  V30 5538 H 518.784 1.08449 -3.58036 0
M  V30 5539 H 520.117 1.44569 -4.7049 0
M  V30 5540 N 521.769 1.56035 0.221574 0
M  V30 5541 C 522.716 1.92413 1.27459 0
M  V30 5542 C 523.686 0.781323 1.46576 0
M  V30 5543 O 524.871 1.03721 1.60145 0
M  V30 5544 C 522.011 2.24617 2.61995 0
M  V30 5545 C 521.124 3.51831 2.50677 0
M  V30 5546 C 520.259 3.73482 3.77736 0
M  V30 5547 C 519.298 4.94211 3.6114 0
M  V30 5548 N 518.435 5.12252 4.80148 0
M  V30 5549 H 523.275 2.82203 0.957355 0
M  V30 5550 H 520.812 1.39676 0.461415 0
M  V30 5551 H 522.77 2.41298 3.40339 0
M  V30 5552 H 521.4 1.38 2.91815 0
M  V30 5553 H 520.452 3.43343 1.63767 0
M  V30 5554 H 521.764 4.40328 2.34334 0
M  V30 5555 H 520.918 3.9026 4.64523 0
M  V30 5556 H 519.657 2.83266 3.97003 0
M  V30 5557 H 518.662 4.77384 2.72736 0
M  V30 5558 H 519.887 5.85912 3.43343 0
M  V30 5559 H 517.833 4.24978 4.99729 0
M  V30 5560 H 517.75 5.94881 4.66532 0
M  V30 5561 H 519.018 5.33465 5.68362 0
M  V30 5562 N 523.247 -0.488276 1.49845 0
M  V30 5563 C 524.157 -1.61451 1.70207 0
M  V30 5564 C 525.173 -1.63877 0.584846 0
M  V30 5565 O 526.349 -1.82063 0.861107 0
M  V30 5566 C 523.414 -2.9776 1.77594 0
M  V30 5567 C 522.475 -3.05861 3.01243 0
M  V30 5568 C 521.708 -4.35668 3.08268 0
M  V30 5569 O 521.931 -5.25197 2.22541 0
M  V30 5570 O 520.865 -4.49005 4.00847 0
M  V30 5571 H 524.691 -1.47199 2.65643 0
M  V30 5572 H 522.276 -0.665939 1.33737 0
M  V30 5573 H 524.158 -3.7875 1.84732 0
M  V30 5574 H 522.833 -3.12248 0.8534 0
M  V30 5575 H 521.74 -2.24012 2.99616 0
M  V30 5576 H 523.073 -2.96304 3.9302 0
M  V30 5577 N 524.725 -1.39134 -0.740242 0
M  V30 5578 C 525.973 -1.35803 -1.49673 0
M  V30 5579 C 526.294 0.0470897 -1.94943 0
M  V30 5580 O 525.564 0.997347 -1.68611 0
M  V30 5581 H 524.144 -0.499736 -0.555224 0
M  V30 5582 H 526.806 -1.73947 -0.879107 0
M  V30 5583 H 525.902 -2.0174 -2.38133 0
M  V30 5584 N 526.204 0.969867 -1.24223 0
M  V30 5585 C 527.45 1.7151 -1.08223 0
M  V30 5586 C 527.783 1.90478 0.37838 0
M  V30 5587 O 527.058 1.4647 1.27971 0
M  V30 5588 C 527.341 3.10714 -1.82013 0
M  V30 5589 C 527.194 2.9925 -3.35811 0
M  V30 5590 C 528.513 4.10332 -1.59108 0
M  V30 5591 H 525.632 0.622499 -0.394543 0
M  V30 5592 H 528.274 1.1284 -1.52863 0
M  V30 5593 H 526.424 3.608 -1.44068 0
M  V30 5594 H 528.096 2.56608 -3.83341 0
M  V30 5595 H 526.339 2.35512 -3.64303 0
M  V30 5596 H 527.01 3.97857 -3.82641 0
M  V30 5597 H 529.486 3.69097 -1.92111 0
M  V30 5598 H 528.362 5.05804 -2.13198 0
M  V30 5599 H 528.623 4.38926 -0.528832 0
M  V30 5600 N 527.682 1.05563 1.17022 0
M  V30 5601 C 529.093 0.793475 1.69 0
M  V30 5602 C 529.444 -0.683882 1.83895 0
M  V30 5603 O 528.569 -1.53116 1.5292 0
M  V30 5604 C 529.164 1.43376 3.06967 0
M  V30 5605 C 527.723 1.21956 3.56095 0
M  V30 5606 C 526.87 1.51494 2.3226 0
M  V30 5607 H 529.821 1.22008 1.01487 0
M  V30 5608 H 529.842 0.845068 3.70997 0
M  V30 5609 H 529.354 2.50899 2.96093 0
M  V30 5610 H 527.455 0.163749 3.7224 0
M  V30 5611 H 527.568 1.92713 4.38633 0
M  V30 5612 H 525.932 0.935175 2.3691 0
M  V30 5613 H 526.715 2.60159 2.23992 0
M  V30 5614 N 529.16 -1.33526 0.837174 0
M  V30 5615 C 530.107 -2.29248 0.267169 0
M  V30 5616 C 531.077 -1.54252 -0.616071 0
M  V30 5617 O 532.262 -1.82559 -0.554699 0
M  V30 5618 C 529.402 -3.40638 -0.553152 0
M  V30 5619 C 528.515 -4.30548 0.353921 0
M  V30 5620 C 527.65 -5.29051 -0.477339 0
M  V30 5621 C 526.689 -6.106 0.42823 0
M  V30 5622 N 525.826 -7.01152 -0.364801 0
M  V30 5623 H 530.666 -2.77398 1.08877 0
M  V30 5624 H 528.203 -1.36496 0.54838 0
M  V30 5625 H 530.161 -4.03921 -1.04422 0
M  V30 5626 H 528.791 -2.93685 -1.33973 0
M  V30 5627 H 527.843 -3.68001 0.963289 0
M  V30 5628 H 529.155 -4.87631 1.04964 0
M  V30 5629 H 528.309 -5.97853 -1.0323 0
M  V30 5630 H 527.048 -4.72541 -1.2065 0
M  V30 5631 H 526.053 -5.40718 0.995219 0
M  V30 5632 H 527.278 -6.69193 1.15573 0
M  V30 5633 H 525.224 -6.47092 -1.07738 0
M  V30 5634 H 525.141 -7.5551 0.272238 0
M  V30 5635 H 526.409 -7.74263 -0.902054 0
M  V30 5636 N 530.638 -0.59345 -1.46 0
M  V30 5637 C 531.601 0.123538 -2.28867 0
M  V30 5638 C 532.601 0.808628 -1.38989 0
M  V30 5639 O 533.791 0.658945 -1.61256 0
M  V30 5640 C 530.923 1.1847 -3.19653 0
M  V30 5641 H 532.116 -0.604843 -2.93737 0
M  V30 5642 H 529.669 -0.351875 -1.52288 0
M  V30 5643 H 530.404 1.94431 -2.59552 0
M  V30 5644 H 530.189 0.69783 -3.8584 0
M  V30 5645 H 531.679 1.68726 -3.81997 0
M  V30 5646 N 532.116 1.54067 -0.331816 0
M  V30 5647 C 533.026 2.28322 0.539104 0
M  V30 5648 C 534.042 1.32985 1.1221 0
M  V30 5649 O 535.218 1.6601 1.1403 0
M  V30 5650 C 532.283 3.03277 1.68 0
M  V30 5651 C 531.344 4.14216 1.12798 0
M  V30 5652 C 530.577 4.85588 2.2145 0
M  V30 5653 O 530.8 4.56536 3.41952 0
M  V30 5654 O 529.734 5.72309 1.86404 0
M  V30 5655 H 533.56 3.03632 -0.0641692 0
M  V30 5656 H 531.145 1.49083 -0.0972365 0
M  V30 5657 H 533.027 3.50189 2.34405 0
M  V30 5658 H 531.702 2.30834 2.2693 0
M  V30 5659 H 530.609 3.71635 0.428782 0
M  V30 5660 H 531.942 4.88727 0.583698 0
M  V30 5661 N 533.594 0.0601682 1.57485 0
M  V30 5662 C 534.557 -0.896373 2.10945 0
M  V30 5663 C 535.557 -1.23402 1.03095 0
M  V30 5664 O 536.747 -1.16921 1.29132 0
M  V30 5665 C 533.879 -2.20346 2.60116 0
M  V30 5666 H 535.072 -0.432778 2.96761 0
M  V30 5667 H 532.625 -0.188372 1.55161 0
M  V30 5668 H 533.36 -2.71268 1.7772 0
M  V30 5669 H 533.145 -1.9714 3.38937 0
M  V30 5670 H 534.635 -2.88846 3.01592 0
M  V30 5671 N 535.072 -1.5615 -0.213296 0
M  V30 5672 C 536.3 -1.83638 -0.953139 0
M  V30 5673 C 536.715 -0.640362 -1.77609 0
M  V30 5674 O 536.072 0.391071 -1.78261 0
M  V30 5675 C 536.123 -3.09735 -1.86405 0
M  V30 5676 O 535.844 -4.24723 -1.07435 0
M  V30 5677 C 537.345 -3.5027 -2.71709 0
M  V30 5678 H 534.565 -0.610263 -0.278962 0
M  V30 5679 H 537.109 -2.03247 -0.226035 0
M  V30 5680 H 535.264 -2.92077 -2.545 0
M  V30 5681 H 535.678 -4.9641 -1.69343 0
M  V30 5682 H 537.152 -4.41515 -3.31313 0
M  V30 5683 H 537.629 -2.72406 -3.44516 0
M  V30 5684 H 538.235 -3.70396 -2.09015 0
M  V30 5685 N 536.55 0.480323 -1.50102 0
M  V30 5686 C 537.966 0.813295 -1.37323 0
M  V30 5687 C 538.166 1.97027 -0.422206 0
M  V30 5688 O 537.222 2.5212 0.138563 0
M  V30 5689 C 538.535 1.13404 -2.78496 0
M  V30 5690 C 540.083 1.24104 -2.87345 0
M  V30 5691 C 540.558 1.59497 -4.29331 0
M  V30 5692 N 542.049 1.66507 -4.32238 0
M  V30 5693 C 542.784 1.95378 -5.39087 0
M  V30 5694 N 542.28 2.22333 -6.56155 0
M  V30 5695 N 544.073 1.96803 -5.26522 0
M  V30 5696 H 536.224 -0.282291 -2.10516 0
M  V30 5697 H 538.487 -0.063752 -0.945854 0
M  V30 5698 H 538.193 0.357064 -3.49883 0
M  V30 5699 H 538.067 2.07251 -3.15162 0
M  V30 5700 H 540.454 2.00871 -2.16183 0
M  V30 5701 H 540.535 0.282593 -2.54234 0
M  V30 5702 H 540.179 0.832736 -5.01027 0
M  V30 5703 H 540.109 2.56477 -4.59921 0
M  V30 5704 H 542.6 1.47753 -3.47818 0
M  V30 5705 H 542.913 2.43611 -7.33399 0
M  V30 5706 H 541.258 2.19745 -6.59346 0
M  V30 5707 H 544.449 1.75235 -4.34062 0
M  V30 5708 H 544.622 2.18969 -6.09883 0
M  V30 5709 N 538.028 1.39524 0.732853 0
M  V30 5710 C 538.975 1.38416 1.84688 0
M  V30 5711 C 539.945 0.243539 1.64305 0
M  V30 5712 O 541.13 0.438979 1.85681 0
M  V30 5713 C 538.27 1.23555 3.22224 0
M  V30 5714 C 537.383 2.47179 3.54298 0
M  V30 5715 C 536.518 2.2489 4.81246 0
M  V30 5716 C 535.557 3.44178 5.0617 0
M  V30 5717 N 534.694 3.21192 6.24323 0
M  V30 5718 H 539.534 2.33645 1.84971 0
M  V30 5719 H 537.071 1.16059 0.903804 0
M  V30 5720 H 539.029 1.12949 4.0162 0
M  V30 5721 H 537.659 0.31954 3.21215 0
M  V30 5722 H 536.711 2.68379 2.69587 0
M  V30 5723 H 538.023 3.36022 3.68633 0
M  V30 5724 H 537.177 2.11538 5.68627 0
M  V30 5725 H 535.916 1.33443 4.69089 0
M  V30 5726 H 534.921 3.58025 4.17251 0
M  V30 5727 H 536.146 4.36528 5.20212 0
M  V30 5728 H 534.092 2.32413 6.1345 0
M  V30 5729 H 534.009 4.03594 6.39256 0
M  V30 5730 H 535.277 3.1154 7.14537 0
M  V30 5731 N 539.506 -0.963266 1.24736 0
M  V30 5732 C 540.755 -1.70115 1.08369 0
M  V30 5733 C 541.068 -1.91939 -0.376688 0
M  V30 5734 O 542.274 -2.6334 -0.660624 0
M  V30 5735 C 540.73 -3.06218 1.89099 0
M  V30 5736 C 540.338 -2.92221 3.39574 0
M  V30 5737 C 542.082 -3.83848 1.81275 0
M  V30 5738 C 539.989 -4.23662 4.12631 0
M  V30 5739 H 538.919 -0.637944 0.401924 0
M  V30 5740 H 541.57 -1.07304 1.48856 0
M  V30 5741 H 539.952 -3.69884 1.41429 0
M  V30 5742 H 541.126 -2.37541 3.94856 0
M  V30 5743 H 539.441 -2.28054 3.48397 0
M  V30 5744 H 542.038 -4.81188 2.33158 0
M  V30 5745 H 542.381 -4.08949 0.778895 0
M  V30 5746 H 542.914 -3.26918 2.26649 0
M  V30 5747 H 539.653 -4.03753 5.16395 0
M  V30 5748 H 539.173 -4.78141 3.62135 0
M  V30 5749 H 540.852 -4.92256 4.19873 0
M  V30 5750 N 540.985 -1.06182 -1.16461 0
M  V30 5751 C 542.231 -0.788825 -1.87481 0
M  V30 5752 C 542.586 0.677298 -1.80085 0
M  V30 5753 O 541.879 1.48976 -1.20486 0
M  V30 5754 C 542.073 -1.21633 -3.36066 0
M  V30 5755 C 541.902 -2.72247 -3.57927 0
M  V30 5756 C 540.672 -3.39696 -3.74079 0
M  V30 5757 C 542.87 -3.70461 -3.56739 0
M  V30 5758 N 540.852 -4.79072 -3.83879 0
M  V30 5759 C 542.223 -4.95616 -3.72511 0
M  V30 5760 C 544.278 -3.63788 -3.39945 0
M  V30 5761 C 542.981 -6.14895 -3.73225 0
M  V30 5762 C 545.007 -4.82517 -3.41953 0
M  V30 5763 C 544.369 -6.065 -3.58242 0
M  V30 5764 H 540.468 -0.341034 -0.703719 0
M  V30 5765 H 543.052 -1.35575 -1.39741 0
M  V30 5766 H 541.223 -0.67725 -3.8245 0
M  V30 5767 H 542.955 -0.892119 -3.94745 0
M  V30 5768 H 539.71 -2.90097 -3.74354 0
M  V30 5769 H 540.134 -5.51573 -3.92551 0
M  V30 5770 H 544.776 -2.68888 -3.26281 0
M  V30 5771 H 542.494 -7.10129 -3.85672 0
M  V30 5772 H 546.08 -4.79017 -3.30203 0
M  V30 5773 H 544.96 -6.96833 -3.59712 0
M  V30 5774 N 542.463 1.3308 -0.844243 0
M  V30 5775 C 543.396 2.27075 -0.226279 0
M  V30 5776 C 544.374 1.49911 0.629716 0
M  V30 5777 O 545.558 1.79068 0.588803 0
M  V30 5778 C 542.685 3.31767 0.681782 0
M  V30 5779 C 541.731 4.26384 -0.0994565 0
M  V30 5780 S 542.564 5.15186 -1.46094 0
M  V30 5781 C 543.72 6.23405 -0.558319 0
M  V30 5782 H 543.953 2.79141 -1.02312 0
M  V30 5783 H 541.486 1.40452 -0.641292 0
M  V30 5784 H 543.444 3.92566 1.20008 0
M  V30 5785 H 542.105 2.78507 1.45234 0
M  V30 5786 H 541.298 5.00514 0.591733 0
M  V30 5787 H 540.9 3.69949 -0.548991 0
M  V30 5788 H 543.192 6.77069 0.241672 0
M  V30 5789 H 544.135 6.96619 -1.26995 0
M  V30 5790 H 544.543 5.64333 -0.13728 0
M  V30 5791 N 543.941 0.601185 1.45683 0
M  V30 5792 C 545.187 0.0940202 2.02582 0
M  V30 5793 C 545.52 -1.26972 1.46941 0
M  V30 5794 O 544.795 -1.83613 0.641612 0
M  V30 5795 C 545.078 0.0481715 3.60068 0
M  V30 5796 C 544.931 1.44212 4.26055 0
M  V30 5797 C 546.25 -0.642975 4.35378 0
M  V30 5798 H 543.369 0.0356404 0.736138 0
M  V30 5799 H 546.011 0.771929 1.73612 0
M  V30 5800 H 544.161 -0.529128 3.8488 0
M  V30 5801 H 545.833 2.06601 4.12449 0
M  V30 5802 H 544.076 2.00465 3.84703 0
M  V30 5803 H 544.747 1.36234 5.34925 0
M  V30 5804 H 547.223 -0.152351 4.15821 0
M  V30 5805 H 546.099 -0.644141 5.45107 0
M  V30 5806 H 546.36 -1.70785 4.0778 0
M  V30 5807 N 545.419 -1.53889 0.339982 0
M  V30 5808 C 546.696 -1.93084 -0.312719 0
M  V30 5809 C 547.076 -1.2712 -1.68534 0
M  V30 5810 O 546.424 -0.420835 -2.24591 0
M  V30 5811 C 546.634 -3.4683 -0.388558 0
M  V30 5812 C 547.982 -4.19732 -0.641088 0
M  V30 5813 O 549.006 -3.53075 -0.470818 0
M  V30 5814 O 547.865 -5.3781 -0.970685 0
M  V30 5815 H 544.959 -0.806784 -0.18174 0
M  V30 5816 H 547.505 -1.65137 0.390898 0
M  V30 5817 H 546.277 -3.87055 0.574821 0
M  V30 5818 H 545.9 -3.80933 -1.1391 0
M  V30 5819 N 546.897 -0.0685191 -1.57451 0
M  V30 5820 C 548.122 0.613919 -1.98106 0
M  V30 5821 C 548.547 1.62551 -0.946501 0
M  V30 5822 O 547.905 1.81085 0.0882824 0
M  V30 5823 C 547.953 1.26189 -3.378 0
M  V30 5824 O 547.057 2.37773 -3.36954 0
M  V30 5825 H 546.398 0.158163 -0.644888 0
M  V30 5826 H 548.928 -0.142063 -2.04106 0
M  V30 5827 H 548.938 1.60951 -3.74912 0
M  V30 5828 H 547.613 0.520625 -4.12629 0
M  V30 5829 H 546.19 2.04829 -3.11608 0
M  V30 5830 N 548.375 1.56261 0.205012 0
M  V30 5831 C 549.322 1.93754 1.25411 0
M  V30 5832 C 550.292 0.796826 1.45739 0
M  V30 5833 O 551.477 1.05414 1.59036 0
M  V30 5834 C 548.617 2.27383 2.59598 0
M  V30 5835 C 547.73 3.5447 2.46931 0
M  V30 5836 C 546.865 3.77468 3.73753 0
M  V30 5837 C 545.904 4.98014 3.55877 0
M  V30 5838 N 545.041 5.17316 4.74688 0
M  V30 5839 H 549.881 2.83203 0.92737 0
M  V30 5840 H 547.418 1.40158 0.446574 0
M  V30 5841 H 549.376 2.44895 3.37761 0
M  V30 5842 H 548.006 1.41088 2.90335 0
M  V30 5843 H 547.058 3.45061 1.60116 0
M  V30 5844 H 548.37 4.42789 2.29651 0
M  V30 5845 H 547.524 3.95165 4.60358 0
M  V30 5846 H 546.263 2.87461 3.93976 0
M  V30 5847 H 545.268 4.80249 2.67657 0
M  V30 5848 H 546.493 5.8952 3.37109 0
M  V30 5849 H 544.439 4.30255 4.95194 0
M  V30 5850 H 544.356 5.99796 4.60197 0
M  V30 5851 H 545.624 5.39463 5.62672 0
M  V30 5852 N 549.853 -0.472356 1.50355 0
M  V30 5853 C 551.101 -1.22211 1.60962 0
M  V30 5854 C 551.422 -1.92497 0.311439 0
M  V30 5855 O 550.692 -1.8405 -0.671002 0
M  V30 5856 H 549.272 -0.454092 0.593135 0
M  V30 5857 H 551.934 -0.544977 1.87126 0
M  V30 5858 H 551.03 -1.9707 2.42012 0
M  V30 5859 N 551.331 -1.39911 -0.725443 0
M  V30 5860 C 552.261 -1.42138 -1.85254 0
M  V30 5861 C 553.242 -0.283513 -1.67721 0
M  V30 5862 O 554.427 -0.490717 -1.87898 0
M  V30 5863 C 551.557 -1.27354 -3.23107 0
M  V30 5864 C 550.511 -2.3864 -3.55296 0
M  V30 5865 C 549.837 -2.08939 -4.92188 0
M  V30 5866 C 551.137 -3.8097 -3.57295 0
M  V30 5867 H 552.831 -2.36461 -1.83648 0
M  V30 5868 H 550.377 -1.13817 -0.882138 0
M  V30 5869 H 552.33 -1.2753 -4.01639 0
M  V30 5870 H 551.054 -0.295025 -3.25265 0
M  V30 5871 H 549.713 -2.37696 -2.79099 0
M  V30 5872 H 549.361 -1.09502 -4.90936 0
M  V30 5873 H 549.061 -2.83491 -5.14691 0
M  V30 5874 H 550.585 -2.10781 -5.73065 0
M  V30 5875 H 551.999 -3.8379 -4.25885 0
M  V30 5876 H 550.396 -4.5496 -3.9132 0
M  V30 5877 H 551.466 -4.11261 -2.5689 0
M  V30 5878 N 552.809 0.956637 -1.25245 0
M  V30 5879 C 554.058 1.69537 -1.0927 0
M  V30 5880 C 554.371 1.92136 0.366503 0
M  V30 5881 O 555.577 2.63687 0.64665 0
M  V30 5882 C 554.033 3.05211 -1.9072 0
M  V30 5883 C 553.641 2.90416 -3.41119 0
M  V30 5884 C 555.385 3.82882 -1.83308 0
M  V30 5885 C 553.292 4.21468 -4.14872 0
M  V30 5886 H 552.222 0.635804 -0.405302 0
M  V30 5887 H 554.873 1.06513 -1.49423 0
M  V30 5888 H 553.255 3.69128 -1.43389 0
M  V30 5889 H 554.429 2.35444 -3.9611 0
M  V30 5890 H 552.744 2.26203 -3.49602 0
M  V30 5891 H 555.341 4.79944 -2.35706 0
M  V30 5892 H 555.684 4.0853 -0.800572 0
M  V30 5893 H 556.217 3.25711 -2.28379 0
M  V30 5894 H 552.956 4.01009 -5.18529 0
M  V30 5895 H 552.476 4.76213 -3.64665 0
M  V30 5896 H 554.155 4.90022 -4.22478 0
M  V30 5897 N 554.287 1.06798 1.15896 0
M  V30 5898 C 555.533 0.788934 1.86825 0
M  V30 5899 C 555.866 -0.683084 1.8179 0
M  V30 5900 O 555.141 -1.50086 1.23711 0
M  V30 5901 C 555.424 1.29065 3.36176 0
M  V30 5902 C 555.277 2.8268 3.49874 0
M  V30 5903 C 556.596 0.902655 4.30744 0
M  V30 5904 H 553.715 0.288066 0.678371 0
M  V30 5905 H 556.357 1.32479 1.36195 0
M  V30 5906 H 554.507 0.834806 3.79425 0
M  V30 5907 H 556.179 3.36511 3.15528 0
M  V30 5908 H 554.422 3.21157 2.91617 0
M  V30 5909 H 555.093 3.12852 4.54783 0
M  V30 5910 H 557.569 1.29535 3.95424 0
M  V30 5911 H 556.445 1.28111 5.3374 0
M  V30 5912 H 556.706 -0.191951 4.41683 0
M  V30 5913 N 555.766 -1.3263 0.851289 0
M  V30 5914 C 556.713 -2.28952 0.291469 0
M  V30 5915 C 557.683 -1.54897 -0.599676 0
M  V30 5916 O 558.868 -1.83137 -0.535305 0
M  V30 5917 C 556.008 -3.41206 -0.516992 0
M  V30 5918 C 555.121 -4.30148 0.399566 0
M  V30 5919 C 554.256 -5.29527 -0.4212 0
M  V30 5920 C 553.295 -6.10112 0.492969 0
M  V30 5921 N 552.432 -7.01499 -0.290414 0
M  V30 5922 H 557.272 -2.76228 1.11813 0
M  V30 5923 H 554.809 -1.35907 0.562826 0
M  V30 5924 H 556.767 -4.05005 -1.00132 0
M  V30 5925 H 555.397 -2.9509 -1.30851 0
M  V30 5926 H 554.449 -3.66959 1.00227 0
M  V30 5927 H 555.761 -4.8649 1.1013 0
M  V30 5928 H 554.915 -5.98914 -0.968832 0
M  V30 5929 H 553.654 -4.73794 -1.15632 0
M  V30 5930 H 552.659 -5.39632 1.05251 0
M  V30 5931 H 553.884 -6.6793 1.22664 0
M  V30 5932 H 551.83 -6.48199 -1.00868 0
M  V30 5933 H 551.747 -7.55178 0.352354 0
M  V30 5934 H 553.015 -7.75176 -0.819882 0
M  V30 5935 N 557.244 -0.608902 -1.45362 0
M  V30 5936 C 558.492 -0.104401 -2.0183 0
M  V30 5937 C 558.813 1.27007 -1.47967 0
M  V30 5938 O 558.083 1.83924 -0.674455 0
M  V30 5939 H 556.663 -0.0356042 -0.746151 0
M  V30 5940 H 559.325 -0.790596 -1.78145 0
M  V30 5941 H 558.421 -0.0551793 -3.12051 0
M  V30 5942 N 558.722 1.53707 -0.348139 0
M  V30 5943 C 560.138 1.596 0.00361134 0
M  V30 5944 C 560.338 1.36394 1.4832 0
M  V30 5945 O 559.394 1.16046 2.24253 0
M  V30 5946 C 560.707 2.97512 -0.436682 0
M  V30 5947 C 562.255 3.10568 -0.389416 0
M  V30 5948 C 562.73 4.50866 -0.805249 0
M  V30 5949 N 564.221 4.56929 -0.759616 0
M  V30 5950 C 564.956 5.63643 -1.05327 0
M  V30 5951 N 564.452 6.78189 -1.41531 0
M  V30 5952 N 566.245 5.5354 -0.977207 0
M  V30 5953 H 558.396 1.67044 -1.31187 0
M  V30 5954 H 560.659 0.782559 -0.535075 0
M  V30 5955 H 560.365 3.19575 -1.46849 0
M  V30 5956 H 560.239 3.76742 0.185744 0
M  V30 5957 H 562.626 2.88226 0.633228 0
M  V30 5958 H 562.707 2.33387 -1.04711 0
M  V30 5959 H 562.351 4.73943 -1.82593 0
M  V30 5960 H 562.281 5.26452 -0.124989 0
M  V30 5961 H 564.772 3.74675 -0.49265 0
M  V30 5962 H 565.085 7.55541 -1.62411 0
M  V30 5963 H 563.43 6.79624 -1.45381 0
M  V30 5964 H 566.621 4.62932 -0.693675 0
M  V30 5965 H 566.794 6.36614 -1.2094 0
M  V30 5966 N 560.2 0.0768682 1.57412 0
M  V30 5967 C 561.425 -0.603404 1.98428 0
M  V30 5968 C 561.85 -1.62047 0.955108 0
M  V30 5969 O 561.208 -1.81129 -0.0786778 0
M  V30 5970 C 561.256 -1.24396 3.38464 0
M  V30 5971 O 560.36 -2.35982 3.3821 0
M  V30 5972 H 559.701 -0.154741 0.645718 0
M  V30 5973 H 562.231 0.152885 2.04028 0
M  V30 5974 H 562.241 -1.5896 3.7576 0
M  V30 5975 H 560.916 -0.498735 4.12899 0
M  V30 5976 H 559.493 -2.03173 3.1269 0
M  V30 5977 N 561.678 -1.56367 -0.196722 0
M  V30 5978 C 562.628 -1.9082 -1.24787 0
M  V30 5979 C 563.612 -0.773719 -1.41076 0
M  V30 5980 O 564.804 -1.03655 -1.43474 0
M  V30 5981 C 561.933 -2.24982 -2.59303 0
M  V30 5982 C 561.019 -3.44882 -2.46814 0
M  V30 5983 N 561.41 -4.62835 -2.04003 0
M  V30 5984 C 559.708 -3.48988 -2.77711 0
M  V30 5985 C 560.409 -5.44993 -2.03366 0
M  V30 5986 N 559.385 -4.85356 -2.44807 0
M  V30 5987 H 563.187 -2.79516 -0.908175 0
M  V30 5988 H 560.701 -1.57265 -0.405166 0
M  V30 5989 H 562.698 -2.47848 -3.35227 0
M  V30 5990 H 561.358 -1.37611 -2.94098 0
M  V30 5991 H 562.369 -4.87532 -1.74738 0
M  V30 5992 H 559.046 -2.72029 -3.16712 0
M  V30 5993 H 560.436 -6.49464 -1.72181 0
M  V30 5994 N 563.156 0.464375 -1.50603 0
M  V30 5995 C 564.086 1.56944 -1.72889 0
M  V30 5996 C 565.067 1.59979 -0.577997 0
M  V30 5997 O 566.252 1.76138 -0.817855 0
M  V30 5998 C 563.382 2.95225 -1.8292 0
M  V30 5999 C 562.336 3.07056 -2.98162 0
M  V30 6000 C 561.662 4.47051 -2.93343 0
M  V30 6001 C 562.962 2.83648 -4.38567 0
M  V30 6002 H 564.656 1.38547 -2.65415 0
M  V30 6003 H 562.202 0.665082 -1.27721 0
M  V30 6004 H 564.155 3.72467 -1.97095 0
M  V30 6005 H 562.879 3.14793 -0.870209 0
M  V30 6006 H 561.538 2.32248 -2.83648 0
M  V30 6007 H 561.186 4.63547 -1.95276 0
M  V30 6008 H 560.886 4.55902 -3.70712 0
M  V30 6009 H 562.41 5.26304 -3.09575 0
M  V30 6010 H 563.824 3.50636 -4.53572 0
M  V30 6011 H 562.221 3.03937 -5.17438 0
M  V30 6012 H 563.291 1.79451 -4.50472 0
M  V30 6013 N 564.634 1.40294 0.718013 0
M  V30 6014 C 565.582 1.40536 1.85344 0
M  V30 6015 C 566.576 0.286192 1.66965 0
M  V30 6016 O 567.782 0.457105 1.74099 0
M  V30 6017 H 564.157 0.439236 0.61039 0
M  V30 6018 H 566.128 2.36275 1.82255 0
M  V30 6019 C 564.877 1.28245 3.23185 0
M  V30 6020 H 564.2 2.1364 3.37932 0
M  V30 6021 H 565.64 1.32474 4.02774 0
M  V30 6022 C 564.099 -0.0075503 3.36899 0
M  V30 6023 O 564.629 -0.971391 3.89778 0
M  V30 6024 N 562.835 -0.0762479 2.905 0
M  V30 6025 H 562.382 0.708819 2.47656 0
M  V30 6026 H 562.34 -0.938846 3.00055 0
M  V30 6027 N 566.112 -0.949982 1.2575 0
M  V30 6028 C 567.062 -2.03297 1.03221 0
M  V30 6029 C 568.046 -1.60867 -0.0324751 0
M  V30 6030 O 569.238 -1.76047 0.183423 0
M  V30 6031 C 566.367 -3.36938 0.657841 0
M  V30 6032 C 565.453 -3.85878 1.75952 0
M  V30 6033 N 565.844 -4.0756 2.99547 0
M  V30 6034 C 564.142 -4.14709 1.64111 0
M  V30 6035 C 564.843 -4.47961 3.71087 0
M  V30 6036 N 563.819 -4.5416 2.98731 0
M  V30 6037 H 567.621 -2.1806 1.97045 0
M  V30 6038 H 565.135 -1.13516 1.16138 0
M  V30 6039 H 567.132 -4.14155 0.477614 0
M  V30 6040 H 565.792 -3.2355 -0.273025 0
M  V30 6041 H 566.803 -3.94501 3.35544 0
M  V30 6042 H 563.48 -4.10158 0.779527 0
M  V30 6043 H 564.87 -4.73002 4.77199 0
M  V30 6044 N 567.59 -1.07411 -1.15328 0
M  V30 6045 C 568.5 -0.706438 -2.23711 0
M  V30 6046 C 569.516 0.282586 -1.7169 0
M  V30 6047 O 570.692 0.129066 -2.00986 0
M  V30 6048 C 567.757 -0.11048 -3.46524 0
M  V30 6049 C 566.818 -1.15282 -4.13532 0
M  V30 6050 C 566.051 -0.585205 -5.30482 0
M  V30 6051 O 566.274 0.598549 -5.67251 0
M  V30 6052 O 565.208 -1.33039 -5.87013 0
M  V30 6053 H 569.034 -1.61031 -2.57493 0
M  V30 6054 H 566.619 -0.847113 -1.23062 0
M  V30 6055 H 568.501 0.21957 -4.20828 0
M  V30 6056 H 567.176 0.766703 -3.14489 0
M  V30 6057 H 566.083 -1.53523 -3.41147 0
M  V30 6058 H 567.416 -2.00192 -4.49649 0
M  V30 6059 N 569.068 1.32177 -0.85831 0
M  V30 6060 C 570.015 2.28794 -0.303607 0
M  V30 6061 C 570.985 1.55213 0.591453 0
M  V30 6062 O 572.17 1.83418 0.525585 0
M  V30 6063 C 569.31 3.41475 0.49889 0
M  V30 6064 C 568.423 4.2993 -0.422373 0
M  V30 6065 C 567.558 5.29743 0.393111 0
M  V30 6066 C 566.597 6.09842 -0.525317 0
M  V30 6067 N 565.734 7.01643 0.253208 0
M  V30 6068 H 570.574 2.75631 -1.13276 0
M  V30 6069 H 568.111 1.35606 -0.570026 0
M  V30 6070 H 570.069 4.05531 0.979826 0
M  V30 6071 H 568.699 2.95779 1.29284 0
M  V30 6072 H 567.751 3.66422 -1.02171 0
M  V30 6073 H 569.063 4.85899 -1.12709 0
M  V30 6074 H 568.217 5.9942 0.937056 0
M  V30 6075 H 566.956 4.744 1.13117 0
M  V30 6076 H 565.961 5.39066 -1.08112 0
M  V30 6077 H 567.186 6.6727 -1.26205 0
M  V30 6078 H 565.132 6.48725 0.974295 0
M  V30 6079 H 565.049 7.54981 -0.392398 0
M  V30 6080 H 566.317 7.756 0.778761 0
M  V30 6081 N 570.547 0.616602 1.45037 0
M  V30 6082 C 571.457 -0.0985401 2.34393 0
M  V30 6083 C 572.473 -0.850971 1.51771 0
M  V30 6084 O 573.649 -0.806521 1.84546 0
M  V30 6085 C 570.714 -1.07748 3.29532 0
M  V30 6086 C 569.775 -0.326022 4.2806 0
M  V30 6087 C 569.008 -1.25833 5.18654 0
M  V30 6088 O 569.231 -2.49652 5.12864 0
M  V30 6089 O 568.165 -0.750512 5.97203 0
M  V30 6090 H 571.991 0.636016 2.96966 0
M  V30 6091 H 569.576 0.376832 1.44569 0
M  V30 6092 H 571.458 -1.64107 3.88133 0
M  V30 6093 H 570.133 -1.79291 2.69512 0
M  V30 6094 H 569.04 0.280253 3.73049 0
M  V30 6095 H 570.373 0.349091 4.9096 0
M  V30 6096 N 572.025 -1.5352 0.356285 0
M  V30 6097 C 572.958 -2.2177 -0.537913 0
M  V30 6098 C 573.936 -1.20626 -1.09033 0
M  V30 6099 O 575.12 -1.49494 -1.1482 0
M  V30 6100 C 572.247 -2.90513 -1.74126 0
M  V30 6101 C 571.293 -4.05652 -1.31715 0
M  V30 6102 S 572.126 -5.34505 -0.326236 0
M  V30 6103 C 573.282 -6.06757 -1.53612 0
M  V30 6104 H 573.515 -2.97271 0.0417411 0
M  V30 6105 H 571.048 -1.53761 0.140372 0
M  V30 6106 H 573.006 -3.30735 -2.43155 0
M  V30 6107 H 571.667 -2.14754 -2.29215 0
M  V30 6108 H 570.86 -4.52733 -2.21471 0
M  V30 6109 H 570.462 -3.67272 -0.706183 0
M  V30 6110 H 572.754 -6.30924 -2.46863 0
M  V30 6111 H 573.697 -6.99395 -1.10687 0
M  V30 6112 H 574.105 -5.3708 -1.73796 0
M  V30 6113 N 573.503 -0.0852151 -1.57369 0
M  V30 6114 C 574.75 0.580806 -1.93992 0
M  V30 6115 C 575.078 1.68801 -0.966252 0
M  V30 6116 O 574.333 1.95694 0.0158649 0
M  V30 6117 C 574.632 1.18482 -3.3719 0
M  V30 6118 C 574.298 0.2024 -4.50446 0
M  V30 6119 C 572.96 -0.0678318 -4.81152 0
M  V30 6120 C 575.312 -0.46895 -5.19086 0
M  V30 6121 C 572.64 -1.01627 -5.77831 0
M  V30 6122 C 574.992 -1.4058 -6.16782 0
M  V30 6123 C 573.656 -1.68436 -6.45899 0
M  V30 6124 H 572.926 0.212532 -0.709867 0
M  V30 6125 H 575.573 -0.158947 -1.90839 0
M  V30 6126 H 573.878 2.0006 -3.36873 0
M  V30 6127 H 575.575 1.70767 -3.62822 0
M  V30 6128 H 572.165 0.423208 -4.26505 0
M  V30 6129 H 576.349 -0.273307 -4.95547 0
M  V30 6130 H 571.605 -1.2392 -5.9871 0
M  V30 6131 H 575.779 -1.93188 -6.69068 0
M  V30 6132 H 573.406 -2.42088 -7.20623 0
M  V30 6133 N 574.981 1.5647 0.188427 0
M  V30 6134 C 575.944 1.9421 1.21718 0
M  V30 6135 C 576.944 0.823901 1.38089 0
M  V30 6136 O 578.134 1.09122 1.35787 0
M  V30 6137 C 575.266 2.22197 2.58537 0
M  V30 6138 H 576.459 2.86252 0.894418 0
M  V30 6139 H 574.012 1.50263 0.430211 0
M  V30 6140 H 574.747 1.32814 2.95856 0
M  V30 6141 H 574.532 3.03688 2.48025 0
M  V30 6142 H 576.022 2.52376 3.3271 0
M  V30 6143 N 576.459 -0.456382 1.50847 0
M  V30 6144 C 577.391 -1.57033 1.66953 0
M  V30 6145 C 578.404 -1.53207 0.550593 0
M  V30 6146 O 579.593 -1.58328 0.824285 0
M  V30 6147 C 576.693 -2.95937 1.65149 0
M  V30 6148 C 575.866 -3.24475 2.93317 0
M  V30 6149 C 574.925 -4.43007 2.83957 0
M  V30 6150 O 573.951 -4.42592 3.57912 0
M  V30 6151 N 575.153 -5.45503 1.9851 0
M  V30 6152 H 577.918 -1.43629 2.63042 0
M  V30 6153 H 575.479 -0.645037 1.48495 0
M  V30 6154 H 577.471 -3.73224 1.56481 0
M  V30 6155 H 576.041 -3.03036 0.767343 0
M  V30 6156 H 575.261 -2.35664 3.16 0
M  V30 6157 H 576.549 -3.4036 3.78196 0
M  V30 6158 H 575.947 -5.48668 1.37766 0
M  V30 6159 H 574.504 -6.21716 1.95735 0
M  V30 6160 N 577.937 -1.40673 -0.710563 0
M  V30 6161 C 579.214 -1.29718 -1.46398 0
M  V30 6162 C 579.594 0.082177 -2.1094 0
M  V30 6163 O 578.942 1.09536 -2.00534 0
M  V30 6164 C 579.152 -2.43967 -2.49562 0
M  V30 6165 C 580.5 -2.84436 -3.15248 0
M  V30 6166 O 581.524 -2.43597 -2.59883 0
M  V30 6167 O 580.383 -3.55008 -4.1549 0
M  V30 6168 H 577.477 -0.509697 -0.651258 0
M  V30 6169 H 580.023 -1.52603 -0.742312 0
M  V30 6170 H 578.795 -3.36076 -2.0042 0
M  V30 6171 H 578.418 -2.22879 -3.29258 0
M  V30 6172 N 579.415 0.9433 -1.26252 0
M  V30 6173 C 580.365 2.02746 -1.04297 0
M  V30 6174 C 581.349 1.60882 0.0239435 0
M  V30 6175 O 582.541 1.75947 -0.192757 0
M  V30 6176 C 579.67 3.36585 -0.6757 0
M  V30 6177 C 578.756 3.84939 -1.77996 0
M  V30 6178 N 579.147 4.05966 -3.01704 0
M  V30 6179 C 577.445 4.13833 -1.66308 0
M  V30 6180 C 578.146 4.45987 -3.73458 0
M  V30 6181 N 577.122 4.52569 -3.01135 0
M  V30 6182 H 580.924 2.17012 -1.98199 0
M  V30 6183 H 578.438 1.12898 -1.16738 0
M  V30 6184 H 580.435 4.13896 -0.499571 0
M  V30 6185 H 579.095 3.2369 0.255863 0
M  V30 6186 H 580.106 3.92716 -3.37631 0
M  V30 6187 H 576.783 4.09739 -0.801267 0
M  V30 6188 H 578.173 4.70465 -4.79701 0
M  V30 6189 N 580.893 1.08022 1.14757 0
M  V30 6190 C 582.304 0.829144 1.67279 0
M  V30 6191 C 582.655 -0.644721 1.85305 0
M  V30 6192 O 581.78 -1.49838 1.56133 0
M  V30 6193 C 582.375 1.49855 3.03857 0
M  V30 6194 C 580.934 1.29482 3.53428 0
M  V30 6195 C 580.081 1.56386 2.28995 0
M  V30 6196 H 583.032 1.24134 0.988762 0
M  V30 6197 H 583.053 0.923572 3.69121 0
M  V30 6198 H 582.565 2.57123 2.90705 0
M  V30 6199 H 580.666 0.242669 3.71809 0
M  V30 6200 H 580.779 2.01974 4.34446 0
M  V30 6201 H 579.143 0.985217 2.34874 0
M  V30 6202 H 579.926 2.64851 2.18423 0
M  V30 6203 N 582.371 -1.3172 0.865308 0
M  V30 6204 C 583.281 -2.32394 0.320935 0
M  V30 6205 C 584.297 -1.64511 -0.566746 0
M  V30 6206 O 585.473 -1.95969 -0.464575 0
M  V30 6207 C 582.538 -3.43462 -0.472701 0
M  V30 6208 C 581.599 -4.27015 0.442385 0
M  V30 6209 C 580.832 -5.32779 -0.313469 0
M  V30 6210 O 581.055 -5.49158 -1.54214 0
M  V30 6211 O 579.989 -6.01015 0.326257 0
M  V30 6212 H 583.815 -2.80868 1.15528 0
M  V30 6213 H 581.4 -1.35535 0.628545 0
M  V30 6214 H 583.282 -4.11172 -0.922781 0
M  V30 6215 H 581.957 -2.97159 -1.28367 0
M  V30 6216 H 580.864 -3.62075 0.940866 0
M  V30 6217 H 582.197 -4.76871 1.21882 0
M  V30 6218 N 583.85 -0.624285 -1.44708 0
M  V30 6219 C 585.096 -0.126237 -2.02407 0
M  V30 6220 C 585.428 1.24618 -1.48943 0
M  V30 6221 O 584.704 1.82569 -0.670742 0
M  V30 6222 C 584.986 -0.105449 -3.59946 0
M  V30 6223 C 584.84 -1.50972 -4.23707 0
M  V30 6224 C 586.159 0.573629 -4.36346 0
M  V30 6225 H 583.278 -0.0473472 -0.735478 0
M  V30 6226 H 585.92 -0.799452 -1.72362 0
M  V30 6227 H 584.07 0.46783 -3.85673 0
M  V30 6228 H 585.742 -2.13136 -4.0911 0
M  V30 6229 H 583.985 -2.0656 -3.81465 0
M  V30 6230 H 584.656 -1.44727 -5.32689 0
M  V30 6231 H 587.132 0.0861787 -4.16011 0
M  V30 6232 H 586.008 0.557338 -5.46063 0
M  V30 6233 H 586.269 1.64276 -4.10446 0
M  V30 6234 N 585.328 1.53329 -0.364422 0
M  V30 6235 C 586.276 2.27212 0.497737 0
M  V30 6236 C 587.27 1.30146 1.08437 0
M  V30 6237 O 588.476 1.47778 1.0277 0
M  V30 6238 H 584.851 0.730329 0.179232 0
M  V30 6239 H 586.822 2.98037 -0.147182 0
M  V30 6240 C 585.571 3.07333 1.6261 0
M  V30 6241 H 584.894 3.81866 1.184 0
M  V30 6242 H 586.334 3.62209 2.20409 0
M  V30 6243 C 584.793 2.18102 2.56775 0
M  V30 6244 O 585.323 1.79104 3.59562 0
M  V30 6245 N 583.529 1.82759 2.25937 0
M  V30 6246 H 583.076 2.14671 1.42387 0
M  V30 6247 H 583.034 1.23342 2.89196 0
M  V30 6248 N 586.806 0.0935595 1.57322 0
M  V30 6249 C 588.031 -0.582324 1.99057 0
M  V30 6250 C 588.456 -1.61025 0.972242 0
M  V30 6251 O 587.814 -1.81202 -0.0594622 0
M  V30 6252 C 587.862 -1.20799 3.39765 0
M  V30 6253 O 586.966 -2.32382 3.40694 0
M  V30 6254 H 586.307 -0.147884 0.647323 0
M  V30 6255 H 588.837 0.174516 2.03854 0
M  V30 6256 H 588.847 -1.54966 3.77425 0
M  V30 6257 H 587.522 -0.454914 4.13405 0
M  V30 6258 H 586.099 -1.99845 3.14827 0
M  V30 6259 N 588.284 -1.56567 -0.180126 0
M  V30 6260 C 589.214 -1.98753 -1.22553 0
M  V30 6261 C 590.195 -0.86175 -1.46656 0
M  V30 6262 O 591.38 -1.12719 -1.58139 0
M  V30 6263 C 588.51 -2.33988 -2.56645 0
M  V30 6264 C 587.464 -3.49445 -2.47128 0
M  V30 6265 C 586.79 -3.70397 -3.8563 0
M  V30 6266 C 588.09 -4.83171 -1.98352 0
M  V30 6267 H 589.784 -2.86332 -0.874896 0
M  V30 6268 H 587.33 -1.37757 -0.419414 0
M  V30 6269 H 589.283 -2.62097 -3.29974 0
M  V30 6270 H 588.007 -1.43309 -2.93479 0
M  V30 6271 H 586.666 -3.2145 -1.76254 0
M  V30 6272 H 586.314 -2.77023 -4.19842 0
M  V30 6273 H 586.014 -4.48077 -3.80132 0
M  V30 6274 H 587.538 -4.00897 -4.60558 0
M  V30 6275 H 588.952 -5.10213 -2.61449 0
M  V30 6276 H 587.349 -5.64425 -2.03823 0
M  V30 6277 H 588.419 -4.75753 -0.937402 0
M  V30 6278 N 589.762 0.448376 -1.51087 0
M  V30 6279 C 590.672 1.56882 -1.74428 0
M  V30 6280 C 591.688 1.62268 -0.62809 0
M  V30 6281 O 592.864 1.79716 -0.909075 0
M  V30 6282 C 589.929 2.92947 -1.85426 0
M  V30 6283 C 588.99 2.97766 -3.09247 0
M  V30 6284 C 588.223 4.27341 -3.19711 0
M  V30 6285 O 588.446 5.19112 -2.36387 0
M  V30 6286 O 587.38 4.38219 -4.12611 0
M  V30 6287 H 591.206 1.40104 -2.69452 0
M  V30 6288 H 588.791 0.630247 -1.35456 0
M  V30 6289 H 590.673 3.73719 -1.94709 0
M  V30 6290 H 589.348 3.09876 -0.935887 0
M  V30 6291 H 588.255 2.15989 -3.0545 0
M  V30 6292 H 589.588 2.8578 -4.00738 0
M  V30 6293 N 591.24 1.41047 0.703093 0
M  V30 6294 C 592.15 1.44645 1.84703 0
M  V30 6295 C 593.166 0.337778 1.7069 0
M  V30 6296 O 594.342 0.584327 1.92737 0
M  V30 6297 C 591.407 1.31928 3.20618 0
M  V30 6298 C 590.468 2.53047 3.46794 0
M  V30 6299 C 589.701 2.40927 4.76224 0
M  V30 6300 O 589.924 1.42978 5.5219 0
M  V30 6301 O 588.858 3.30543 5.03016 0
M  V30 6302 H 592.684 2.41139 1.84624 0
M  V30 6303 H 590.269 1.22504 0.855167 0
M  V30 6304 H 592.151 1.27092 4.01778 0
M  V30 6305 H 590.826 0.385469 3.21397 0
M  V30 6306 H 589.733 2.6346 2.65593 0
M  V30 6307 H 591.066 3.45231 3.50822 0
M  V30 6308 N 592.718 -0.936591 1.26751 0
M  V30 6309 C 593.964 -1.6858 1.12733 0
M  V30 6310 C 594.297 -1.91414 -0.327745 0
M  V30 6311 O 593.572 -1.49812 -1.24043 0
M  V30 6312 C 593.855 -3.05779 1.90187 0
M  V30 6313 C 593.708 -2.90242 3.43627 0
M  V30 6314 C 595.027 -4.0597 1.69931 0
M  V30 6315 H 592.146 -0.61182 0.410908 0
M  V30 6316 H 594.788 -1.08747 1.55801 0
M  V30 6317 H 592.938 -3.56853 1.53584 0
M  V30 6318 H 594.61 -2.46354 3.9001 0
M  V30 6319 H 592.853 -2.2577 3.70419 0
M  V30 6320 H 593.524 -3.87572 3.93055 0
M  V30 6321 H 596 -3.63874 2.0183 0
M  V30 6322 H 594.876 -4.99974 2.26534 0
M  V30 6323 H 595.137 -4.37369 0.64502 0
M  V30 6324 N 594.196 -1.08629 -1.14182 0
M  V30 6325 C 595.442 -0.818556 -1.85546 0
M  V30 6326 C 595.775 0.654076 -1.82854 0
M  V30 6327 O 595.05 1.48099 -1.26083 0
M  V30 6328 C 595.333 -1.34397 -3.3408 0
M  V30 6329 C 595.186 -2.8821 -3.45333 0
M  V30 6330 C 596.505 -0.971069 -4.29253 0
M  V30 6331 H 593.624 -0.298821 -0.673702 0
M  V30 6332 H 596.266 -1.34629 -1.34071 0
M  V30 6333 H 594.416 -0.895064 -3.78049 0
M  V30 6334 H 596.088 -3.41488 -3.10134 0
M  V30 6335 H 594.331 -3.25756 -2.86471 0
M  V30 6336 H 595.002 -3.20047 -4.49749 0
M  V30 6337 H 597.478 -1.35809 -3.93313 0
M  V30 6338 H 596.354 -1.36586 -5.31635 0
M  V30 6339 H 596.615 0.121659 -4.41933 0
M  V30 6340 N 595.674 1.31259 -0.872281 0
M  V30 6341 C 597.09 1.49283 -0.564521 0
M  V30 6342 C 597.29 1.80243 0.900807 0
M  V30 6343 O 596.346 1.88246 1.68284 0
M  V30 6344 C 597.659 2.62503 -1.46673 0
M  V30 6345 C 599.207 2.76386 -1.46901 0
M  V30 6346 C 599.682 3.92705 -2.35684 0
M  V30 6347 N 601.173 3.99995 -2.33577 0
M  V30 6348 C 601.908 4.89276 -2.98992 0
M  V30 6349 N 601.404 5.83443 -3.73585 0
M  V30 6350 N 603.197 4.82541 -2.88289 0
M  V30 6351 H 595.348 1.09432 -1.82039 0
M  V30 6352 H 597.611 0.540949 -0.77851 0
M  V30 6353 H 597.317 2.46407 -2.50951 0
M  V30 6354 H 597.191 3.58695 -1.16696 0
M  V30 6355 H 599.578 2.91894 -0.433796 0
M  V30 6356 H 599.659 1.80853 -1.80903 0
M  V30 6357 H 599.303 3.77954 -3.39283 0
M  V30 6358 H 599.233 4.87549 -1.99006 0
M  V30 6359 H 601.724 3.32624 -1.7936 0
M  V30 6360 H 602.037 6.48303 -4.20622 0
M  V30 6361 H 600.382 5.83415 -3.77694 0
M  V30 6362 H 603.573 4.07951 -2.2955 0
M  V30 6363 H 603.746 5.51916 -3.39549 0
M  V30 6364 N 597.152 0.631951 1.44375 0
M  V30 6365 C 598.082 -0.0593243 2.33425 0
M  V30 6366 C 599.063 -0.833964 1.48253 0
M  V30 6367 O 600.248 -0.799682 1.76971 0
M  V30 6368 C 597.378 -1.04096 3.31333 0
M  V30 6369 C 596.332 -0.377899 4.26328 0
M  V30 6370 C 595.658 -1.4695 5.14111 0
M  V30 6371 C 596.958 0.716371 5.17364 0
M  V30 6372 H 598.652 0.684287 2.91475 0
M  V30 6373 H 596.198 0.330518 1.40156 0
M  V30 6374 H 598.151 -1.53331 3.92514 0
M  V30 6375 H 596.875 -1.81547 2.71493 0
M  V30 6376 H 595.534 0.0938054 3.6648 0
M  V30 6377 H 595.182 -2.2349 4.50623 0
M  V30 6378 H 594.882 -1.03121 5.78481 0
M  V30 6379 H 596.406 -1.96363 5.78164 0
M  V30 6380 H 597.82 0.307089 5.72477 0
M  V30 6381 H 596.217 1.07784 5.90341 0
M  V30 6382 H 597.287 1.58316 4.58327 0
M  V30 6383 N 598.631 -1.53133 0.372548 0
M  V30 6384 C 599.877 -2.01654 -0.215277 0
M  V30 6385 C 600.21 -1.25914 -1.47849 0
M  V30 6386 O 599.485 -0.3548 -1.91237 0
M  V30 6387 C 599.768 -3.56609 -0.500187 0
M  V30 6388 C 599.621 -4.43036 0.777145 0
M  V30 6389 C 600.94 -4.20528 -1.29786 0
M  V30 6390 H 598.059 -0.732991 -0.0767686 0
M  V30 6391 H 600.701 -1.83335 0.498814 0
M  V30 6392 H 598.851 -3.7235 -1.10852 0
M  V30 6393 H 600.523 -4.39079 1.41447 0
M  V30 6394 H 598.766 -4.10723 1.39604 0
M  V30 6395 H 599.437 -5.49424 0.532662 0
M  V30 6396 H 601.913 -4.08663 -0.783198 0
M  V30 6397 H 600.789 -5.28962 -1.46596 0
M  V30 6398 H 601.05 -3.77051 -2.30836 0
M  V30 6399 N 600.109 -0.101901 -1.5727 0
M  V30 6400 C 601.056 0.854577 -2.14396 0
M  V30 6401 C 602.026 1.27521 -1.06432 0
M  V30 6402 O 603.211 1.35575 -1.34253 0
M  V30 6403 C 600.351 2.10576 -2.73408 0
M  V30 6404 C 599.464 1.73504 -3.95626 0
M  V30 6405 C 598.599 2.9346 -4.42781 0
M  V30 6406 C 597.638 2.52547 -5.57572 0
M  V30 6407 N 596.775 3.65359 -5.99547 0
M  V30 6408 H 601.615 0.360578 -2.9581 0
M  V30 6409 H 599.152 0.166303 -1.46157 0
M  V30 6410 H 601.11 2.83859 -3.05745 0
M  V30 6411 H 599.74 2.57463 -1.94711 0
M  V30 6412 H 598.792 0.901622 -3.6956 0
M  V30 6413 H 600.104 1.39426 -4.78917 0
M  V30 6414 H 599.258 3.74988 -4.76937 0
M  V30 6415 H 597.997 3.30753 -3.58404 0
M  V30 6416 H 597.002 1.69446 -5.23037 0
M  V30 6417 H 598.227 2.1639 -6.43702 0
M  V30 6418 H 596.173 4.02358 -5.18116 0
M  V30 6419 H 596.09 3.35148 -6.77652 0
M  V30 6420 H 597.358 4.47378 -6.38336 0
M  V30 6421 N 601.587 1.56661 0.17182 0
M  V30 6422 C 602.998 1.71652 0.734329 0
M  V30 6423 C 603.349 0.712335 1.82812 0
M  V30 6424 O 602.474 -0.126401 2.16031 0
M  V30 6425 C 603.069 3.11226 1.3388 0
M  V30 6426 C 601.628 3.27904 1.84813 0
M  V30 6427 C 600.775 2.67603 0.726917 0
M  V30 6428 H 603.726 1.5861 -0.0535665 0
M  V30 6429 H 603.747 3.09849 2.20849 0
M  V30 6430 H 603.259 3.8429 0.54249 0
M  V30 6431 H 601.36 2.59796 2.6709 0
M  V30 6432 H 601.473 4.35637 1.99392 0
M  V30 6433 H 599.837 2.274 1.14723 0
M  V30 6434 H 600.62 3.43252 -0.0575334 0
M  V30 6435 N 603.065 -0.440357 1.51323 0
M  V30 6436 C 604.293 -1.21255 1.67645 0
M  V30 6437 C 604.708 -1.85088 0.37252 0
M  V30 6438 O 604.065 -1.70582 -0.648683 0
M  V30 6439 C 604.116 -2.29881 2.78993 0
M  V30 6440 O 603.837 -1.68659 4.04334 0
M  V30 6441 C 605.338 -3.20214 3.06558 0
M  V30 6442 H 602.558 -0.36558 0.562666 0
M  V30 6443 H 605.102 -0.52214 1.97722 0
M  V30 6444 H 603.257 -2.94643 2.51524 0
M  V30 6445 H 603.671 -2.40426 4.6615 0
M  V30 6446 H 605.145 -3.92575 3.88058 0
M  V30 6447 H 605.622 -3.80794 2.18844 0
M  V30 6448 H 606.228 -2.61156 3.35675 0
M  V30 6449 N 604.543 -1.41418 -0.695603 0
M  V30 6450 C 605.506 -1.42988 -1.79129 0
M  V30 6451 C 606.506 -0.320514 -1.57573 0
M  V30 6452 O 607.696 -0.58039 -1.64247 0
M  V30 6453 C 604.828 -1.24122 -3.175 0
M  V30 6454 H 606.021 -2.40526 -1.7913 0
M  V30 6455 H 603.574 -1.2756 -0.903225 0
M  V30 6456 H 604.309 -0.274253 -3.23138 0
M  V30 6457 H 604.094 -2.045 -3.34547 0
M  V30 6458 H 605.584 -1.28056 -3.97481 0
M  V30 6459 N 606.021 0.929856 -1.27246 0
M  V30 6460 C 607.27 1.67182 -1.12842 0
M  V30 6461 C 607.583 1.9287 0.325666 0
M  V30 6462 O 608.789 2.64999 0.590572 0
M  V30 6463 C 607.245 3.01097 -1.97151 0
M  V30 6464 C 606.853 2.83115 -3.47203 0
M  V30 6465 C 608.597 3.78907 -1.91389 0
M  V30 6466 C 606.504 4.12573 -4.23719 0
M  V30 6467 H 605.434 0.627064 -0.418697 0
M  V30 6468 H 608.085 1.0332 -1.51649 0
M  V30 6469 H 606.467 3.66004 -1.51186 0
M  V30 6470 H 607.641 2.26989 -4.01015 0
M  V30 6471 H 605.956 2.18736 -3.54321 0
M  V30 6472 H 608.553 4.74837 -2.45834 0
M  V30 6473 H 608.896 4.0674 -0.887047 0
M  V30 6474 H 609.429 3.20794 -2.35237 0
M  V30 6475 H 606.168 3.8992 -5.26918 0
M  V30 6476 H 605.688 4.68371 -3.74685 0
M  V30 6477 H 607.367 4.8095 -4.32777 0
M  V30 6478 N 607.499 1.09233 1.13605 0
M  V30 6479 C 608.748 0.82205 1.84188 0
M  V30 6480 C 609.061 -0.654548 1.84323 0
M  V30 6481 O 610.267 -1.04029 2.50779 0
M  V30 6482 C 608.723 1.42066 3.30674 0
M  V30 6483 C 608.331 2.92965 3.38933 0
M  V30 6484 C 610.075 1.22924 4.06313 0
M  V30 6485 C 607.982 3.45922 4.79679 0
M  V30 6486 H 606.912 0.303854 0.690064 0
M  V30 6487 H 609.563 1.31479 1.28006 0
M  V30 6488 H 607.945 0.855613 3.86646 0
M  V30 6489 H 609.119 3.55679 2.92966 0
M  V30 6490 H 607.434 3.11118 2.76757 0
M  V30 6491 H 610.031 1.59945 5.10217 0
M  V30 6492 H 610.374 0.169726 4.15954 0
M  V30 6493 H 610.907 1.76168 3.56665 0
M  V30 6494 H 607.646 4.51484 4.75229 0
M  V30 6495 H 607.166 2.87971 5.26149 0
M  V30 6496 H 608.845 3.43009 5.48592 0
M  V30 6497 N 608.977 -1.30795 0.87923 0
M  V30 6498 C 610.225 -1.95974 0.493809 0
M  V30 6499 C 610.546 -1.69787 -0.959021 0
M  V30 6500 O 609.816 -1.01832 -1.67353 0
M  V30 6501 H 608.396 -0.725083 0.179622 0
M  V30 6502 H 611.058 -1.59432 1.12105 0
M  V30 6503 H 610.154 -3.05058 0.659263 0
M  V30 6504 N 610.455 -0.639598 -1.44038 0
M  V30 6505 C 611.701 -0.147698 -2.02261 0
M  V30 6506 C 612.034 1.23031 -1.50256 0
M  V30 6507 O 611.309 1.81847 -0.690068 0
M  V30 6508 C 611.592 -0.14362 -3.59813 0
M  V30 6509 C 611.445 -1.55458 -4.22082 0
M  V30 6510 C 612.764 0.527317 -4.36929 0
M  V30 6511 H 609.883 -0.0551453 -0.734934 0
M  V30 6512 H 612.525 -0.817688 -1.71505 0
M  V30 6513 H 610.675 0.426898 -3.86147 0
M  V30 6514 H 612.347 -2.17464 -4.06826 0
M  V30 6515 H 610.59 -2.10594 -3.79253 0
M  V30 6516 H 611.261 -1.50369 -5.31124 0
M  V30 6517 H 613.737 0.0420504 -4.16079 0
M  V30 6518 H 612.613 0.499389 -5.46624 0
M  V30 6519 H 612.874 1.59914 -4.12165 0
M  V30 6520 N 611.933 1.52934 -0.380664 0
M  V30 6521 C 612.896 2.24809 0.446473 0
M  V30 6522 C 613.896 1.26133 0.997347 0
M  V30 6523 O 615.086 1.50297 0.880714 0
M  V30 6524 C 612.218 2.99649 1.62553 0
M  V30 6525 H 613.411 2.99343 -0.182677 0
M  V30 6526 H 610.964 1.55736 -0.132618 0
M  V30 6527 H 611.699 2.29395 2.29235 0
M  V30 6528 H 611.484 3.72066 1.23732 0
M  V30 6529 H 612.974 3.54246 2.21133 0
M  V30 6530 N 613.412 0.11024 1.57214 0
M  V30 6531 C 614.375 -0.828808 2.1369 0
M  V30 6532 C 615.375 -1.20059 1.06969 0
M  V30 6533 O 616.565 -1.12754 1.32786 0
M  V30 6534 C 613.697 -2.11959 2.66994 0
M  V30 6535 H 614.89 -0.338146 2.97988 0
M  V30 6536 H 612.443 -0.138913 1.55681 0
M  V30 6537 H 613.178 -2.65476 1.8626 0
M  V30 6538 H 612.963 -1.86258 3.45037 0
M  V30 6539 H 614.453 -2.79105 3.10629 0
M  V30 6540 N 614.89 -1.56749 -0.16351 0
M  V30 6541 C 616.139 -1.81626 -0.877211 0
M  V30 6542 C 616.452 -0.688791 -1.83071 0
M  V30 6543 O 617.658 -0.822697 -2.58735 0
M  V30 6544 C 616.114 -3.21858 -1.61045 0
M  V30 6545 C 615.722 -4.42494 -0.700195 0
M  V30 6546 C 617.466 -3.56021 -2.31192 0
M  V30 6547 C 615.373 -5.73748 -1.43412 0
M  V30 6548 H 614.303 -0.67731 -0.331312 0
M  V30 6549 H 616.954 -1.83039 -0.13006 0
M  V30 6550 H 615.336 -3.14784 -2.40264 0
M  V30 6551 H 616.51 -4.60766 0.0555849 0
M  V30 6552 H 614.825 -4.1626 -0.10799 0
M  V30 6553 H 617.422 -4.51333 -2.8671 0
M  V30 6554 H 617.765 -2.81277 -3.06902 0
M  V30 6555 H 618.298 -3.64682 -1.58909 0
M  V30 6556 H 615.037 -6.51543 -0.719186 0
M  V30 6557 H 614.557 -5.5944 -2.16302 0
M  V30 6558 H 616.236 -6.15975 -1.9795 0
M  V30 6559 N 616.368 0.432326 -1.51554 0
M  V30 6560 C 617.331 1.50765 -1.72634 0
M  V30 6561 C 618.331 1.49334 -0.596314 0
M  V30 6562 O 619.521 1.51268 -0.863925 0
M  V30 6563 C 616.653 2.90284 -1.7874 0
M  V30 6564 H 617.846 1.33377 -2.68609 0
M  V30 6565 H 615.399 0.661329 -1.4162 0
M  V30 6566 H 616.134 3.13071 -0.845977 0
M  V30 6567 H 615.919 2.92727 -2.6087 0
M  V30 6568 H 617.409 3.68282 -1.96871 0
M  V30 6569 N 617.846 1.41785 0.688094 0
M  V30 6570 C 619.094 1.41264 1.4453 0
M  V30 6571 C 619.415 0.0252946 1.94984 0
M  V30 6572 O 618.685 -0.934081 1.72197 0
M  V30 6573 H 617.265 0.519998 0.536294 0
M  V30 6574 H 619.927 1.7709 0.813941 0
M  V30 6575 H 619.023 2.10439 2.30482 0
M  V30 6576 N 619.324 -0.923095 1.27737 0
M  V30 6577 C 620.287 -2.00587 1.10894 0
M  V30 6578 C 621.287 -1.60718 0.0514927 0
M  V30 6579 O 622.477 -1.71658 0.296481 0
M  V30 6580 C 619.609 -3.33829 0.690717 0
M  V30 6581 H 620.802 -2.16959 2.07048 0
M  V30 6582 H 618.355 -1.10451 1.1059 0
M  V30 6583 H 619.09 -3.23157 -0.272 0
M  V30 6584 H 618.875 -3.64125 1.45448 0
M  V30 6585 H 620.365 -4.13336 0.595252 0
M  V30 6586 N 620.802 -1.09834 -1.13024 0
M  V30 6587 C 622.049 -0.83695 -1.84395 0
M  V30 6588 C 622.377 0.637463 -1.83757 0
M  V30 6589 O 621.632 1.48554 -1.27398 0
M  V30 6590 C 621.931 -1.32263 -3.32026 0
M  V30 6591 C 621.597 -2.80739 -3.52841 0
M  V30 6592 C 620.259 -3.21286 -3.5823 0
M  V30 6593 C 622.611 -3.76449 -3.60466 0
M  V30 6594 C 619.939 -4.56308 -3.68781 0
M  V30 6595 C 622.291 -5.11266 -3.72546 0
M  V30 6596 C 620.955 -5.51397 -3.76189 0
M  V30 6597 H 620.225 -0.306262 -0.674748 0
M  V30 6598 H 622.872 -1.37385 -1.33408 0
M  V30 6599 H 621.177 -0.705618 -3.85394 0
M  V30 6600 H 622.874 -1.09695 -3.85705 0
M  V30 6601 H 619.464 -2.48363 -3.49305 0
M  V30 6602 H 623.648 -3.46234 -3.55578 0
M  V30 6603 H 618.904 -4.86832 -3.69871 0
M  V30 6604 H 623.078 -5.85279 -3.77388 0
M  V30 6605 H 620.705 -6.56017 -3.84117 0
M  V30 6606 N 622.28 1.30327 -0.886154 0
M  V30 6607 C 623.508 2.00254 -0.520176 0
M  V30 6608 C 623.923 1.66419 0.891637 0
M  V30 6609 O 623.28 0.901951 1.58654 0
M  V30 6610 C 623.331 3.54916 -0.686775 0
M  V30 6611 O 623.052 3.87547 -2.04301 0
M  V30 6612 C 624.553 4.42115 -0.323945 0
M  V30 6613 H 621.773 0.640204 -0.200947 0
M  V30 6614 H 624.317 1.66183 -1.19178 0
M  V30 6615 H 622.472 3.8735 -0.0625273 0
M  V30 6616 H 622.886 4.82247 -2.06249 0
M  V30 6617 H 624.36 5.49808 -0.491407 0
M  V30 6618 H 624.837 4.32953 0.73811 0
M  V30 6619 H 625.443 4.15129 -0.924565 0
M  V30 6620 N 623.758 0.647228 1.43697 0
M  V30 6621 C 624.668 -0.0487997 2.34549 0
M  V30 6622 C 625.684 -0.818586 1.53542 0
M  V30 6623 O 626.86 -0.767195 1.86215 0
M  V30 6624 C 623.925 -1.00734 3.31743 0
M  V30 6625 C 622.986 -0.23515 4.28655 0
M  V30 6626 C 622.219 -1.14803 5.21206 0
M  V30 6627 O 622.442 -2.38717 5.18045 0
M  V30 6628 O 621.376 -0.623667 5.9866 0
M  V30 6629 H 625.202 0.698863 2.9555 0
M  V30 6630 H 622.787 0.407412 1.43738 0
M  V30 6631 H 624.669 -1.55837 3.91526 0
M  V30 6632 H 623.344 -1.73534 2.73254 0
M  V30 6633 H 622.251 0.359319 3.7237 0
M  V30 6634 H 623.584 0.453152 4.9011 0
M  V30 6635 N 625.236 -1.5273 0.388769 0
M  V30 6636 C 626.168 -2.24081 -0.481704 0
M  V30 6637 C 627.181 -1.26307 -1.02715 0
M  V30 6638 O 628.37 -1.52386 -0.929565 0
M  V30 6639 C 625.47 -2.94315 -1.68024 0
M  V30 6640 C 624.643 -4.18791 -1.26226 0
M  V30 6641 C 623.702 -4.72028 -2.32542 0
M  V30 6642 O 622.728 -5.35129 -1.93972 0
M  V30 6643 N 623.93 -4.51838 -3.64448 0
M  V30 6644 H 626.695 -2.9942 0.129591 0
M  V30 6645 H 624.256 -1.60465 0.2151 0
M  V30 6646 H 626.248 -3.26831 -2.38671 0
M  V30 6647 H 624.818 -2.22287 -2.19789 0
M  V30 6648 H 624.038 -3.92318 -0.384703 0
M  V30 6649 H 625.326 -4.99668 -0.959647 0
M  V30 6650 H 624.724 -4.01468 -3.98547 0
M  V30 6651 H 623.281 -4.88845 -4.31131 0
M  V30 6652 N 626.714 -0.118576 -1.57153 0
M  V30 6653 C 627.963 0.539339 -1.94355 0
M  V30 6654 C 628.276 1.67858 -1.00415 0
M  V30 6655 O 629.482 2.39922 -1.27081 0
M  V30 6656 C 627.938 1.01082 -3.45414 0
M  V30 6657 C 627.546 -0.0999402 -4.47889 0
M  V30 6658 C 629.29 1.64013 -3.91535 0
M  V30 6659 C 627.197 0.388212 -5.90124 0
M  V30 6660 H 626.127 0.205247 -0.725527 0
M  V30 6661 H 628.778 -0.19836 -1.82425 0
M  V30 6662 H 627.16 1.80292 -3.52577 0
M  V30 6663 H 628.334 -0.876189 -4.52393 0
M  V30 6664 H 626.649 -0.635885 -4.11516 0
M  V30 6665 H 629.246 2.01649 -4.95219 0
M  V30 6666 H 629.589 2.51836 -3.31488 0
M  V30 6667 H 630.122 0.913439 -3.87171 0
M  V30 6668 H 626.861 -0.453963 -6.53926 0
M  V30 6669 H 626.381 1.13095 -5.89041 0
M  V30 6670 H 628.06 0.849574 -6.41398 0
M  V30 6671 N 628.193 1.56834 0.155195 0
M  V30 6672 C 629.123 2.00678 1.19376 0
M  V30 6673 C 630.104 0.884973 1.45266 0
M  V30 6674 O 631.289 1.1522 1.56326 0
M  V30 6675 C 628.419 2.38042 2.5289 0
M  V30 6676 C 627.373 3.53332 2.41538 0
M  V30 6677 C 626.699 3.76485 3.79688 0
M  V30 6678 C 627.999 4.86265 1.9064 0
M  V30 6679 H 629.693 2.87688 0.829232 0
M  V30 6680 H 627.239 1.38407 0.397445 0
M  V30 6681 H 629.192 2.67314 3.25763 0
M  V30 6682 H 627.916 1.4796 2.91162 0
M  V30 6683 H 626.575 3.24213 1.71117 0
M  V30 6684 H 626.223 2.83667 4.15382 0
M  V30 6685 H 625.923 4.54068 3.72956 0
M  V30 6686 H 627.447 4.08174 4.54122 0
M  V30 6687 H 628.861 5.14308 2.53299 0
M  V30 6688 H 627.258 5.67597 1.94818 0
M  V30 6689 H 628.328 4.77184 0.861596 0
M  V30 6690 N 629.671 -0.424282 1.51781 0
M  V30 6691 C 631.087 -0.761768 1.40247 0
M  V30 6692 C 631.287 -1.95324 0.495041 0
M  V30 6693 O 630.343 -2.5246 -0.0448949 0
M  V30 6694 C 631.656 -1.0299 2.82513 0
M  V30 6695 C 633.204 -1.13354 2.91753 0
M  V30 6696 C 633.679 -1.43453 4.34954 0
M  V30 6697 N 635.17 -1.5035 4.3812 0
M  V30 6698 C 635.905 -1.75236 5.45967 0
M  V30 6699 N 635.401 -1.97827 6.63955 0
M  V30 6700 N 637.194 -1.77126 5.33463 0
M  V30 6701 H 629.345 0.360228 2.09323 0
M  V30 6702 H 631.608 0.0988128 0.942836 0
M  V30 6703 H 631.314 -0.226961 3.50967 0
M  V30 6704 H 631.188 -1.95411 3.22637 0
M  V30 6705 H 633.575 -1.92709 2.23489 0
M  V30 6706 H 633.656 -0.188041 2.55108 0
M  V30 6707 H 633.3 -0.646209 5.03772 0
M  V30 6708 H 633.23 -2.3923 4.69123 0
M  V30 6709 H 635.721 -1.34742 3.53062 0
M  V30 6710 H 636.034 -2.16223 7.41935 0
M  V30 6711 H 634.379 -1.95123 6.67047 0
M  V30 6712 H 637.57 -1.59005 4.40267 0
M  V30 6713 H 637.743 -1.96182 6.17589 0
M  V30 6714 N 631.149 -1.42148 -0.680565 0
M  V30 6715 C 632.426 -1.32795 -1.43614 0
M  V30 6716 C 632.806 0.037415 -2.11067 0
M  V30 6717 O 632.154 1.05258 -2.02813 0
M  V30 6718 C 632.364 -2.49206 -2.44331 0
M  V30 6719 C 633.712 -2.91059 -3.09144 0
M  V30 6720 O 634.736 -2.49054 -2.54657 0
M  V30 6721 O 633.595 -3.63741 -4.07866 0
M  V30 6722 H 630.689 -0.523397 -0.640301 0
M  V30 6723 H 633.235 -1.54144 -0.709775 0
M  V30 6724 H 632.007 -3.40252 -1.93247 0
M  V30 6725 H 631.63 -2.29813 -3.24456 0
M  V30 6726 N 632.627 0.916307 -1.28225 0
M  V30 6727 C 633.56 2.01954 -1.06254 0
M  V30 6728 C 634.538 1.62587 0.0205983 0
M  V30 6729 O 635.722 1.88073 -0.126824 0
M  V30 6730 C 632.849 3.33086 -0.614141 0
M  V30 6731 C 631.895 3.91435 -1.69354 0
M  V30 6732 S 632.728 4.22603 -3.28887 0
M  V30 6733 C 633.884 5.568 -2.85876 0
M  V30 6734 H 634.117 2.20281 -1.99659 0
M  V30 6735 H 631.65 1.06085 -1.12184 0
M  V30 6736 H 633.608 4.089 -0.36213 0
M  V30 6737 H 632.269 3.12664 0.300036 0
M  V30 6738 H 631.462 4.86098 -1.33136 0
M  V30 6739 H 631.064 3.22248 -1.89821 0
M  V30 6740 H 633.356 6.3658 -2.31888 0
M  V30 6741 H 634.299 5.97927 -3.79326 0
M  V30 6742 H 634.707 5.17865 -2.24669 0
M  V30 6743 N 634.105 1.10431 1.1244 0
M  V30 6744 C 635.068 0.756542 2.16354 0
M  V30 6745 C 636.068 -0.21899 1.59302 0
M  V30 6746 O 637.258 0.00415969 1.742 0
M  V30 6747 C 634.39 0.120612 3.40687 0
M  V30 6748 H 635.583 1.67696 2.48632 0
M  V30 6749 H 633.136 0.904832 1.27446 0
M  V30 6750 H 633.871 -0.810536 3.14008 0
M  V30 6751 H 633.656 0.822693 3.83372 0
M  V30 6752 H 635.146 -0.106945 4.17463 0
M  V30 6753 N 635.583 -1.29855 0.893053 0
M  V30 6754 C 636.808 -2.00512 0.530066 0
M  V30 6755 C 637.233 -1.66446 -0.876199 0
M  V30 6756 O 636.591 -0.885446 -1.58207 0
M  V30 6757 C 636.639 -3.53308 0.721505 0
M  V30 6758 O 635.743 -4.11764 -0.228994 0
M  V30 6759 H 635.084 -0.630617 0.207891 0
M  V30 6760 H 637.614 -1.6551 1.20282 0
M  V30 6761 H 637.624 -4.03206 0.623599 0
M  V30 6762 H 636.299 -3.77439 1.74678 0
M  V30 6763 H 634.876 -3.72805 -0.0841034 0
M  V30 6764 N 637.061 -0.65484 -1.43351 0
M  V30 6765 C 638.308 -0.168892 -2.01794 0
M  V30 6766 C 638.636 1.2177 -1.51665 0
M  V30 6767 O 637.891 1.82717 -0.70092 0
M  V30 6768 C 638.19 -0.130424 -3.57162 0
M  V30 6769 C 637.856 -1.45898 -4.26643 0
M  V30 6770 C 636.518 -1.82279 -4.4534 0
M  V30 6771 C 638.87 -2.33485 -4.65976 0
M  V30 6772 C 636.198 -3.0591 -5.00635 0
M  V30 6773 C 638.55 -3.5641 -5.22642 0
M  V30 6774 C 637.214 -3.92985 -5.39555 0
M  V30 6775 H 636.484 -0.061802 -0.738418 0
M  V30 6776 H 639.131 -0.845869 -1.71806 0
M  V30 6777 H 637.436 0.630008 -3.86702 0
M  V30 6778 H 639.133 0.262465 -4.0014 0
M  V30 6779 H 635.723 -1.16591 -4.12437 0
M  V30 6780 H 639.907 -2.06668 -4.51223 0
M  V30 6781 H 635.163 -3.34295 -5.11915 0
M  V30 6782 H 639.337 -4.24495 -5.52066 0
M  V30 6783 H 636.964 -4.88862 -5.82167 0
M  V30 6784 N 638.539 1.52521 -0.396863 0
M  V30 6785 C 639.489 2.2348 0.451722 0
M  V30 6786 C 640.473 1.2415 1.0235 0
M  V30 6787 O 641.665 1.4945 0.948348 0
M  V30 6788 C 638.794 3.05067 1.57445 0
M  V30 6789 C 637.88 4.11799 1.01404 0
M  V30 6790 N 638.271 5.05482 0.179234 0
M  V30 6791 C 636.569 4.27064 1.28578 0
M  V30 6792 C 637.27 5.81552 -0.131202 0
M  V30 6793 N 636.246 5.41523 0.474735 0
M  V30 6794 H 640.048 2.93269 -0.192534 0
M  V30 6795 H 637.562 1.61081 -0.206591 0
M  V30 6796 H 639.559 3.54446 2.19485 0
M  V30 6797 H 638.219 2.36816 2.22145 0
M  V30 6798 H 639.23 5.17573 -0.18411 0
M  V30 6799 H 635.907 3.70042 1.93327 0
M  V30 6800 H 637.297 6.67023 -0.808061 0
M  V30 6801 N 640.017 0.126909 1.57088 0
M  V30 6802 C 640.927 -0.833867 2.1928 0
M  V30 6803 C 641.943 -1.2868 1.17122 0
M  V30 6804 O 643.119 -1.34815 1.49622 0
M  V30 6805 C 640.184 -2.0632 2.78627 0
M  V30 6806 C 639.245 -1.66143 3.95847 0
M  V30 6807 C 638.478 -2.83217 4.52354 0
M  V30 6808 O 638.701 -3.98868 4.0775 0
M  V30 6809 O 637.635 -2.59846 5.42922 0
M  V30 6810 H 641.461 -0.334564 3.01852 0
M  V30 6811 H 639.046 -0.0991091 1.49071 0
M  V30 6812 H 640.928 -2.78304 3.16425 0
M  V30 6813 H 639.603 -2.55242 1.99082 0
M  V30 6814 H 638.51 -0.912435 3.62802 0
M  V30 6815 H 639.843 -1.21957 4.76852 0
M  V30 6816 N 641.495 -1.56914 -0.146875 0
M  V30 6817 C 642.911 -1.51582 -0.499518 0
M  V30 6818 C 643.111 -0.83535 -1.83369 0
M  V30 6819 O 642.167 -0.405932 -2.49216 0
M  V30 6820 C 643.48 -2.96349 -0.509711 0
M  V30 6821 C 645.028 -3.07288 -0.595217 0
M  V30 6822 C 645.503 -4.53562 -0.636071 0
M  V30 6823 N 646.994 -4.57906 -0.69829 0
M  V30 6824 C 647.729 -5.68462 -0.750886 0
M  V30 6825 N 647.225 -6.88588 -0.76282 0
M  V30 6826 N 649.018 -5.56496 -0.791777 0
M  V30 6827 H 641.169 -1.99547 0.727656 0
M  V30 6828 H 643.432 -0.910113 0.265327 0
M  V30 6829 H 643.138 -3.4939 0.402409 0
M  V30 6830 H 643.012 -3.52307 -1.34758 0
M  V30 6831 H 645.399 -2.54266 -1.49776 0
M  V30 6832 H 645.48 -2.54373 0.2698 0
M  V30 6833 H 645.124 -5.07222 0.262313 0
M  V30 6834 H 645.054 -5.04259 -1.51758 0
M  V30 6835 H 647.545 -3.71429 -0.696362 0
M  V30 6836 H 647.858 -7.68598 -0.804804 0
M  V30 6837 H 646.203 -6.91148 -0.730694 0
M  V30 6838 H 649.394 -4.61562 -0.779624 0
M  V30 6839 H 649.567 -6.42671 -0.829301 0
M  V30 6840 N 642.974 0.416227 -1.52004 0
M  V30 6841 C 644.385 0.995319 -1.57957 0
M  V30 6842 C 644.736 1.91744 -0.415754 0
M  V30 6843 O 643.861 2.11349 0.464808 0
M  V30 6844 C 644.456 1.81191 -2.86278 0
M  V30 6845 C 643.015 2.34115 -2.94732 0
M  V30 6846 C 642.162 1.139 -2.52828 0
M  V30 6847 H 645.113 0.196716 -1.57476 0
M  V30 6848 H 645.134 2.66859 -2.71231 0
M  V30 6849 H 644.646 1.14051 -3.70963 0
M  V30 6850 H 642.747 3.04647 -2.14525 0
M  V30 6851 H 642.86 2.65466 -3.98829 0
M  V30 6852 H 641.224 1.49081 -2.06511 0
M  V30 6853 H 642.007 0.483383 -3.3988 0
M  V30 6854 N 644.452 1.42507 0.673017 0
M  V30 6855 C 645.701 1.42364 1.42883 0
M  V30 6856 C 646.014 0.0441598 1.9555 0
M  V30 6857 O 647.22 -0.0798679 2.71382 0
M  V30 6858 C 645.676 2.5043 2.58482 0
M  V30 6859 C 645.284 3.94392 2.12506 0
M  V30 6860 C 647.028 2.59455 3.35981 0
M  V30 6861 C 644.935 4.93964 3.25198 0
M  V30 6862 H 643.865 0.52951 0.536782 0
M  V30 6863 H 646.516 1.68422 0.728448 0
M  V30 6864 H 644.898 2.1754 3.30896 0
M  V30 6865 H 646.072 4.36645 1.47233 0
M  V30 6866 H 644.387 3.89233 1.4794 0
M  V30 6867 H 646.984 3.31025 4.19912 0
M  V30 6868 H 647.327 1.63869 3.82691 0
M  V30 6869 H 647.86 2.91549 2.70637 0
M  V30 6870 H 644.599 5.91034 2.83477 0
M  V30 6871 H 644.119 4.56341 3.89247 0
M  V30 6872 H 645.798 5.15763 3.90637 0
M  V30 6873 N 645.93 -0.909495 1.28709 0
M  V30 6874 C 647.179 -1.65365 1.15487 0
M  V30 6875 C 647.492 -1.93364 -0.294941 0
M  V30 6876 O 648.698 -2.65905 -0.548338 0
M  V30 6877 C 647.154 -2.97923 2.01916 0
M  V30 6878 C 646.762 -2.77556 3.51663 0
M  V30 6879 C 648.506 -3.75814 1.97393 0
M  V30 6880 C 646.413 -4.0578 4.30229 0
M  V30 6881 H 645.343 -0.620323 0.42862 0
M  V30 6882 H 647.994 -1.00894 1.53273 0
M  V30 6883 H 646.376 -3.63552 1.5699 0
M  V30 6884 H 647.55 -2.2058 4.04575 0
M  V30 6885 H 645.865 -2.13072 3.57756 0
M  V30 6886 H 648.462 -4.70866 2.53357 0
M  V30 6887 H 648.805 -4.05277 0.951643 0
M  V30 6888 H 649.338 -3.1701 2.40311 0
M  V30 6889 H 646.077 -3.81488 5.33055 0
M  V30 6890 H 645.597 -4.62351 3.82089 0
M  V30 6891 H 647.276 -4.74004 4.40374 0
M  V30 6892 N 647.408 -1.11026 -1.11852 0
M  V30 6893 C 648.655 -0.85646 -1.83497 0
M  V30 6894 C 648.983 0.617938 -1.84423 0
M  V30 6895 O 648.238 1.47194 -1.28966 0
M  V30 6896 C 648.537 -1.35777 -3.30604 0
M  V30 6897 C 648.203 -2.84465 -3.49843 0
M  V30 6898 C 646.865 -3.25068 -3.54802 0
M  V30 6899 C 649.217 -3.80251 -3.56453 0
M  V30 6900 C 646.545 -4.60194 -3.63921 0
M  V30 6901 C 648.897 -5.15188 -3.67102 0
M  V30 6902 C 647.561 -5.55356 -3.70319 0
M  V30 6903 H 646.831 -0.313401 -0.671462 0
M  V30 6904 H 649.478 -1.38792 -1.31943 0
M  V30 6905 H 647.783 -0.746455 -3.84624 0
M  V30 6906 H 649.48 -1.13779 -3.8452 0
M  V30 6907 H 646.07 -2.52054 -3.46651 0
M  V30 6908 H 650.254 -3.49986 -3.51886 0
M  V30 6909 H 645.51 -4.90728 -3.64686 0
M  V30 6910 H 649.684 -5.89248 -3.71159 0
M  V30 6911 H 647.311 -6.60054 -3.77138 0
M  V30 6912 N 648.886 1.2938 -0.899927 0
M  V30 6913 C 649.849 2.25983 -0.382677 0
M  V30 6914 C 650.849 1.53366 0.483259 0
M  V30 6915 O 652.039 1.71798 0.28828 0
M  V30 6916 C 649.171 3.37878 0.452915 0
M  V30 6917 H 650.364 2.73252 -1.23586 0
M  V30 6918 H 647.917 1.40825 -0.678088 0
M  V30 6919 H 648.652 2.95949 1.32608 0
M  V30 6920 H 648.437 3.91742 -0.167562 0
M  V30 6921 H 649.927 4.09746 0.806107 0
M  V30 6922 N 650.364 0.662433 1.43002 0
M  V30 6923 C 651.294 -0.00979809 2.33498 0
M  V30 6924 C 652.275 -0.802329 1.49989 0
M  V30 6925 O 653.46 -0.761964 1.78627 0
M  V30 6926 C 650.59 -0.970446 3.33466 0
M  V30 6927 C 649.544 -0.287383 4.27034 0
M  V30 6928 C 648.87 -1.36012 5.17112 0
M  V30 6929 C 650.17 0.82595 5.15728 0
M  V30 6930 H 651.864 0.745959 2.89958 0
M  V30 6931 H 649.41 0.360172 1.39423 0
M  V30 6932 H 651.363 -1.44971 3.95679 0
M  V30 6933 H 650.087 -1.75748 2.75282 0
M  V30 6934 H 648.746 0.17152 3.66199 0
M  V30 6935 H 648.394 -2.13882 4.55262 0
M  V30 6936 H 648.094 -0.908276 5.80538 0
M  V30 6937 H 649.618 -1.84056 5.82199 0
M  V30 6938 H 651.032 0.42845 5.71697 0
M  V30 6939 H 649.429 1.20282 5.87922 0
M  V30 6940 H 650.499 1.68003 4.54866 0
M  V30 6941 N 651.842 -1.52309 0.404946 0
M  V30 6942 C 653.067 -2.06666 -0.1743 0
M  V30 6943 C 653.492 -1.27341 -1.38441 0
M  V30 6944 O 652.85 -0.302539 -1.78758 0
M  V30 6945 C 652.898 -3.57014 -0.507262 0
M  V30 6946 O 652.002 -3.80144 -1.59889 0
M  V30 6947 H 651.343 -0.663807 -0.0160273 0
M  V30 6948 H 653.873 -1.96297 0.576937 0
M  V30 6949 H 653.883 -4.00724 -0.767098 0
M  V30 6950 H 652.558 -4.14184 0.377368 0
M  V30 6951 H 651.135 -3.48316 -1.33155 0
M  V30 6952 N 653.32 -0.135238 -1.57019 0
M  V30 6953 C 654.268 0.826099 -2.17436 0
M  V30 6954 C 655.262 1.26378 -1.12805 0
M  V30 6955 O 656.468 1.23363 -1.31079 0
M  V30 6956 H 652.843 0.284568 -0.696078 0
M  V30 6957 H 654.814 0.292212 -2.96966 0
M  V30 6958 C 653.563 2.05991 -2.80112 0
M  V30 6959 H 652.886 1.73209 -3.60331 0
M  V30 6960 H 654.326 2.71225 -3.25903 0
M  V30 6961 C 652.785 2.86027 -1.78017 0
M  V30 6962 O 653.315 3.81971 -1.24344 0
M  V30 6963 N 651.521 2.50332 -1.47588 0
M  V30 6964 H 651.068 1.72377 -1.91426 0
M  V30 6965 H 651.026 3.04177 -0.795228 0
M  V30 6966 N 654.798 1.5699 0.138552 0
M  V30 6967 C 656.209 1.73171 0.697754 0
M  V30 6968 C 656.56 0.750952 1.8126 0
M  V30 6969 O 655.685 -0.080549 2.1625 0
M  V30 6970 C 656.28 3.13996 1.27248 0
M  V30 6971 C 654.839 3.3175 1.77816 0
M  V30 6972 C 653.986 2.69084 0.669991 0
M  V30 6973 H 656.937 1.5846 -0.0871979 0
M  V30 6974 H 656.958 3.14463 2.14227 0
M  V30 6975 H 656.47 3.85354 0.460855 0
M  V30 6976 H 654.571 2.65403 2.61519 0
M  V30 6977 H 654.684 4.39768 1.90107 0
M  V30 6978 H 653.048 2.29782 1.09874 0
M  V30 6979 H 653.831 3.43053 -0.130329 0
M  V30 6980 N 656.276 -0.40816 1.52223 0
M  V30 6981 C 657.504 -1.17672 1.70179 0
M  V30 6982 C 657.919 -1.84257 0.411696 0
M  V30 6983 O 657.276 -1.7192 -0.612354 0
M  V30 6984 C 657.327 -2.23911 2.83806 0
M  V30 6985 O 657.048 -1.60044 4.0782 0
M  V30 6986 C 658.549 -3.1364 3.13281 0
M  V30 6987 H 655.769 -0.353562 0.570293 0
M  V30 6988 H 658.313 -0.480083 1.98785 0
M  V30 6989 H 656.468 -2.89242 2.57717 0
M  V30 6990 H 656.882 -2.30484 4.71145 0
M  V30 6991 H 658.356 -3.84255 3.96298 0
M  V30 6992 H 658.833 -3.76066 2.26872 0
M  V30 6993 H 659.439 -2.53977 3.41139 0
M  V30 6994 N 657.755 -1.42862 -0.66545 0
M  V30 6995 C 658.98 -1.47456 -1.45848 0
M  V30 6996 C 659.405 -0.0900312 -1.87884 0
M  V30 6997 O 658.763 0.913587 -1.56599 0
M  V30 6998 C 658.811 -2.41514 -2.67774 0
M  V30 6999 O 657.915 -1.89296 -3.66389 0
M  V30 7000 H 657.256 -0.499236 -0.437789 0
M  V30 7001 H 659.786 -1.8765 -0.815394 0
M  V30 7002 H 659.796 -2.58409 -3.15735 0
M  V30 7003 H 658.471 -3.42099 -2.36519 0
M  V30 7004 H 657.048 -1.82003 -3.25468 0
M  V30 7005 N 659.233 0.902656 -1.29189 0
M  V30 7006 C 660.18 2.00643 -1.14066 0
M  V30 7007 C 661.15 1.66064 -0.0347756 0
M  V30 7008 O 662.335 1.8973 -0.201752 0
M  V30 7009 C 659.475 3.35214 -0.820104 0
M  V30 7010 C 658.588 3.82594 -2.00614 0
M  V30 7011 C 657.723 5.05727 -1.62522 0
M  V30 7012 C 656.762 5.45469 -2.77724 0
M  V30 7013 N 655.899 6.59789 -2.40048 0
M  V30 7014 H 660.739 2.1291 -2.08502 0
M  V30 7015 H 658.276 1.04271 -1.03759 0
M  V30 7016 H 660.234 4.12643 -0.614949 0
M  V30 7017 H 658.864 3.22682 0.0873452 0
M  V30 7018 H 657.916 3.01226 -2.32308 0
M  V30 7019 H 659.228 4.07999 -2.86946 0
M  V30 7020 H 658.382 5.90732 -1.38277 0
M  V30 7021 H 657.121 4.82155 -0.733333 0
M  V30 7022 H 656.126 4.59 -3.02653 0
M  V30 7023 H 657.351 5.71024 -3.67572 0
M  V30 7024 H 655.297 6.37826 -1.53343 0
M  V30 7025 H 655.214 6.84975 -3.19914 0
M  V30 7026 H 656.482 7.4807 -2.19116 0
M  V30 7027 N 660.711 1.11618 1.11262 0
M  V30 7028 C 661.674 0.779447 2.15539 0
M  V30 7029 C 662.674 -0.202081 1.59525 0
M  V30 7030 O 663.864 0.0226356 1.74185 0
M  V30 7031 C 660.996 0.15674 3.40539 0
M  V30 7032 H 662.189 1.70324 2.4684 0
M  V30 7033 H 659.742 0.918298 1.26479 0
M  V30 7034 H 660.477 -0.777186 3.1485 0
M  V30 7035 H 660.262 0.863308 3.82478 0
M  V30 7036 H 661.752 -0.062661 4.17553 0
M  V30 7037 N 662.189 -1.289 0.906776 0
M  V30 7038 C 663.099 -2.31256 0.394707 0
M  V30 7039 C 664.115 -1.66231 -0.514121 0
M  V30 7040 O 665.291 -1.97347 -0.401994 0
M  V30 7041 C 662.356 -3.44792 -0.363191 0
M  V30 7042 C 661.417 -4.25391 0.578012 0
M  V30 7043 C 660.65 -5.33506 -0.143811 0
M  V30 7044 O 660.873 -5.53786 -1.36665 0
M  V30 7045 O 659.807 -5.99673 0.5173 0
M  V30 7046 H 663.633 -2.77051 1.24405 0
M  V30 7047 H 661.218 -1.33466 0.671346 0
M  V30 7048 H 663.1 -4.139 -0.791503 0
M  V30 7049 H 661.775 -3.01093 -1.18848 0
M  V30 7050 H 660.682 -3.58899 1.05558 0
M  V30 7051 H 662.015 -4.72752 1.36992 0
M  V30 7052 N 663.667 -0.670007 -1.42649 0
M  V30 7053 C 664.907 -0.194106 -2.03476 0
M  V30 7054 C 665.271 1.1755 -1.51809 0
M  V30 7055 O 666.472 1.74579 -2.04391 0
M  V30 7056 C 664.743 -0.221828 -3.56711 0
M  V30 7057 S 666.302 0.183772 -4.38415 0
M  V30 7058 H 663.12 -0.0802478 -0.706457 0
M  V30 7059 H 665.722 -0.882092 -1.74469 0
M  V30 7060 H 664.426 -1.22107 -3.91814 0
M  V30 7061 H 663.957 0.486149 -3.90385 0
M  V30 7062 H 665.972 1.41839 -4.75496 0
M  V30 7063 N 665.145 1.52092 -0.413018 0
M  V30 7064 C 666.373 2.06274 0.160881 0
M  V30 7065 C 666.788 1.28273 1.38533 0
M  V30 7066 O 666.145 0.33563 1.79387 0
M  V30 7067 C 666.196 3.57921 0.507443 0
M  V30 7068 O 665.917 4.32971 -0.668388 0
M  V30 7069 C 667.418 4.28533 1.13465 0
M  V30 7070 H 664.638 0.67074 0.0186759 0
M  V30 7071 H 667.182 1.95951 -0.585092 0
M  V30 7072 H 665.337 3.68238 1.20331 0
M  V30 7073 H 665.751 5.23135 -0.378169 0
M  V30 7074 H 667.225 5.35804 1.32732 0
M  V30 7075 H 667.702 3.85258 2.10886 0
M  V30 7076 H 668.308 4.22595 0.478876 0
M  V30 7077 N 666.623 0.143563 1.56945 0
M  V30 7078 C 667.586 -0.783295 2.154 0
M  V30 7079 C 668.586 -1.17763 1.09492 0
M  V30 7080 O 669.776 -1.09912 1.35148 0
M  V30 7081 C 666.908 -2.06248 2.7143 0
M  V30 7082 H 668.101 -0.274863 2.98638 0
M  V30 7083 H 665.654 -0.105859 1.55941 0
M  V30 7084 H 666.389 -2.61466 1.91849 0
M  V30 7085 H 666.174 -1.78897 3.4891 0
M  V30 7086 H 667.664 -2.72453 3.16479 0
M  V30 7087 N 668.101 -1.57061 -0.130224 0
M  V30 7088 C 669.011 -2.02802 -1.17934 0
M  V30 7089 C 670.027 -0.946378 -1.46013 0
M  V30 7090 O 671.203 -1.25708 -1.57351 0
M  V30 7091 C 668.268 -2.41368 -2.48882 0
M  V30 7092 C 667.329 -3.63561 -2.28301 0
M  V30 7093 C 666.562 -4.00279 -3.53005 0
M  V30 7094 O 666.785 -3.37463 -4.59864 0
M  V30 7095 O 665.719 -4.93441 -3.44673 0
M  V30 7096 H 669.545 -2.92394 -0.820958 0
M  V30 7097 H 667.13 -1.45475 -0.340197 0
M  V30 7098 H 669.012 -2.66958 -3.26054 0
M  V30 7099 H 667.687 -1.54926 -2.84217 0
M  V30 7100 H 666.594 -3.43136 -1.49025 0
M  V30 7101 H 667.927 -4.50673 -1.97875 0
M  V30 7102 N 669.579 0.400081 -1.52437 0
M  V30 7103 C 670.526 1.48803 -1.76426 0
M  V30 7104 C 671.496 1.5461 -0.607032 0
M  V30 7105 O 672.681 1.71041 -0.845563 0
M  V30 7106 C 669.821 2.86156 -1.92896 0
M  V30 7107 C 668.934 2.89587 -3.20567 0
M  V30 7108 C 668.069 4.18296 -3.27417 0
M  V30 7109 C 667.108 4.15736 -4.49255 0
M  V30 7110 N 666.245 5.36032 -4.53447 0
M  V30 7111 H 671.085 1.27649 -2.69276 0
M  V30 7112 H 668.622 0.619451 -1.33421 0
M  V30 7113 H 670.58 3.65901 -2.00429 0
M  V30 7114 H 669.21 3.05785 -1.03418 0
M  V30 7115 H 668.262 2.02278 -3.22161 0
M  V30 7116 H 669.574 2.83562 -4.10358 0
M  V30 7117 H 668.728 5.06439 -3.34072 0
M  V30 7118 H 667.467 4.27028 -2.35581 0
M  V30 7119 H 666.472 3.25982 -4.42737 0
M  V30 7120 H 667.697 4.08636 -5.42396 0
M  V30 7121 H 665.643 5.45415 -3.64498 0
M  V30 7122 H 665.56 5.32038 -5.37096 0
M  V30 7123 H 666.828 6.26104 -4.64343 0
M  V30 7124 N 671.057 1.43213 0.657864 0
M  V30 7125 C 672.297 1.46083 1.42965 0
M  V30 7126 C 672.661 0.0809712 1.91829 0
M  V30 7127 O 673.862 -0.0156305 2.68795 0
M  V30 7128 C 672.133 2.47044 2.58271 0
M  V30 7129 S 673.692 2.68753 3.46868 0
M  V30 7130 H 670.51 0.517015 0.488074 0
M  V30 7131 H 673.112 1.79945 0.764213 0
M  V30 7132 H 671.816 3.46044 2.20639 0
M  V30 7133 H 671.347 2.14665 3.2967 0
M  V30 7134 H 673.362 1.98329 4.54841 0
M  V30 7135 N 672.536 -0.895792 1.29666 0
M  V30 7136 C 673.766 -1.67757 1.20586 0
M  V30 7137 C 674.174 -1.87729 -0.235432 0
M  V30 7138 O 673.517 -1.41706 -1.16898 0
M  V30 7139 C 673.579 -3.08117 1.85215 0
M  V30 7140 C 673.243 -3.1136 3.3452 0
M  V30 7141 C 674.24 -2.91217 4.30684 0
M  V30 7142 C 671.925 -3.33302 3.75786 0
M  V30 7143 C 673.919 -2.92955 5.66089 0
M  V30 7144 C 671.606 -3.3467 5.11311 0
M  V30 7145 C 672.604 -3.14519 6.06273 0
M  V30 7146 O 672.292 -3.15684 7.39323 0
M  V30 7147 H 672.024 -0.530601 0.418854 0
M  V30 7148 H 674.578 -1.12831 1.71634 0
M  V30 7149 H 672.808 -3.64661 1.28683 0
M  V30 7150 H 674.497 -3.68399 1.70403 0
M  V30 7151 H 675.263 -2.74074 4.00136 0
M  V30 7152 H 671.142 -3.48025 3.02324 0
M  V30 7153 H 674.686 -2.77145 6.40185 0
M  V30 7154 H 670.583 -3.51346 5.41504 0
M  V30 7155 H 671.351 -3.31924 7.48177 0
M  V30 7156 N 674.014 -1.12206 -1.10668 0
M  V30 7157 C 675.43 -0.857619 -1.346 0
M  V30 7158 C 675.63 0.513542 -1.94846 0
M  V30 7159 O 674.686 1.26273 -2.18658 0
M  V30 7160 C 675.999 -1.97212 -2.26998 0
M  V30 7161 C 677.547 -2.00272 -2.40542 0
M  V30 7162 C 678.022 -3.10948 -3.36267 0
M  V30 7163 N 679.513 -3.10375 -3.43834 0
M  V30 7164 C 680.248 -3.92651 -4.17867 0
M  V30 7165 N 679.744 -4.84911 -4.94807 0
M  V30 7166 N 681.537 -3.80798 -4.1346 0
M  V30 7167 H 673.688 -2.00558 -0.699306 0
M  V30 7168 H 675.951 -0.872612 -0.370477 0
M  V30 7169 H 675.657 -2.96002 -1.89936 0
M  V30 7170 H 675.531 -1.87521 -3.27286 0
M  V30 7171 H 677.918 -1.02103 -2.76874 0
M  V30 7172 H 677.999 -2.14037 -1.40077 0
M  V30 7173 H 677.643 -4.09348 -3.00661 0
M  V30 7174 H 677.573 -2.94421 -4.36605 0
M  V30 7175 H 680.064 -2.43536 -2.88961 0
M  V30 7176 H 680.377 -5.44207 -5.48688 0
M  V30 7177 H 678.722 -4.88926 -4.93939 0
M  V30 7178 H 681.913 -3.08058 -3.52445 0
M  V30 7179 H 682.086 -4.4515 -4.70898 0
M  V30 7180 N 675.492 1.28418 -0.913599 0
M  V30 7181 C 676.738 1.9527 -0.547484 0
M  V30 7182 C 677.071 1.71745 0.906486 0
M  V30 7183 O 676.346 1.03834 1.64465 0
M  V30 7184 C 676.629 3.49748 -0.857205 0
M  V30 7185 C 676.482 3.82675 -2.3639 0
M  V30 7186 C 677.801 4.3868 -0.353258 0
M  V30 7187 H 674.92 0.709236 -0.200381 0
M  V30 7188 H 677.562 1.51789 -1.14281 0
M  V30 7189 H 675.712 3.86915 -0.350548 0
M  V30 7190 H 677.384 3.55378 -2.94116 0
M  V30 7191 H 675.627 3.29724 -2.81894 0
M  V30 7192 H 676.298 4.90547 -2.53115 0
M  V30 7193 H 678.774 4.08584 -0.787288 0
M  V30 7194 H 677.65 5.45621 -0.599049 0
M  V30 7195 H 677.911 4.35753 0.746413 0
M  V30 7196 N 676.97 0.677563 1.42291 0
M  V30 7197 C 678.198 0.209459 2.05837 0
M  V30 7198 C 678.613 -1.13444 1.50917 0
M  V30 7199 O 677.97 -1.70529 0.65008 0
M  V30 7200 C 678.021 0.138819 3.61233 0
M  V30 7201 O 677.742 1.42962 4.14118 0
M  V30 7202 C 679.243 -0.352449 4.41897 0
M  V30 7203 H 676.463 0.101209 0.663323 0
M  V30 7204 H 679.007 0.925077 1.8238 0
M  V30 7205 H 677.162 -0.527505 3.83792 0
M  V30 7206 H 677.576 1.3048 5.08011 0
M  V30 7207 H 679.05 -0.350778 5.50884 0
M  V30 7208 H 679.527 -1.3882 4.16684 0
M  V30 7209 H 680.133 0.282236 4.24362 0
M  V30 7210 N 678.448 -1.51871 0.421078 0
M  V30 7211 C 679.358 -2.31077 -0.405069 0
M  V30 7212 C 680.374 -1.39301 -1.04265 0
M  V30 7213 O 681.55 -1.72376 -1.04157 0
M  V30 7214 C 678.615 -3.12556 -1.50032 0
M  V30 7215 C 677.676 -4.20088 -0.884559 0
M  V30 7216 C 676.909 -4.97673 -1.92762 0
M  V30 7217 O 677.132 -4.75696 -3.14753 0
M  V30 7218 O 676.066 -5.82203 -1.52719 0
M  V30 7219 H 679.892 -3.02742 0.241086 0
M  V30 7220 H 677.477 -1.48263 0.183991 0
M  V30 7221 H 679.359 -3.6326 -2.13589 0
M  V30 7222 H 678.034 -2.43672 -2.13086 0
M  V30 7223 H 676.941 -3.73502 -0.211379 0
M  V30 7224 H 678.274 -4.91298 -0.297763 0
M  V30 7225 N 679.926 -0.151884 -1.56866 0
M  V30 7226 C 681.174 0.497021 -1.95893 0
M  V30 7227 C 681.495 1.65078 -1.03799 0
M  V30 7228 O 680.765 1.95642 -0.10049 0
M  V30 7229 H 679.345 0.186603 -0.723318 0
M  V30 7230 H 682.007 -0.228525 -1.93556 0
M  V30 7231 H 681.103 0.869933 -2.99731 0
M  V30 7232 N 681.404 1.57128 0.121893 0
M  V30 7233 C 682.82 1.52357 0.47534 0
M  V30 7234 C 683.02 0.864417 1.82017 0
M  V30 7235 O 682.076 0.445529 2.48538 0
M  V30 7236 C 683.389 2.97122 0.4625 0
M  V30 7237 C 684.937 3.08196 0.546255 0
M  V30 7238 C 685.412 4.54516 0.563833 0
M  V30 7239 N 686.903 4.58959 0.625353 0
M  V30 7240 C 687.638 5.69585 0.660354 0
M  V30 7241 N 687.134 6.89714 0.653175 0
M  V30 7242 N 688.927 5.57685 0.703143 0
M  V30 7243 H 681.078 1.98364 -0.75931 0
M  V30 7244 H 683.341 0.905777 -0.279772 0
M  V30 7245 H 683.047 3.48706 -0.457943 0
M  V30 7246 H 682.921 3.54406 1.29136 0
M  V30 7247 H 685.308 2.56617 1.45712 0
M  V30 7248 H 685.389 2.53912 -0.310234 0
M  V30 7249 H 685.033 5.06741 -0.342974 0
M  V30 7250 H 684.963 5.06609 1.43716 0
M  V30 7251 H 687.454 3.72489 0.637182 0
M  V30 7252 H 687.767 7.69781 0.682425 0
M  V30 7253 H 686.112 6.92223 0.620646 0
M  V30 7254 H 689.303 4.62744 0.706095 0
M  V30 7255 H 689.476 6.43909 0.726952 0
M  V30 7256 N 682.882 -0.391992 1.52647 0
M  V30 7257 C 684.13 -1.13507 1.67214 0
M  V30 7258 C 684.451 -1.90575 0.41304 0
M  V30 7259 O 683.721 -1.87348 -0.572498 0
M  V30 7260 H 682.301 -0.422013 0.616372 0
M  V30 7261 H 684.963 -0.44502 1.89751 0
M  V30 7262 H 684.059 -1.83964 2.52118 0
M  V30 7263 N 684.36 -1.4356 -0.65026 0
M  V30 7264 C 685.609 -1.44619 -1.406 0
M  V30 7265 C 685.922 -0.0752645 -1.95455 0
M  V30 7266 O 687.128 0.0366832 -2.71475 0
M  V30 7267 C 685.584 -2.54511 -2.54465 0
M  V30 7268 C 685.192 -3.97723 -2.06204 0
M  V30 7269 C 686.936 -2.64768 -3.31811 0
M  V30 7270 C 684.843 -4.99075 -3.17298 0
M  V30 7271 H 683.773 -0.537983 -0.52829 0
M  V30 7272 H 686.424 -1.69559 -0.701561 0
M  V30 7273 H 684.806 -2.22777 -3.27393 0
M  V30 7274 H 685.98 -4.38932 -1.40267 0
M  V30 7275 H 684.295 -3.91538 -1.41729 0
M  V30 7276 H 686.892 -3.37664 -4.14593 0
M  V30 7277 H 687.235 -1.69936 -3.80036 0
M  V30 7278 H 687.768 -2.95817 -2.65964 0
M  V30 7279 H 684.507 -5.95469 -2.74038 0
M  V30 7280 H 684.027 -4.62476 -3.81937 0
M  V30 7281 H 685.706 -5.21913 -3.82382 0
M  V30 7282 N 685.838 0.888903 -1.30139 0
M  V30 7283 C 687.085 1.64037 -1.18736 0
M  V30 7284 C 687.413 1.92771 0.258801 0
M  V30 7285 O 686.668 1.54427 1.20212 0
M  V30 7286 C 686.967 2.99041 -1.95728 0
M  V30 7287 C 686.633 2.89874 -3.45375 0
M  V30 7288 C 685.295 2.87082 -3.86183 0
M  V30 7289 C 687.647 2.78289 -4.40687 0
M  V30 7290 C 684.975 2.70536 -5.20603 0
M  V30 7291 C 687.327 2.63282 -5.75209 0
M  V30 7292 C 685.991 2.58861 -6.15262 0
M  V30 7293 H 685.261 0.600253 -0.434485 0
M  V30 7294 H 687.908 1.0338 -1.61198 0
M  V30 7295 H 686.213 3.63626 -1.45888 0
M  V30 7296 H 687.91 3.56139 -1.843 0
M  V30 7297 H 684.5 2.92856 -3.12943 0
M  V30 7298 H 688.684 2.79516 -4.10103 0
M  V30 7299 H 683.94 2.65526 -5.50732 0
M  V30 7300 H 688.114 2.5329 -6.48704 0
M  V30 7301 H 685.741 2.45799 -7.19366 0
M  V30 7302 N 687.317 1.12792 1.10072 0
M  V30 7303 C 688.28 0.802264 2.14701 0
M  V30 7304 C 689.28 -0.18515 1.59731 0
M  V30 7305 O 690.47 0.041109 1.74151 0
M  V30 7306 C 687.602 0.19285 3.40354 0
M  V30 7307 H 688.795 1.72932 2.45019 0
M  V30 7308 H 686.348 0.931662 1.25498 0
M  V30 7309 H 687.083 -0.743748 3.15656 0
M  V30 7310 H 686.868 0.903827 3.81541 0
M  V30 7311 H 688.358 -0.0183704 4.17596 0
M  V30 7312 N 688.795 -1.27931 0.920396 0
M  V30 7313 C 690.02 -1.99343 0.572478 0
M  V30 7314 C 690.445 -1.68267 -0.840696 0
M  V30 7315 O 689.803 -0.918805 -1.56294 0
M  V30 7316 C 689.851 -3.51698 0.796284 0
M  V30 7317 O 688.955 -4.12157 -0.141602 0
M  V30 7318 H 688.296 -0.626065 0.221221 0
M  V30 7319 H 690.826 -1.62921 1.23765 0
M  V30 7320 H 690.836 -4.01793 0.708984 0
M  V30 7321 H 689.511 -3.73649 1.82644 0
M  V30 7322 H 688.088 -3.729 -0.005007 0
M  V30 7323 N 690.273 -0.685099 -1.4193 0
M  V30 7324 C 691.521 -0.21124 -2.00993 0
M  V30 7325 C 691.842 1.18985 -1.54491 0
M  V30 7326 O 691.112 1.8009 -0.771 0
M  V30 7327 H 689.692 -0.0751059 -0.743215 0
M  V30 7328 H 692.354 -0.883915 -1.73704 0
M  V30 7329 H 691.45 -0.220513 -3.1132 0
M  V30 7330 N 691.751 1.51645 -0.429126 0
M  V30 7331 C 692.976 2.06917 0.141399 0
M  V30 7332 C 693.401 1.29527 1.36398 0
M  V30 7333 O 692.759 0.33094 1.78254 0
M  V30 7334 C 692.807 3.57776 0.4504 0
M  V30 7335 O 691.911 3.82639 1.53821 0
M  V30 7336 H 691.252 0.663978 0.0054647 0
M  V30 7337 H 693.782 1.95355 -0.608093 0
M  V30 7338 H 693.792 4.01894 0.703249 0
M  V30 7339 H 692.467 4.13532 -0.443213 0
M  V30 7340 H 691.044 3.5039 1.27597 0
M  V30 7341 N 693.229 0.160201 1.56784 0
M  V30 7342 C 694.64 -0.358417 1.83227 0
M  V30 7343 C 694.991 -1.63831 1.07952 0
M  V30 7344 O 694.116 -2.13885 0.328995 0
M  V30 7345 C 694.711 -0.657058 3.32368 0
M  V30 7346 C 693.27 -1.12015 3.59346 0
M  V30 7347 C 692.417 -0.15015 2.76893 0
M  V30 7348 H 695.368 0.384669 1.53967 0
M  V30 7349 H 695.389 -1.51033 3.49241 0
M  V30 7350 H 694.901 0.274647 3.87127 0
M  V30 7351 H 693.002 -2.06734 3.09987 0
M  V30 7352 H 693.115 -1.037 4.67743 0
M  V30 7353 H 691.479 -0.645361 2.46388 0
M  V30 7354 H 692.262 0.775379 3.34429 0
M  V30 7355 N 694.707 -1.5719 -0.113559 0
M  V30 7356 C 695.954 -1.85138 -0.820382 0
M  V30 7357 C 696.282 -0.74608 -1.79622 0
M  V30 7358 O 695.537 0.262077 -1.93937 0
M  V30 7359 C 695.836 -3.19593 -1.59984 0
M  V30 7360 C 695.502 -4.44315 -0.767809 0
M  V30 7361 C 694.164 -4.78179 -0.538379 0
M  V30 7362 C 696.516 -5.2086 -0.188203 0
M  V30 7363 C 693.844 -5.86028 0.28082 0
M  V30 7364 C 696.196 -6.29572 0.618217 0
M  V30 7365 C 694.86 -6.61964 0.857912 0
M  V30 7366 H 694.13 -0.677467 -0.300199 0
M  V30 7367 H 696.777 -1.91322 -0.0825443 0
M  V30 7368 H 695.082 -3.0901 -2.40874 0
M  V30 7369 H 696.779 -3.3844 -2.1508 0
M  V30 7370 H 693.369 -4.17786 -0.956724 0
M  V30 7371 H 697.553 -4.95045 -0.352658 0
M  V30 7372 H 692.809 -6.09547 0.475693 0
M  V30 7373 H 696.983 -6.88064 1.0743 0
M  V30 7374 H 694.61 -7.45365 1.49451 0
M  V30 7375 N 696.185 0.383891 -1.52853 0
M  V30 7376 C 697.132 1.46924 -1.77995 0
M  V30 7377 C 698.102 1.53958 -0.623396 0
M  V30 7378 O 699.287 1.70134 -0.863657 0
M  V30 7379 C 696.427 2.84093 -1.95921 0
M  V30 7380 C 695.54 2.86171 -3.23621 0
M  V30 7381 C 694.675 4.14799 -3.31836 0
M  V30 7382 C 693.714 4.10948 -4.53639 0
M  V30 7383 N 692.851 5.31192 -4.59107 0
M  V30 7384 H 697.691 1.24786 -2.70615 0
M  V30 7385 H 695.228 0.605265 -1.34071 0
M  V30 7386 H 697.186 3.63755 -2.04299 0
M  V30 7387 H 695.816 3.04671 -1.06656 0
M  V30 7388 H 694.868 1.9885 -3.24288 0
M  V30 7389 H 696.18 2.79194 -4.13343 0
M  V30 7390 H 695.334 5.02867 -3.39425 0
M  V30 7391 H 694.073 4.24505 -2.40097 0
M  V30 7392 H 693.078 3.21268 -4.46169 0
M  V30 7393 H 694.303 4.0286 -5.467 0
M  V30 7394 H 692.249 5.41518 -3.70262 0
M  V30 7395 H 692.166 5.26311 -5.42708 0
M  V30 7396 H 693.434 6.21143 -4.70958 0
M  V30 7397 N 697.663 1.43903 0.642637 0
M  V30 7398 C 698.888 1.49758 1.43483 0
M  V30 7399 C 699.313 0.119911 1.87717 0
M  V30 7400 O 698.671 -0.888558 1.58033 0
M  V30 7401 C 698.719 2.45744 2.63898 0
M  V30 7402 O 697.823 1.95101 3.63331 0
M  V30 7403 H 697.164 0.506138 0.429791 0
M  V30 7404 H 699.694 1.88923 0.785438 0
M  V30 7405 H 699.704 2.63399 3.11584 0
M  V30 7406 H 698.379 3.45818 2.31046 0
M  V30 7407 H 696.956 1.87158 3.22531 0
M  V30 7408 N 699.141 -0.881989 1.30609 0
M  V30 7409 C 700.387 -1.63647 1.19781 0
M  V30 7410 C 700.72 -1.92632 -0.246265 0
M  V30 7411 O 699.995 -1.54938 -1.17577 0
M  V30 7412 C 700.278 -2.97437 2.02985 0
M  V30 7413 C 700.131 -2.75406 3.55628 0
M  V30 7414 C 701.45 -3.98397 1.86997 0
M  V30 7415 H 698.569 -0.593841 0.436488 0
M  V30 7416 H 701.211 -1.02041 1.60273 0
M  V30 7417 H 699.361 -3.50018 1.68581 0
M  V30 7418 H 701.033 -2.2959 4.00107 0
M  V30 7419 H 699.276 -2.09856 3.79662 0
M  V30 7420 H 699.947 -3.70552 4.09139 0
M  V30 7421 H 702.423 -3.54986 2.17081 0
M  V30 7422 H 701.299 -4.89916 2.47536 0
M  V30 7423 H 701.56 -4.3424 0.829943 0
M  V30 7424 N 700.619 -1.13374 -1.09472 0
M  V30 7425 C 701.847 -0.918351 -1.85402 0
M  V30 7426 C 702.262 0.53281 -1.81126 0
M  V30 7427 O 701.619 1.36879 -1.20708 0
M  V30 7428 C 701.67 -1.39743 -3.33398 0
M  V30 7429 O 701.391 -2.79172 -3.37631 0
M  V30 7430 C 702.892 -1.22042 -4.2617 0
M  V30 7431 H 700.112 -0.327511 -0.585643 0
M  V30 7432 H 702.656 -1.50617 -1.38328 0
M  V30 7433 H 700.811 -0.852619 -3.77901 0
M  V30 7434 H 701.225 -3.00428 -4.29934 0
M  V30 7435 H 702.699 -1.60438 -5.2817 0
M  V30 7436 H 703.176 -0.162047 -4.38901 0
M  V30 7437 H 703.782 -1.75323 -3.87482 0
M  V30 7438 N 702.098 1.27442 -0.927168 0
M  V30 7439 C 703.028 2.29256 -0.443188 0
M  V30 7440 C 704.009 1.62701 0.49624 0
M  V30 7441 O 705.194 1.90013 0.401105 0
M  V30 7442 C 702.324 3.45955 0.305366 0
M  V30 7443 C 701.278 4.24501 -0.546178 0
M  V30 7444 C 700.604 5.33671 0.331512 0
M  V30 7445 C 701.904 4.89921 -1.81037 0
M  V30 7446 H 703.598 2.69988 -1.29409 0
M  V30 7447 H 701.144 1.29792 -0.623705 0
M  V30 7448 H 703.097 4.1628 0.654885 0
M  V30 7449 H 701.821 3.04138 1.19029 0
M  V30 7450 H 700.48 3.55921 -0.878398 0
M  V30 7451 H 700.128 4.88096 1.21537 0
M  V30 7452 H 699.828 5.87131 -0.234746 0
M  V30 7453 H 701.352 6.0684 0.676614 0
M  V30 7454 H 702.766 5.52536 -1.52895 0
M  V30 7455 H 701.163 5.53436 -2.32009 0
M  V30 7456 H 702.233 4.13652 -2.53021 0
M  V30 7457 N 703.576 0.692616 1.41565 0
M  V30 7458 C 704.486 0.0258451 2.34586 0
M  V30 7459 C 705.502 -0.769324 1.56069 0
M  V30 7460 O 706.678 -0.707563 1.88562 0
M  V30 7461 C 703.743 -0.901289 3.3478 0
M  V30 7462 C 702.804 -0.0986579 4.29187 0
M  V30 7463 C 702.037 -0.981634 5.24595 0
M  V30 7464 O 702.26 -2.22115 5.25377 0
M  V30 7465 O 701.194 -0.432892 6.00341 0
M  V30 7466 H 705.02 0.792537 2.93177 0
M  V30 7467 H 702.605 0.452935 1.42369 0
M  V30 7468 H 704.487 -1.43302 3.96286 0
M  V30 7469 H 703.162 -1.64752 2.78637 0
M  V30 7470 H 702.069 0.477604 3.71039 0
M  V30 7471 H 703.402 0.608848 4.8842 0
M  V30 7472 N 705.054 -1.51416 0.437162 0
M  V30 7473 C 706.331 -1.94682 -0.189292 0
M  V30 7474 C 706.711 -1.37581 -1.60108 0
M  V30 7475 O 706.059 -0.562815 -2.2146 0
M  V30 7476 C 706.269 -3.48599 -0.167201 0
M  V30 7477 C 707.617 -4.2296 -0.372856 0
M  V30 7478 O 708.641 -3.55354 -0.245323 0
M  V30 7479 O 707.5 -5.42895 -0.626693 0
M  V30 7480 H 704.594 -0.816708 -0.130063 0
M  V30 7481 H 707.14 -1.62316 0.495128 0
M  V30 7482 H 705.912 -3.82616 0.81981 0
M  V30 7483 H 705.535 -3.87406 -0.894537 0
M  V30 7484 N 706.532 -0.168513 -1.56696 0
M  V30 7485 C 707.78 0.476216 -1.96409 0
M  V30 7486 C 708.101 1.63968 -1.05544 0
M  V30 7487 O 707.371 1.95525 -0.121235 0
M  V30 7488 H 705.951 0.178921 -0.725256 0
M  V30 7489 H 708.613 -0.249042 -1.93302 0
M  V30 7490 H 707.709 0.838094 -3.00637 0
M  V30 7491 N 708.01 1.57248 0.105221 0
M  V30 7492 C 708.957 2.01338 1.12835 0
M  V30 7493 C 709.927 0.887897 1.40377 0
M  V30 7494 O 711.112 1.15315 1.5201 0
M  V30 7495 C 708.252 2.43432 2.44611 0
M  V30 7496 C 707.365 3.69457 2.23888 0
M  V30 7497 C 706.5 4.00473 3.48991 0
M  V30 7498 C 705.539 5.19638 3.23485 0
M  V30 7499 N 704.676 5.46457 4.40828 0
M  V30 7500 H 709.516 2.88527 0.745386 0
M  V30 7501 H 707.053 1.42714 0.356535 0
M  V30 7502 H 709.011 2.65879 3.21503 0
M  V30 7503 H 707.641 1.59266 2.80774 0
M  V30 7504 H 706.693 3.54545 1.37847 0
M  V30 7505 H 708.005 4.56497 2.01026 0
M  V30 7506 H 707.159 4.23642 4.34295 0
M  V30 7507 H 705.898 3.11935 3.74897 0
M  V30 7508 H 704.903 4.96299 2.36574 0
M  V30 7509 H 706.128 6.09766 2.98935 0
M  V30 7510 H 704.074 4.60876 4.66829 0
M  V30 7511 H 703.991 6.27849 4.2112 0
M  V30 7512 H 705.259 5.74155 5.27225 0
M  V30 7513 N 709.488 -0.375779 1.53054 0
M  V30 7514 C 710.716 -1.14036 1.72637 0
M  V30 7515 C 711.131 -1.83342 0.450687 0
M  V30 7516 O 710.488 -1.7318 -0.575749 0
M  V30 7517 C 710.539 -2.17841 2.88492 0
M  V30 7518 O 710.26 -1.51358 4.11123 0
M  V30 7519 C 711.761 -3.06924 3.19863 0
M  V30 7520 H 708.981 -0.341386 0.577665 0
M  V30 7521 H 711.525 -0.437809 1.99759 0
M  V30 7522 H 709.68 -2.8371 2.63794 0
M  V30 7523 H 710.094 -2.20439 4.75928 0
M  V30 7524 H 711.568 -3.75763 4.04359 0
M  V30 7525 H 712.045 -3.71169 2.34798 0
M  V30 7526 H 712.651 -2.46684 3.46449 0
M  V30 7527 N 710.966 -1.44241 -0.634997 0
M  V30 7528 C 712.213 -1.46821 -1.39463 0
M  V30 7529 C 712.541 -0.0993362 -1.94246 0
M  V30 7530 O 711.796 0.898325 -1.73864 0
M  V30 7531 C 712.095 -2.47279 -2.58046 0
M  V30 7532 C 711.761 -3.92703 -2.21574 0
M  V30 7533 C 710.423 -4.32306 -2.1134 0
M  V30 7534 C 712.775 -4.84271 -1.92695 0
M  V30 7535 C 710.103 -5.61407 -1.70409 0
M  V30 7536 C 712.455 -6.13755 -1.53258 0
M  V30 7537 C 711.119 -6.52316 -1.41562 0
M  V30 7538 H 710.389 -0.537256 -0.51033 0
M  V30 7539 H 713.036 -1.77431 -0.720441 0
M  V30 7540 H 711.341 -2.10138 -3.3068 0
M  V30 7541 H 713.038 -2.46523 -3.16271 0
M  V30 7542 H 709.628 -3.61369 -2.30456 0
M  V30 7543 H 713.812 -4.54432 -1.99513 0
M  V30 7544 H 709.068 -5.90105 -1.59955 0
M  V30 7545 H 713.242 -6.84168 -1.29949 0
M  V30 7546 H 710.869 -7.52255 -1.09619 0
M  V30 7547 N 712.444 0.87505 -1.31075 0
M  V30 7548 C 713.693 1.62245 -1.19831 0
M  V30 7549 C 714.006 1.94078 0.24357 0
M  V30 7550 O 715.212 2.67265 0.477646 0
M  V30 7551 C 713.668 2.92464 -2.09744 0
M  V30 7552 C 713.276 2.68134 -3.58898 0
M  V30 7553 C 715.02 3.70449 -2.07287 0
M  V30 7554 C 712.927 3.9423 -4.40836 0
M  V30 7555 H 711.857 0.608741 -0.444916 0
M  V30 7556 H 714.508 0.967947 -1.55894 0
M  V30 7557 H 712.89 3.59262 -1.66574 0
M  V30 7558 H 714.064 2.09776 -4.10281 0
M  V30 7559 H 712.379 2.03511 -3.6328 0
M  V30 7560 H 714.976 4.63983 -2.65752 0
M  V30 7561 H 715.319 4.02611 -1.05876 0
M  V30 7562 H 715.852 3.10528 -2.48631 0
M  V30 7563 H 712.591 3.67221 -5.42982 0
M  V30 7564 H 712.111 4.52058 -3.94213 0
M  V30 7565 H 713.79 4.62162 -4.52786 0
M  V30 7566 N 713.922 1.13953 1.08869 0
M  V30 7567 C 715.333 0.916649 1.62648 0
M  V30 7568 C 715.684 -0.545589 1.88462 0
M  V30 7569 O 714.809 -1.41351 1.63856 0
M  V30 7570 C 715.404 1.65751 2.95486 0
M  V30 7571 C 713.963 1.48034 3.46068 0
M  V30 7572 C 713.11 1.68305 2.20383 0
M  V30 7573 H 716.061 1.292 0.921572 0
M  V30 7574 H 716.082 1.11794 3.63707 0
M  V30 7575 H 715.594 2.72171 2.76667 0
M  V30 7576 H 713.695 0.439416 3.7 0
M  V30 7577 H 713.808 2.24719 4.23129 0
M  V30 7578 H 712.172 1.10833 2.29321 0
M  V30 7579 H 712.955 2.76057 2.04077 0
M  V30 7580 N 715.4 -1.26948 0.933913 0
M  V30 7581 C 716.648 -1.93704 0.576484 0
M  V30 7582 C 716.969 -1.73702 -0.886145 0
M  V30 7583 O 716.239 -1.08838 -1.62884 0
M  V30 7584 H 714.819 -0.716812 0.210214 0
M  V30 7585 H 717.481 -1.54534 1.18766 0
M  V30 7586 H 716.577 -3.01987 0.788055 0
M  V30 7587 N 716.879 -0.700114 -1.41195 0
M  V30 7588 C 717.811 0.00155823 -2.292 0
M  V30 7589 C 718.824 0.739736 -1.45023 0
M  V30 7590 O 720.013 0.589684 -1.68478 0
M  V30 7591 C 717.113 1.02635 -3.22985 0
M  V30 7592 C 716.286 0.356871 -4.35942 0
M  V30 7593 C 715.345 1.28491 -5.10271 0
M  V30 7594 O 714.371 0.775562 -5.63892 0
M  V30 7595 N 715.573 2.61699 -5.18164 0
M  V30 7596 H 718.338 -0.754008 -2.9006 0
M  V30 7597 H 715.899 -0.546504 -1.52397 0
M  V30 7598 H 717.891 1.64902 -3.6958 0
M  V30 7599 H 716.461 1.68341 -2.63401 0
M  V30 7600 H 715.681 -0.445753 -3.91672 0
M  V30 7601 H 716.969 -0.108469 -5.08684 0
M  V30 7602 H 716.367 3.05594 -4.76056 0
M  V30 7603 H 714.924 3.19149 -5.6832 0
M  V30 7604 N 718.357 1.51182 -0.445186 0
M  V30 7605 C 719.605 2.01753 0.11841 0
M  V30 7606 C 719.926 1.33087 1.42523 0
M  V30 7607 O 719.196 0.467891 1.9023 0
M  V30 7608 H 717.776 0.745536 0.0467492 0
M  V30 7609 H 720.438 1.85765 -0.589688 0
M  V30 7610 H 719.534 3.10762 0.288665 0
M  V30 7611 N 719.835 0.176821 1.56605 0
M  V30 7612 C 720.783 -0.768159 2.1955 0
M  V30 7613 C 721.777 -1.23343 1.16116 0
M  V30 7614 O 722.983 -1.19844 1.34303 0
M  V30 7615 H 719.358 -0.266013 0.703378 0
M  V30 7616 H 721.329 -0.213374 2.97636 0
M  V30 7617 C 720.078 -1.98492 2.85475 0
M  V30 7618 H 719.401 -1.63595 3.64797 0
M  V30 7619 H 720.841 -2.62489 3.3298 0
M  V30 7620 C 719.3 -2.81207 1.85538 0
M  V30 7621 O 719.83 -3.7854 1.34427 0
M  V30 7622 N 718.036 -2.46331 1.54173 0
M  V30 7623 H 717.583 -1.67241 1.95929 0
M  V30 7624 H 717.541 -3.01961 0.875595 0
M  V30 7625 N 721.313 -1.57302 -0.09688 0
M  V30 7626 C 722.261 -2.02942 -1.13654 0
M  V30 7627 C 723.255 -0.930173 -1.41577 0
M  V30 7628 O 724.461 -1.11535 -1.41279 0
M  V30 7629 H 720.836 -0.646726 -0.383731 0
M  V30 7630 H 722.807 -2.89452 -0.725267 0
M  V30 7631 C 721.556 -2.46815 -2.44903 0
M  V30 7632 H 720.879 -3.30979 -2.24261 0
M  V30 7633 H 722.319 -2.82527 -3.16156 0
M  V30 7634 C 720.778 -1.34071 -3.09074 0
M  V30 7635 O 721.308 -0.668856 -3.96092 0
M  V30 7636 N 719.514 -1.09214 -2.69296 0
M  V30 7637 H 719.061 -1.64029 -1.98626 0
M  V30 7638 H 719.019 -0.339785 -3.12559 0
M  V30 7639 N 722.791 0.367657 -1.53252 0
M  V30 7640 C 723.754 1.43308 -1.78873 0
M  V30 7641 C 724.754 1.46671 -0.659115 0
M  V30 7642 O 725.944 1.47468 -0.927306 0
M  V30 7643 C 723.076 2.82442 -1.90892 0
M  V30 7644 H 724.269 1.21864 -2.74024 0
M  V30 7645 H 721.822 0.600668 -1.44297 0
M  V30 7646 H 722.557 3.09202 -0.978 0
M  V30 7647 H 722.342 2.81399 -2.73051 0
M  V30 7648 H 723.832 3.59601 -2.12314 0
M  V30 7649 N 724.269 1.44576 0.627338 0
M  V30 7650 C 725.499 1.50829 1.41189 0
M  V30 7651 C 725.907 0.133083 1.88731 0
M  V30 7652 O 725.25 -0.87199 1.61685 0
M  V30 7653 C 725.312 2.41449 2.66351 0
M  V30 7654 C 724.976 3.88549 2.40579 0
M  V30 7655 C 725.973 4.78981 2.0217 0
M  V30 7656 C 723.658 4.33287 2.54102 0
M  V30 7657 C 725.652 6.12153 1.77618 0
M  V30 7658 C 723.339 5.66505 2.29163 0
M  V30 7659 C 724.337 6.55756 1.9098 0
M  V30 7660 O 724.025 7.86506 1.66321 0
M  V30 7661 H 723.757 0.513797 0.439304 0
M  V30 7662 H 726.311 1.90256 0.774059 0
M  V30 7663 H 724.541 1.96955 3.32784 0
M  V30 7664 H 726.23 2.38608 3.28361 0
M  V30 7665 H 726.996 4.45689 1.91277 0
M  V30 7666 H 722.875 3.64074 2.82792 0
M  V30 7667 H 726.419 6.81776 1.47739 0
M  V30 7668 H 722.316 5.99358 2.39668 0
M  V30 7669 H 723.084 7.98341 1.80536 0
M  V30 7670 N 725.747 -0.868086 1.31537 0
M  V30 7671 C 726.993 -1.62367 1.2151 0
M  V30 7672 C 727.326 -1.92883 -0.225819 0
M  V30 7673 O 726.601 -1.56176 -1.15927 0
M  V30 7674 C 726.884 -2.95268 2.06129 0
M  V30 7675 C 726.737 -2.71619 3.58529 0
M  V30 7676 C 728.056 -3.96391 1.91212 0
M  V30 7677 H 725.175 -0.589178 0.442762 0
M  V30 7678 H 727.817 -1.00336 1.61347 0
M  V30 7679 H 725.967 -3.4821 1.72284 0
M  V30 7680 H 727.639 -2.25334 4.0252 0
M  V30 7681 H 725.882 -2.05817 3.81866 0
M  V30 7682 H 726.553 -3.66192 4.13047 0
M  V30 7683 H 729.029 -3.52663 2.20834 0
M  V30 7684 H 727.905 -4.87263 2.52718 0
M  V30 7685 H 728.166 -4.33335 0.875953 0
M  V30 7686 N 727.225 -1.14528 -1.08264 0
M  V30 7687 C 728.472 -0.914405 -1.80679 0
M  V30 7688 C 728.8 0.558952 -1.86295 0
M  V30 7689 O 728.055 1.43017 -1.33584 0
M  V30 7690 C 728.354 -1.46226 -3.26117 0
M  V30 7691 C 728.02 -2.95451 -3.40616 0
M  V30 7692 C 726.682 -3.36191 -3.4428 0
M  V30 7693 C 729.034 -3.91399 -3.44175 0
M  V30 7694 C 726.362 -4.71539 -3.49096 0
M  V30 7695 C 728.714 -5.26606 -3.50526 0
M  V30 7696 C 727.378 -5.66856 -3.52464 0
M  V30 7697 H 726.648 -0.334604 -0.661151 0
M  V30 7698 H 729.295 -1.4292 -1.27461 0
M  V30 7699 H 727.6 -0.868442 -3.82054 0
M  V30 7700 H 729.297 -1.25955 -3.80705 0
M  V30 7701 H 725.887 -2.62955 -3.38456 0
M  V30 7702 H 730.071 -3.61004 -3.40573 0
M  V30 7703 H 725.327 -5.02082 -3.4889 0
M  V30 7704 H 729.501 -6.00758 -3.52225 0
M  V30 7705 H 727.128 -6.71718 -3.55948 0
M  V30 7706 N 728.703 1.26451 -0.940633 0
M  V30 7707 C 730.114 1.75726 -0.630653 0
M  V30 7708 C 730.465 1.76631 0.854167 0
M  V30 7709 O 729.59 1.37807 1.66848 0
M  V30 7710 C 730.185 3.19114 -1.13805 0
M  V30 7711 C 728.744 3.66005 -0.878497 0
M  V30 7712 C 727.891 2.45505 -1.28928 0
M  V30 7713 H 730.842 1.12535 -1.119 0
M  V30 7714 H 730.863 3.77311 -0.491625 0
M  V30 7715 H 730.375 3.18424 -2.21874 0
M  V30 7716 H 728.476 3.72126 0.187833 0
M  V30 7717 H 728.589 4.54844 -1.50512 0
M  V30 7718 H 726.953 2.4467 -0.707713 0
M  V30 7719 H 727.736 2.47516 -2.37888 0
M  V30 7720 N 730.181 0.707592 1.40822 0
M  V30 7721 C 731.429 0.243189 2.00632 0
M  V30 7722 C 731.75 -1.16512 1.56365 0
M  V30 7723 O 731.02 -1.78841 0.799553 0
M  V30 7724 H 729.6 0.0869203 0.741926 0
M  V30 7725 H 732.262 0.911438 1.72275 0
M  V30 7726 H 731.358 0.270014 3.1093 0
M  V30 7727 N 731.66 -1.50943 0.453197 0
M  V30 7728 C 732.906 -2.02512 -0.108082 0
M  V30 7729 C 733.239 -1.33574 -1.40967 0
M  V30 7730 O 732.514 -0.455671 -1.89087 0
M  V30 7731 C 732.797 -3.58759 -0.310453 0
M  V30 7732 C 732.65 -4.38293 1.0109 0
M  V30 7733 C 733.969 -4.26816 -1.07313 0
M  V30 7734 H 731.088 -0.73603 -0.0378064 0
M  V30 7735 H 733.73 -1.80433 0.595295 0
M  V30 7736 H 731.88 -3.77702 -0.909582 0
M  V30 7737 H 733.552 -4.30964 1.64523 0
M  V30 7738 H 731.795 -4.02745 1.61179 0
M  V30 7739 H 732.466 -5.45828 0.82315 0
M  V30 7740 H 734.942 -4.1224 -0.565473 0
M  V30 7741 H 733.818 -5.35989 -1.1835 0
M  V30 7742 H 734.079 -3.88757 -2.10525 0
M  V30 7743 N 733.138 -0.185124 -1.56509 0
M  V30 7744 C 734.101 0.72591 -2.17401 0
M  V30 7745 C 735.101 1.14819 -1.12575 0
M  V30 7746 O 736.291 1.0629 -1.38015 0
M  V30 7747 C 733.423 1.98979 -2.76803 0
M  V30 7748 H 734.616 0.195588 -2.99262 0
M  V30 7749 H 732.169 0.0644772 -1.56167 0
M  V30 7750 H 732.904 2.56287 -1.98714 0
M  V30 7751 H 732.689 1.69583 -3.53531 0
M  V30 7752 H 734.179 2.63966 -3.23592 0
M  V30 7753 N 734.616 1.57351 0.0885366 0
M  V30 7754 C 735.546 2.05561 1.10757 0
M  V30 7755 C 736.527 0.945789 1.41382 0
M  V30 7756 O 737.712 1.21747 1.51299 0
M  V30 7757 C 734.842 2.48554 2.42566 0
M  V30 7758 C 733.796 3.63259 2.26334 0
M  V30 7759 C 733.122 3.9225 3.63378 0
M  V30 7760 C 734.422 4.93913 1.69844 0
M  V30 7761 H 736.116 2.90946 0.706468 0
M  V30 7762 H 733.662 1.39968 0.338385 0
M  V30 7763 H 735.615 2.8089 3.14132 0
M  V30 7764 H 734.339 1.60176 2.84625 0
M  V30 7765 H 732.998 3.31179 1.57213 0
M  V30 7766 H 732.646 3.0103 4.02976 0
M  V30 7767 H 732.346 4.69478 3.53362 0
M  V30 7768 H 733.87 4.27067 4.36401 0
M  V30 7769 H 735.284 5.24588 2.31258 0
M  V30 7770 H 733.681 5.75349 1.70569 0
M  V30 7771 H 734.751 4.80409 0.65843 0
M  V30 7772 N 736.094 -0.359525 1.53444 0
M  V30 7773 C 737.342 -1.09935 1.69584 0
M  V30 7774 C 737.663 -1.89656 0.453371 0
M  V30 7775 O 736.933 -1.8852 -0.53263 0
M  V30 7776 H 735.513 -0.408843 0.625185 0
M  V30 7777 H 738.175 -0.40467 1.90653 0
M  V30 7778 H 737.271 -1.78575 2.55964 0
M  V30 7779 N 737.572 -1.44907 -0.619662 0
M  V30 7780 C 738.818 -1.48512 -1.38102 0
M  V30 7781 C 739.151 -0.121686 -1.93818 0
M  V30 7782 O 738.426 0.862256 -1.74343 0
M  V30 7783 C 738.709 -2.55469 -2.53787 0
M  V30 7784 C 738.562 -4.01212 -2.03345 0
M  V30 7785 C 739.881 -2.58821 -3.55949 0
M  V30 7786 H 737 -0.540712 -0.500799 0
M  V30 7787 H 739.642 -1.7665 -0.69962 0
M  V30 7788 H 737.792 -2.31606 -3.11915 0
M  V30 7789 H 739.464 -4.36245 -1.49959 0
M  V30 7790 H 737.707 -4.12443 -1.34438 0
M  V30 7791 H 738.378 -4.71717 -2.86683 0
M  V30 7792 H 740.854 -2.80172 -3.07641 0
M  V30 7793 H 739.73 -3.35542 -4.34399 0
M  V30 7794 H 739.991 -1.63451 -4.10775 0
M  V30 7795 N 739.05 0.861098 -1.31996 0
M  V30 7796 C 740.299 1.60965 -1.21545 0
M  V30 7797 C 740.612 1.94325 0.222972 0
M  V30 7798 O 741.818 2.67757 0.449272 0
M  V30 7799 C 740.274 2.90223 -2.12834 0
M  V30 7800 C 739.882 2.64313 -3.61722 0
M  V30 7801 C 741.626 3.68229 -2.11205 0
M  V30 7802 C 739.533 3.89532 -4.44993 0
M  V30 7803 H 738.463 0.603988 -0.451348 0
M  V30 7804 H 741.114 0.951358 -1.56912 0
M  V30 7805 H 739.496 3.57475 -1.70375 0
M  V30 7806 H 740.67 2.05413 -4.12483 0
M  V30 7807 H 738.985 1.99647 -3.65418 0
M  V30 7808 H 741.582 4.61138 -2.70658 0
M  V30 7809 H 741.925 4.01466 -1.1014 0
M  V30 7810 H 742.458 3.07873 -2.51911 0
M  V30 7811 H 739.197 3.61441 -5.46846 0
M  V30 7812 H 738.717 4.47851 -3.98985 0
M  V30 7813 H 740.396 4.57334 -4.57663 0
M  V30 7814 N 740.528 1.15101 1.07655 0
M  V30 7815 C 741.491 0.847625 2.12951 0
M  V30 7816 C 742.491 -0.151227 1.60087 0
M  V30 7817 O 743.681 0.0780399 1.74025 0
M  V30 7818 C 740.813 0.265 3.39868 0
M  V30 7819 H 742.006 1.7809 2.41296 0
M  V30 7820 H 739.559 0.958072 1.23494 0
M  V30 7821 H 740.294 -0.676625 3.17163 0
M  V30 7822 H 740.079 0.984554 3.79538 0
M  V30 7823 H 741.569 0.0702121 4.17541 0
M  V30 7824 N 742.006 -1.2595 0.947325 0
M  V30 7825 C 743.254 -1.93081 0.596996 0
M  V30 7826 C 743.575 -1.74632 -0.867672 0
M  V30 7827 O 742.845 -1.1056 -1.6172 0
M  V30 7828 H 741.425 -0.714542 0.217805 0
M  V30 7829 H 744.087 -1.53265 1.20398 0
M  V30 7830 H 743.183 -3.01134 0.82004 0
M  V30 7831 N 743.484 -0.715051 -1.40445 0
M  V30 7832 C 744.732 -0.253826 -2.005 0
M  V30 7833 C 745.053 1.15681 -1.5698 0
M  V30 7834 O 744.323 1.78414 -0.809027 0
M  V30 7835 H 742.903 -0.0908537 -0.741454 0
M  V30 7836 H 745.565 -0.920561 -1.7179 0
M  V30 7837 H 744.661 -0.286499 -3.10782 0
M  V30 7838 N 744.962 1.50701 -0.461195 0
M  V30 7839 C 746.211 2.01458 0.0988277 0
M  V30 7840 C 746.524 1.34863 1.41673 0
M  V30 7841 O 747.73 1.76721 2.06111 0
M  V30 7842 C 746.186 3.59186 0.226648 0
M  V30 7843 C 745.794 4.34732 -1.08223 0
M  V30 7844 C 747.538 4.18015 0.73916 0
M  V30 7845 C 745.445 5.8422 -0.918747 0
M  V30 7846 H 744.375 0.7529 0.040709 0
M  V30 7847 H 747.026 1.736 -0.594589 0
M  V30 7848 H 745.408 3.83589 0.983621 0
M  V30 7849 H 746.582 4.22059 -1.84939 0
M  V30 7850 H 744.897 3.87466 -1.52509 0
M  V30 7851 H 747.494 5.27436 0.878347 0
M  V30 7852 H 747.837 3.78746 1.72793 0
M  V30 7853 H 748.37 3.9778 0.0398469 0
M  V30 7854 H 745.109 6.27944 -1.88059 0
M  V30 7855 H 744.629 5.99493 -0.191801 0
M  V30 7856 H 746.308 6.44382 -0.581405 0
M  V30 7857 N 746.441 0.193421 1.56409 0
M  V30 7858 C 747.857 -0.162447 1.58771 0
M  V30 7859 C 748.057 -1.6116 1.20954 0
M  V30 7860 O 747.113 -2.3469 0.931497 0
M  V30 7861 C 748.426 0.138391 3.00381 0
M  V30 7862 C 749.974 0.0783649 3.12902 0
M  V30 7863 C 750.449 0.352491 4.56642 0
M  V30 7864 N 751.94 0.30105 4.62221 0
M  V30 7865 C 752.675 0.487028 5.71328 0
M  V30 7866 N 752.171 0.733265 6.88909 0
M  V30 7867 N 753.964 0.4214 5.60518 0
M  V30 7868 H 746.115 1.13909 1.79272 0
M  V30 7869 H 748.378 0.454528 0.83193 0
M  V30 7870 H 748.084 1.14312 3.32604 0
M  V30 7871 H 747.958 -0.559804 3.73023 0
M  V30 7872 H 750.345 -0.916963 2.80492 0
M  V30 7873 H 750.426 0.809611 2.4265 0
M  V30 7874 H 750.07 1.34513 4.89764 0
M  V30 7875 H 750 -0.399624 5.25081 0
M  V30 7876 H 752.491 0.117279 3.77718 0
M  V30 7877 H 752.804 0.86403 7.67955 0
M  V30 7878 H 751.149 0.770138 6.9072 0
M  V30 7879 H 754.34 0.229461 4.67537 0
M  V30 7880 H 754.513 0.569758 6.4549 0
M  V30 7881 N 747.919 -1.57396 -0.0801906 0
M  V30 7882 C 748.869 -1.9955 -1.10289 0
M  V30 7883 C 749.853 -0.876234 -1.34948 0
M  V30 7884 O 751.045 -1.14012 -1.35389 0
M  V30 7885 C 748.174 -2.43596 -2.419 0
M  V30 7886 C 747.26 -3.6224 -2.20551 0
M  V30 7887 N 747.651 -4.76693 -1.69109 0
M  V30 7888 C 745.949 -3.68627 -2.51059 0
M  V30 7889 C 746.65 -5.58577 -1.62379 0
M  V30 7890 N 745.626 -5.02178 -2.0813 0
M  V30 7891 H 749.428 -2.85483 -0.698335 0
M  V30 7892 H 746.942 -1.59837 -0.287395 0
M  V30 7893 H 748.939 -2.72031 -3.15919 0
M  V30 7894 H 747.599 -1.59047 -2.8308 0
M  V30 7895 H 748.61 -4.9915 -1.38092 0
M  V30 7896 H 745.287 -2.94772 -2.95661 0
M  V30 7897 H 746.677 -6.60447 -1.2353 0
M  V30 7898 N 749.397 0.351382 -1.53633 0
M  V30 7899 C 750.646 1.08988 -1.69719 0
M  V30 7900 C 750.959 1.90043 -0.462948 0
M  V30 7901 O 752.165 2.66769 -0.504613 0
M  V30 7902 C 750.621 1.98691 -3.00083 0
M  V30 7903 C 750.229 1.22881 -4.30818 0
M  V30 7904 C 751.973 2.72446 -3.25536 0
M  V30 7905 C 749.88 2.11568 -5.52262 0
M  V30 7906 H 748.81 0.410588 -0.632403 0
M  V30 7907 H 751.461 0.349886 -1.80133 0
M  V30 7908 H 749.843 2.76478 -2.83506 0
M  V30 7909 H 751.017 0.500582 -4.58073 0
M  V30 7910 H 749.332 0.60928 -4.11918 0
M  V30 7911 H 751.929 3.39055 -4.13456 0
M  V30 7912 H 752.272 3.38588 -2.42206 0
M  V30 7913 H 752.805 2.01735 -3.42852 0
M  V30 7914 H 749.544 1.4998 -6.38111 0
M  V30 7915 H 749.064 2.82201 -5.29266 0
M  V30 7916 H 750.743 2.70802 -5.87601 0
M  V30 7917 N 750.875 1.45233 0.611969 0
M  V30 7918 C 752.286 1.4354 1.19387 0
M  V30 7919 C 752.637 0.160713 1.95541 0
M  V30 7920 O 751.762 -0.737954 2.03429 0
M  V30 7921 C 752.357 2.60045 2.17169 0
M  V30 7922 C 750.916 2.61486 2.70744 0
M  V30 7923 C 750.063 2.35708 1.46072 0
M  V30 7924 H 753.014 1.53536 0.401529 0
M  V30 7925 H 753.035 2.33893 3.00124 0
M  V30 7926 H 752.547 3.52803 1.61714 0
M  V30 7927 H 750.648 1.72721 3.30149 0
M  V30 7928 H 750.761 3.60572 3.15476 0
M  V30 7929 H 749.125 1.85178 1.74875 0
M  V30 7930 H 749.908 3.30606 0.924922 0
M  V30 7931 N 752.353 -0.854086 1.3245 0
M  V30 7932 C 753.63 -1.59188 1.1366 0
M  V30 7933 C 754.01 -2.08917 -0.302807 0
M  V30 7934 O 753.358 -1.8795 -1.29951 0
M  V30 7935 C 753.568 -2.73757 2.16467 0
M  V30 7936 C 754.916 -3.43323 2.49829 0
M  V30 7937 O 755.94 -2.83983 2.15017 0
M  V30 7938 O 754.799 -4.50409 3.09506 0
M  V30 7939 H 751.893 -0.701092 0.438633 0
M  V30 7940 H 754.439 -0.898165 1.43983 0
M  V30 7941 H 753.211 -2.3454 3.1322 0
M  V30 7942 H 752.834 -3.50804 1.87142 0
M  V30 7943 N 753.831 -1.1567 -1.07043 0
M  V30 7944 C 754.741 -0.870435 -2.17855 0
M  V30 7945 C 755.757 0.154452 -1.73313 0
M  V30 7946 O 756.933 -0.0203759 -2.0139 0
M  V30 7947 C 753.998 -0.367219 -3.4475 0
M  V30 7948 C 753.059 -1.45639 -4.03841 0
M  V30 7949 C 752.292 -0.977092 -5.2468 0
M  V30 7950 O 752.515 0.176127 -5.70128 0
M  V30 7951 O 751.449 -1.76215 -5.75527 0
M  V30 7952 H 755.275 -1.79687 -2.44839 0
M  V30 7953 H 752.86 -0.936064 -1.1644 0
M  V30 7954 H 754.742 -0.0931947 -4.21297 0
M  V30 7955 H 753.417 0.53131 -3.1931 0
M  V30 7956 H 752.324 -1.78406 -3.28819 0
M  V30 7957 H 753.657 -2.32995 -4.3356 0
M  V30 7958 N 755.309 1.25446 -0.953992 0
M  V30 7959 C 756.558 1.92441 -0.604101 0
M  V30 7960 C 756.871 1.75543 0.862796 0
M  V30 7961 O 758.077 2.37106 1.32262 0
M  V30 7962 C 756.533 3.44854 -1.02974 0
M  V30 7963 C 756.141 3.70464 -2.51914 0
M  V30 7964 C 757.885 4.1778 -0.752352 0
M  V30 7965 C 755.792 5.1638 -2.88281 0
M  V30 7966 H 754.722 0.720508 -0.222227 0
M  V30 7967 H 757.373 1.42318 -1.15836 0
M  V30 7968 H 755.755 3.93935 -0.403904 0
M  V30 7969 H 756.929 3.32038 -3.19511 0
M  V30 7970 H 755.244 3.10797 -2.77117 0
M  V30 7971 H 757.841 5.25261 -1.00024 0
M  V30 7972 H 758.184 4.15135 0.311212 0
M  V30 7973 H 758.717 3.74605 -1.33851 0
M  V30 7974 H 755.456 5.24135 -3.93653 0
M  V30 7975 H 754.976 5.55855 -2.25357 0
M  V30 7976 H 756.655 5.84497 -2.77439 0
M  V30 7977 N 756.787 0.722489 1.40064 0
M  V30 7978 C 758.034 0.264979 2.00759 0
M  V30 7979 C 758.362 -1.14395 1.57302 0
M  V30 7980 O 757.617 -1.79165 0.787298 0
M  V30 7981 C 757.916 0.300682 3.56133 0
M  V30 7982 C 757.582 1.66087 4.19197 0
M  V30 7983 C 756.244 2.03319 4.36136 0
M  V30 7984 C 758.596 2.55452 4.54306 0
M  V30 7985 C 755.924 3.29448 4.8547 0
M  V30 7986 C 758.276 3.8094 5.05042 0
M  V30 7987 C 756.94 4.1828 5.2019 0
M  V30 7988 H 756.21 0.0969625 0.734629 0
M  V30 7989 H 758.857 0.926877 1.67575 0
M  V30 7990 H 757.162 -0.44479 3.89267 0
M  V30 7991 H 758.859 -0.0712542 4.00937 0
M  V30 7992 H 755.449 1.36137 4.06405 0
M  V30 7993 H 759.633 2.27961 4.40849 0
M  V30 7994 H 754.889 3.58338 4.95382 0
M  V30 7995 H 759.063 4.50351 5.31184 0
M  V30 7996 H 756.69 5.16081 5.58179 0
M  V30 7997 N 758.265 -1.50454 0.469181 0
M  V30 7998 C 759.195 -2.31353 -0.31592 0
M  V30 7999 C 760.176 -1.38172 -0.992094 0
M  V30 8000 O 761.361 -1.67093 -0.989633 0
M  V30 8001 C 758.491 -3.1786 -1.39937 0
M  V30 8002 C 757.445 -4.19578 -0.844909 0
M  V30 8003 C 756.771 -4.9481 -2.0265 0
M  V30 8004 C 758.071 -5.22106 0.142499 0
M  V30 8005 H 759.765 -2.97237 0.359269 0
M  V30 8006 H 757.311 -1.42942 0.174224 0
M  V30 8007 H 759.264 -3.7325 -1.95607 0
M  V30 8008 H 757.988 -2.49858 -2.1033 0
M  V30 8009 H 756.647 -3.65285 -0.310189 0
M  V30 8010 H 756.295 -4.23282 -2.71737 0
M  V30 8011 H 755.995 -5.63613 -1.66174 0
M  V30 8012 H 757.519 -5.53035 -2.58815 0
M  V30 8013 H 758.933 -5.72378 -0.324966 0
M  V30 8014 H 757.33 -5.98618 0.421441 0
M  V30 8015 H 758.4 -4.7297 1.06901 0
M  V30 8016 N 759.743 -0.201713 -1.56304 0
M  V30 8017 C 760.673 0.71155 -2.22394 0
M  V30 8018 C 761.654 1.21625 -1.18917 0
M  V30 8019 O 762.839 1.26388 -1.47444 0
M  V30 8020 C 759.969 1.92837 -2.88845 0
M  V30 8021 C 758.923 1.55831 -3.98623 0
M  V30 8022 C 758.249 2.85228 -4.52271 0
M  V30 8023 C 759.549 0.763249 -5.16693 0
M  V30 8024 H 761.243 0.160573 -2.98969 0
M  V30 8025 H 758.789 0.0757916 -1.438 0
M  V30 8026 H 760.742 2.57253 -3.33764 0
M  V30 8027 H 759.466 2.50398 -2.09686 0
M  V30 8028 H 758.125 0.9377 -3.54405 0
M  V30 8029 H 757.773 3.40893 -3.69866 0
M  V30 8030 H 757.473 2.6121 -5.26349 0
M  V30 8031 H 758.997 3.50622 -4.99897 0
M  V30 8032 H 760.411 1.31066 -5.58117 0
M  V30 8033 H 758.808 0.620935 -5.96879 0
M  V30 8034 H 759.878 -0.234322 -4.84334 0
M  V30 8035 N 761.222 1.57436 0.0718424 0
M  V30 8036 C 762.45 1.91474 0.783932 0
M  V30 8037 C 762.865 0.797669 1.71122 0
M  V30 8038 O 762.222 -0.228989 1.81058 0
M  V30 8039 C 762.273 3.25259 1.57761 0
M  V30 8040 O 761.994 4.3267 0.687596 0
M  V30 8041 C 763.495 3.7331 2.3907 0
M  V30 8042 H 760.715 0.632901 0.222885 0
M  V30 8043 H 763.259 2.04457 0.0421262 0
M  V30 8044 H 761.414 3.13804 2.27169 0
M  V30 8045 H 761.828 5.09641 1.23962 0
M  V30 8046 H 763.302 4.69551 2.90216 0
M  V30 8047 H 763.779 3.02318 3.18591 0
M  V30 8048 H 764.385 3.8771 1.74818 0
M  V30 8049 N 762.7 -0.34323 1.53817 0
M  V30 8050 C 763.663 -1.40444 1.8113 0
M  V30 8051 C 764.663 -1.45604 0.682366 0
M  V30 8052 O 765.853 -1.45974 0.950649 0
M  V30 8053 C 762.985 -2.79369 1.95361 0
M  V30 8054 H 764.178 -1.17489 2.75928 0
M  V30 8055 H 761.731 -0.577636 1.45234 0
M  V30 8056 H 762.466 -3.07607 1.02707 0
M  V30 8057 H 762.251 -2.7702 2.77493 0
M  V30 8058 H 763.741 -3.56178 2.18008 0
M  V30 8059 N 764.178 -1.45556 -0.604258 0
M  V30 8060 C 765.088 -1.57025 -1.74299 0
M  V30 8061 C 766.104 -0.45456 -1.67958 0
M  V30 8062 O 767.28 -0.715711 -1.88254 0
M  V30 8063 C 764.345 -1.53702 -3.10768 0
M  V30 8064 C 763.406 -2.76335 -3.28538 0
M  V30 8065 C 762.639 -2.73161 -4.58496 0
M  V30 8066 O 762.862 -1.80678 -5.41028 0
M  V30 8067 O 761.796 -3.64409 -4.79051 0
M  V30 8068 H 765.622 -2.53284 -1.67573 0
M  V30 8069 H 763.207 -1.28104 -0.768745 0
M  V30 8070 H 765.089 -1.54468 -3.92068 0
M  V30 8071 H 763.764 -0.605957 -3.17978 0
M  V30 8072 H 762.671 -2.8113 -2.46813 0
M  V30 8073 H 764.004 -3.68578 -3.26207 0
M  V30 8074 N 765.656 0.84705 -1.32902 0
M  V30 8075 C 766.588 1.96308 -1.18304 0
M  V30 8076 C 767.601 1.62386 -0.116082 0
M  V30 8077 O 768.79 1.74713 -0.365751 0
M  V30 8078 C 765.89 3.29556 -0.790305 0
M  V30 8079 C 765.063 3.91668 -1.94717 0
M  V30 8080 C 764.122 5.0326 -1.53674 0
M  V30 8081 O 763.148 5.22847 -2.24989 0
M  V30 8082 N 764.35 5.78852 -0.437075 0
M  V30 8083 H 767.115 2.09369 -2.14441 0
M  V30 8084 H 764.676 1.02233 -1.25539 0
M  V30 8085 H 766.668 4.01624 -0.49799 0
M  V30 8086 H 765.238 3.12497 0.0801286 0
M  V30 8087 H 764.458 3.12292 -2.40557 0
M  V30 8088 H 765.746 4.299 -2.72146 0
M  V30 8089 H 765.144 5.65484 0.156316 0
M  V30 8090 H 763.701 6.51479 -0.204399 0
M  V30 8091 N 767.134 1.16236 1.06428 0
M  V30 8092 C 768.383 0.937523 1.78587 0
M  V30 8093 C 768.696 -0.536 1.88113 0
M  V30 8094 O 769.902 -0.878697 2.56887 0
M  V30 8095 C 768.358 1.62808 3.2097 0
M  V30 8096 C 767.966 3.13927 3.19615 0
M  V30 8097 C 769.71 1.48515 3.97673 0
M  V30 8098 C 767.617 3.75727 4.56709 0
M  V30 8099 H 766.547 0.347125 0.669343 0
M  V30 8100 H 769.198 1.39353 1.19385 0
M  V30 8101 H 767.58 1.09977 3.80422 0
M  V30 8102 H 768.754 3.7359 2.69753 0
M  V30 8103 H 767.069 3.28089 2.56411 0
M  V30 8104 H 769.666 1.92069 4.99013 0
M  V30 8105 H 770.009 0.433913 4.14032 0
M  V30 8106 H 770.542 1.98494 3.44739 0
M  V30 8107 H 767.281 4.80793 4.45554 0
M  V30 8108 H 766.801 3.20849 5.0677 0
M  V30 8109 H 768.48 3.77203 5.25668 0
M  V30 8110 N 768.612 -1.24939 0.960631 0
M  V30 8111 C 769.575 -2.239 0.49006 0
M  V30 8112 C 770.575 -1.55497 -0.409535 0
M  V30 8113 O 771.765 -1.72978 -0.205984 0
M  V30 8114 C 768.897 -3.39654 -0.291193 0
M  V30 8115 H 770.09 -2.67044 1.36482 0
M  V30 8116 H 767.643 -1.37429 0.744505 0
M  V30 8117 H 768.378 -3.01939 -1.18336 0
M  V30 8118 H 768.163 -3.90496 0.354276 0
M  V30 8119 H 769.653 -4.13125 -0.609693 0
M  V30 8120 N 770.09 -0.729906 -1.39679 0
M  V30 8121 C 771.022 -0.0470588 -2.29152 0
M  V30 8122 C 772.035 0.708808 -1.4656 0
M  V30 8123 O 773.224 0.553815 -1.69691 0
M  V30 8124 C 770.324 0.957612 -3.25089 0
M  V30 8125 C 769.497 0.264321 -4.36601 0
M  V30 8126 C 768.556 1.17638 -5.12882 0
M  V30 8127 O 767.582 0.655777 -5.6541 0
M  V30 8128 N 768.784 2.50649 -5.23598 0
M  V30 8129 H 771.549 -0.815364 -2.88395 0
M  V30 8130 H 769.11 -0.578707 -1.51204 0
M  V30 8131 H 771.102 1.57026 -3.72995 0
M  V30 8132 H 769.672 1.62716 -2.66912 0
M  V30 8133 H 768.892 -0.528732 -3.90638 0
M  V30 8134 H 770.18 -0.216344 -5.0834 0
M  V30 8135 H 769.578 2.95427 -4.82431 0
M  V30 8136 H 768.135 3.07022 -5.74961 0
M  V30 8137 N 771.568 1.50203 -0.477153 0
M  V30 8138 C 772.478 2.32421 0.319027 0
M  V30 8139 C 773.494 1.43075 0.990233 0
M  V30 8140 O 774.67 1.76123 0.976873 0
M  V30 8141 C 771.735 3.17909 1.38328 0
M  V30 8142 C 770.796 4.23082 0.728036 0
M  V30 8143 C 770.029 5.04484 1.74158 0
M  V30 8144 O 770.252 4.8705 2.96881 0
M  V30 8145 O 769.186 5.8747 1.31006 0
M  V30 8146 H 773.012 3.01638 -0.353281 0
M  V30 8147 H 770.597 1.47478 -0.238891 0
M  V30 8148 H 772.479 3.70937 1.9996 0
M  V30 8149 H 771.154 2.51413 2.03895 0
M  V30 8150 H 770.061 3.7403 0.07261 0
M  V30 8151 H 771.394 4.92065 0.115216 0
M  V30 8152 N 773.046 0.209999 1.56195 0
M  V30 8153 C 774.292 -0.425442 1.98287 0
M  V30 8154 C 774.625 -1.60232 1.09724 0
M  V30 8155 O 773.9 -1.93902 0.152414 0
M  V30 8156 C 774.183 -0.871189 3.49403 0
M  V30 8157 C 774.036 0.308527 4.48741 0
M  V30 8158 C 775.355 -1.73146 4.04609 0
M  V30 8159 H 772.474 -0.153169 0.720908 0
M  V30 8160 H 775.116 0.303916 1.87554 0
M  V30 8161 H 773.266 -1.49266 3.58681 0
M  V30 8162 H 774.938 0.946487 4.51486 0
M  V30 8163 H 773.181 0.957878 4.23092 0
M  V30 8164 H 773.852 -0.0461143 5.51981 0
M  V30 8165 H 776.328 -1.2072 3.98203 0
M  V30 8166 H 775.204 -2.01228 5.10684 0
M  V30 8167 H 775.465 -2.69083 3.5078 0
M  V30 8168 N 774.524 -1.57472 -0.0634922 0
M  V30 8169 C 775.749 -1.92273 -0.77756 0
M  V30 8170 C 776.174 -0.807141 -1.69902 0
M  V30 8171 O 775.532 0.239523 -1.79711 0
M  V30 8172 C 775.58 -3.26054 -1.54017 0
M  V30 8173 O 774.684 -3.15873 -2.65138 0
M  V30 8174 H 774.025 -0.629389 -0.211579 0
M  V30 8175 H 776.555 -2.04579 -0.0292523 0
M  V30 8176 H 776.565 -3.60127 -1.91763 0
M  V30 8177 H 775.24 -4.06824 -0.864128 0
M  V30 8178 H 773.817 -2.93373 -2.30189 0
M  V30 8179 N 776.003 0.335068 -1.53997 0
M  V30 8180 C 776.913 1.43511 -1.85585 0
M  V30 8181 C 777.929 1.57162 -0.746726 0
M  V30 8182 O 779.105 1.72477 -1.03988 0
M  V30 8183 C 776.17 2.78386 -2.06646 0
M  V30 8184 C 775.231 2.74007 -3.30483 0
M  V30 8185 C 774.464 4.02449 -3.50529 0
M  V30 8186 O 774.687 5.00147 -2.74242 0
M  V30 8187 O 773.621 4.06405 -4.4398 0
M  V30 8188 H 777.447 1.19731 -2.79102 0
M  V30 8189 H 775.032 0.528033 -1.39758 0
M  V30 8190 H 776.914 3.58247 -2.21894 0
M  V30 8191 H 775.589 3.0208 -1.16317 0
M  V30 8192 H 774.496 1.92736 -3.2063 0
M  V30 8193 H 775.829 2.55267 -4.20832 0
M  V30 8194 N 777.481 1.45874 0.596531 0
M  V30 8195 C 778.413 1.51408 1.7207 0
M  V30 8196 C 779.426 0.403738 1.57714 0
M  V30 8197 O 780.615 0.671384 1.65393 0
M  V30 8198 C 777.715 1.3652 3.10186 0
M  V30 8199 C 776.888 2.61428 3.50677 0
M  V30 8200 C 775.947 2.40937 4.67799 0
M  V30 8201 O 774.973 3.14602 4.74357 0
M  V30 8202 N 776.175 1.4621 5.61785 0
M  V30 8203 H 778.94 2.48333 1.67782 0
M  V30 8204 H 776.501 1.41755 0.782129 0
M  V30 8205 H 778.493 1.20606 3.86311 0
M  V30 8206 H 777.063 0.478302 3.08919 0
M  V30 8207 H 776.283 2.92381 2.644 0
M  V30 8208 H 777.571 3.44432 3.74491 0
M  V30 8209 H 776.969 0.854382 5.59211 0
M  V30 8210 H 775.526 1.36264 6.37397 0
M  V30 8211 N 778.959 -0.83999 1.33349 0
M  V30 8212 C 779.909 -1.93817 1.20079 0
M  V30 8213 C 780.893 -1.60564 0.103978 0
M  V30 8214 O 782.085 -1.73859 0.331964 0
M  V30 8215 C 779.214 -3.30151 0.941031 0
M  V30 8216 C 778.3 -3.69577 2.08023 0
M  V30 8217 N 778.691 -3.80707 3.3301 0
M  V30 8218 C 776.989 -3.99309 1.98667 0
M  V30 8219 C 777.69 -4.14899 4.07717 0
M  V30 8220 N 776.666 -4.27208 3.36146 0
M  V30 8221 H 780.468 -2.00576 2.14817 0
M  V30 8222 H 777.982 -1.03264 1.2534 0
M  V30 8223 H 779.979 -4.08617 0.826894 0
M  V30 8224 H 778.639 -3.247 0.00216738 0
M  V30 8225 H 779.65 -3.64644 3.67771 0
M  V30 8226 H 776.327 -4.02076 1.12433 0
M  V30 8227 H 777.717 -4.30857 5.15569 0
M  V30 8228 N 780.437 -1.16799 -1.0581 0
M  V30 8229 C 781.367 -0.902241 -2.15364 0
M  V30 8230 C 782.348 0.153351 -1.69407 0
M  V30 8231 O 783.533 0.00442032 -1.94199 0
M  V30 8232 C 780.663 -0.407911 -3.44896 0
M  V30 8233 C 779.617 -1.40197 -4.04387 0
M  V30 8234 C 778.943 -0.765848 -5.29187 0
M  V30 8235 C 780.243 -2.77316 -4.42598 0
M  V30 8236 H 781.937 -1.81841 -2.37853 0
M  V30 8237 H 779.483 -0.875731 -1.14311 0
M  V30 8238 H 781.436 -0.20945 -4.20879 0
M  V30 8239 H 780.16 0.54378 -3.22041 0
M  V30 8240 H 778.819 -1.58707 -3.30466 0
M  V30 8241 H 778.467 0.192482 -5.02632 0
M  V30 8242 H 778.167 -1.42939 -5.69949 0
M  V30 8243 H 779.691 -0.577519 -6.07863 0
M  V30 8244 H 781.105 -2.62561 -5.09642 0
M  V30 8245 H 779.502 -3.4019 -4.94359 0
M  V30 8246 H 780.572 -3.32199 -3.53231 0
M  V30 8247 N 781.915 1.24427 -0.967243 0
M  V30 8248 C 783.14 1.9708 -0.646069 0
M  V30 8249 C 783.565 1.71272 0.777665 0
M  V30 8250 O 782.923 0.976179 1.52776 0
M  V30 8251 C 782.971 3.48501 -0.926266 0
M  V30 8252 O 782.075 4.12398 -0.0114653 0
M  V30 8253 H 781.416 0.617423 -0.244304 0
M  V30 8254 H 783.946 1.58215 -1.29727 0
M  V30 8255 H 783.956 3.98885 -0.857619 0
M  V30 8256 H 782.631 3.66613 -1.96386 0
M  V30 8257 H 781.208 3.72661 -0.133396 0
M  V30 8258 N 783.393 0.737304 1.3929 0
M  V30 8259 C 784.325 0.0592106 2.29124 0
M  V30 8260 C 785.338 -0.701026 1.46934 0
M  V30 8261 O 786.527 -0.544808 1.69983 0
M  V30 8262 C 783.627 -0.940358 3.25592 0
M  V30 8263 C 782.8 -0.241163 4.36735 0
M  V30 8264 C 781.859 -1.14916 5.13498 0
M  V30 8265 O 780.885 -0.625783 5.6575 0
M  V30 8266 N 782.087 -2.47869 5.2492 0
M  V30 8267 H 784.852 0.830647 2.87959 0
M  V30 8268 H 782.413 0.586718 1.50895 0
M  V30 8269 H 784.405 -1.55046 3.73822 0
M  V30 8270 H 782.975 -1.61299 2.67771 0
M  V30 8271 H 782.195 0.549441 3.90352 0
M  V30 8272 H 783.483 0.243299 5.08218 0
M  V30 8273 H 782.881 -2.92864 4.83991 0
M  V30 8274 H 781.438 -3.03969 5.76581 0
M  V30 8275 N 784.871 -1.49948 0.485112 0
M  V30 8276 C 786.119 -2.01996 -0.0648775 0
M  V30 8277 C 786.44 -1.36819 -1.38945 0
M  V30 8278 O 785.71 -0.518163 -1.88923 0
M  V30 8279 H 784.29 -0.746513 -0.0269662 0
M  V30 8280 H 786.952 -1.84136 0.638733 0
M  V30 8281 H 786.048 -3.11418 -0.20617 0
M  V30 8282 N 786.349 -0.21828 -1.56081 0
M  V30 8283 C 787.765 0.137168 -1.59009 0
M  V30 8284 C 787.965 1.59215 -1.23503 0
M  V30 8285 O 787.021 2.33178 -0.968716 0
M  V30 8286 C 788.334 -0.186162 -3.00123 0
M  V30 8287 C 789.882 -0.128135 -3.12738 0
M  V30 8288 C 790.357 -0.425094 -4.56023 0
M  V30 8289 N 791.848 -0.374547 -4.61683 0
M  V30 8290 C 792.583 -0.57786 -5.70481 0
M  V30 8291 N 792.079 -0.842771 -6.87655 0
M  V30 8292 N 793.872 -0.510521 -5.59777 0
M  V30 8293 H 786.023 -1.16746 -1.77437 0
M  V30 8294 H 788.286 -0.467706 -0.824594 0
M  V30 8295 H 787.992 -1.19589 -3.30744 0
M  V30 8296 H 787.866 0.500388 -3.73866 0
M  V30 8297 H 790.253 0.872224 -2.81915 0
M  V30 8298 H 790.334 -0.848112 -2.41331 0
M  V30 8299 H 789.978 -1.42288 -4.87562 0
M  V30 8300 H 789.908 0.316038 -5.25651 0
M  V30 8301 H 792.399 -0.177356 -3.77484 0
M  V30 8302 H 792.712 -0.986095 -7.66483 0
M  V30 8303 H 791.057 -0.879929 -6.89407 0
M  V30 8304 H 794.248 -0.303813 -4.67113 0
M  V30 8305 H 794.421 -0.672378 -6.44502 0
M  V30 8306 N 787.827 1.57504 0.0551401 0
M  V30 8307 C 788.757 2.07864 1.06372 0
M  V30 8308 C 789.738 0.975565 1.39344 0
M  V30 8309 O 790.923 1.24929 1.48682 0
M  V30 8310 C 788.053 2.53643 2.3724 0
M  V30 8311 C 787.007 3.67978 2.18578 0
M  V30 8312 C 786.333 3.9987 3.54976 0
M  V30 8313 C 787.633 4.97405 1.59329 0
M  V30 8314 H 789.327 2.92379 0.644595 0
M  V30 8315 H 786.873 1.40654 0.308619 0
M  V30 8316 H 788.826 2.8749 3.08103 0
M  V30 8317 H 787.55 1.66177 2.81163 0
M  V30 8318 H 786.209 3.3444 1.50152 0
M  V30 8319 H 785.857 3.0951 3.965 0
M  V30 8320 H 785.557 4.76867 3.43324 0
M  V30 8321 H 787.081 4.36228 4.27244 0
M  V30 8322 H 788.495 5.29375 2.20078 0
M  V30 8323 H 786.892 5.78837 1.58327 0
M  V30 8324 H 787.962 4.81697 0.55638 0
M  V30 8325 N 789.305 -0.326896 1.54172 0
M  V30 8326 C 790.535 -1.08328 1.75922 0
M  V30 8327 C 790.943 -1.82302 0.50622 0
M  V30 8328 O 790.286 -1.7581 -0.532581 0
M  V30 8329 C 790.348 -2.1294 2.8965 0
M  V30 8330 C 790.012 -1.58394 4.28673 0
M  V30 8331 C 791.009 -1.02747 5.09646 0
M  V30 8332 C 788.694 -1.62737 4.75207 0
M  V30 8333 C 790.688 -0.52169 6.35261 0
M  V30 8334 C 788.375 -1.11772 6.00791 0
M  V30 8335 C 789.373 -0.565819 6.80652 0
M  V30 8336 O 789.061 -0.0638146 8.03875 0
M  V30 8337 H 788.793 -0.3282 0.590983 0
M  V30 8338 H 791.347 -0.37972 2.0186 0
M  V30 8339 H 789.577 -2.86903 2.59275 0
M  V30 8340 H 791.266 -2.74274 2.99213 0
M  V30 8341 H 792.032 -0.987007 4.74851 0
M  V30 8342 H 787.911 -2.04635 4.13093 0
M  V30 8343 H 791.455 -0.0902544 6.97542 0
M  V30 8344 H 787.352 -1.15524 6.35078 0
M  V30 8345 H 788.12 -0.17955 8.18303 0
M  V30 8346 N 790.784 -1.46188 -0.588786 0
M  V30 8347 C 792.195 -1.45421 -1.17088 0
M  V30 8348 C 792.546 -0.191801 -1.9526 0
M  V30 8349 O 791.671 0.705497 -2.04577 0
M  V30 8350 C 792.266 -2.63467 -2.13004 0
M  V30 8351 C 790.825 -2.6576 -2.6655 0
M  V30 8352 C 789.972 -2.38002 -1.42304 0
M  V30 8353 H 792.923 -1.54156 -0.377052 0
M  V30 8354 H 792.944 -2.38638 -2.96365 0
M  V30 8355 H 792.456 -3.55331 -1.56081 0
M  V30 8356 H 790.557 -1.77952 -3.27359 0
M  V30 8357 H 790.67 -3.65545 -3.09699 0
M  V30 8358 H 789.034 -1.87936 -1.71907 0
M  V30 8359 H 789.817 -3.32035 -0.872209 0
M  V30 8360 N 792.262 0.832906 -1.33792 0
M  V30 8361 C 793.673 1.40489 -1.22963 0
M  V30 8362 C 794.024 1.95633 0.149026 0
M  V30 8363 O 793.149 1.8928 1.04891 0
M  V30 8364 C 793.744 2.55387 -2.22627 0
M  V30 8365 C 792.303 3.08522 -2.15618 0
M  V30 8366 C 791.45 1.81347 -2.09782 0
M  V30 8367 H 794.401 0.638156 -1.45304 0
M  V30 8368 H 794.422 3.33193 -1.83746 0
M  V30 8369 H 793.934 2.15222 -3.22957 0
M  V30 8370 H 792.035 3.53217 -1.18611 0
M  V30 8371 H 792.148 3.6829 -3.0643 0
M  V30 8372 H 790.512 2.01839 -1.55349 0
M  V30 8373 H 791.295 1.43369 -3.1193 0
M  V30 8374 N 793.74 1.17359 1.05189 0
M  V30 8375 C 794.67 0.91365 2.14883 0
M  V30 8376 C 795.651 -0.144365 1.69486 0
M  V30 8377 O 796.836 0.00587861 1.94199 0
M  V30 8378 C 793.966 0.426196 3.44675 0
M  V30 8379 C 792.92 1.4234 4.03638 0
M  V30 8380 C 792.246 0.793902 5.28773 0
M  V30 8381 C 793.546 2.7966 4.41121 0
M  V30 8382 H 795.24 1.831 2.36885 0
M  V30 8383 H 792.786 0.881781 1.13845 0
M  V30 8384 H 794.739 0.231767 4.20762 0
M  V30 8385 H 793.463 -0.526693 3.22325 0
M  V30 8386 H 792.122 1.60457 3.2962 0
M  V30 8387 H 791.77 -0.165824 5.02727 0
M  V30 8388 H 791.47 1.45959 5.69183 0
M  V30 8389 H 792.994 0.609747 6.07548 0
M  V30 8390 H 794.408 2.6526 5.08242 0
M  V30 8391 H 792.805 3.42807 4.92548 0
M  V30 8392 H 793.875 3.34068 3.51464 0
M  V30 8393 N 795.218 -1.23913 0.973828 0
M  V30 8394 C 796.443 -1.96735 0.656511 0
M  V30 8395 C 796.868 -1.71682 -0.768571 0
M  V30 8396 O 796.226 -0.984267 -1.52256 0
M  V30 8397 C 796.274 -3.48004 0.944735 0
M  V30 8398 O 795.378 -4.12387 0.0333357 0
M  V30 8399 H 794.719 -0.616119 0.247575 0
M  V30 8400 H 797.249 -1.57525 1.30564 0
M  V30 8401 H 797.259 -3.98424 0.87876 0
M  V30 8402 H 795.934 -3.65567 1.98328 0
M  V30 8403 H 794.511 -3.72585 0.153157 0
M  V30 8404 N 796.696 -0.74468 -1.38897 0
M  V30 8405 C 797.924 -0.307428 -2.04603 0
M  V30 8406 C 798.339 1.06115 -1.56157 0
M  V30 8407 O 797.696 1.67233 -0.730701 0
M  V30 8408 C 797.747 -0.31101 -3.6016 0
M  V30 8409 O 797.468 -1.62557 -4.06825 0
M  V30 8410 C 798.969 0.141213 -4.43075 0
M  V30 8411 H 796.189 -0.132741 -0.657739 0
M  V30 8412 H 798.733 -1.01104 -1.77759 0
M  V30 8413 H 796.888 0.343792 -3.85872 0
M  V30 8414 H 797.302 -1.54569 -5.01207 0
M  V30 8415 H 798.776 0.0875449 -5.51931 0
M  V30 8416 H 799.253 1.18782 -4.22833 0
M  V30 8417 H 799.859 -0.484383 -4.22533 0
M  V30 8418 N 798.174 1.49689 -0.493057 0
M  V30 8419 C 799.423 2.01622 0.0560733 0
M  V30 8420 C 799.736 1.37838 1.3878 0
M  V30 8421 O 800.942 1.81054 2.02316 0
M  V30 8422 C 799.398 3.59586 0.150409 0
M  V30 8423 C 799.006 4.32338 -1.1742 0
M  V30 8424 C 800.75 4.19489 0.650327 0
M  V30 8425 C 798.657 5.8214 -1.04246 0
M  V30 8426 H 797.587 0.753594 0.0247297 0
M  V30 8427 H 800.238 1.723 -0.631279 0
M  V30 8428 H 798.62 3.8559 0.902035 0
M  V30 8429 H 799.794 4.18042 -1.9385 0
M  V30 8430 H 798.109 3.84144 -1.60694 0
M  V30 8431 H 800.706 5.29181 0.766272 0
M  V30 8432 H 801.049 3.82326 1.6472 0
M  V30 8433 H 801.582 3.97775 -0.0445371 0
M  V30 8434 H 798.321 6.23814 -2.01336 0
M  V30 8435 H 797.841 5.98952 -0.31892 0
M  V30 8436 H 799.52 6.43004 -0.717957 0
M  V30 8437 N 799.652 0.226554 1.55963 0
M  V30 8438 C 801.068 -0.128733 1.5908 0
M  V30 8439 C 801.268 -1.58558 1.24345 0
M  V30 8440 O 800.324 -2.32661 0.981069 0
M  V30 8441 C 801.637 0.202076 3.0002 0
M  V30 8442 C 803.185 0.144718 3.12665 0
M  V30 8443 C 803.66 0.449272 4.55791 0
M  V30 8444 N 805.151 0.399026 4.61478 0
M  V30 8445 C 805.886 0.608106 5.70166 0
M  V30 8446 N 805.382 0.879227 6.87198 0
M  V30 8447 N 807.175 0.5402 5.59498 0
M  V30 8448 H 799.326 1.17686 1.76816 0
M  V30 8449 H 801.589 0.472072 0.822102 0
M  V30 8450 H 801.295 1.21341 3.30105 0
M  V30 8451 H 801.169 -0.480554 3.74126 0
M  V30 8452 H 803.556 -0.857261 2.82374 0
M  V30 8453 H 803.637 0.860899 2.40878 0
M  V30 8454 H 803.281 1.44871 4.86801 0
M  V30 8455 H 803.211 -0.288157 5.25811 0
M  V30 8456 H 805.702 0.197372 3.77384 0
M  V30 8457 H 806.015 1.02673 7.65949 0
M  V30 8458 H 804.36 0.916477 6.88931 0
M  V30 8459 H 807.551 0.328581 4.66945 0
M  V30 8460 H 807.724 0.706548 6.44137 0
M  V30 8461 N 801.13 -1.57531 -0.0467866 0
M  V30 8462 C 802.407 -1.79568 -0.775536 0
M  V30 8463 C 802.787 -0.820322 -1.94509 0
M  V30 8464 O 802.135 0.14134 -2.28062 0
M  V30 8465 C 802.345 -3.26789 -1.22516 0
M  V30 8466 C 803.693 -3.91299 -1.64835 0
M  V30 8467 O 804.717 -3.30831 -1.3202 0
M  V30 8468 O 803.576 -4.97727 -2.25677 0
M  V30 8469 H 800.67 -0.737817 -0.373572 0
M  V30 8470 H 803.216 -1.69682 -0.0249302 0
M  V30 8471 H 801.988 -3.89357 -0.389446 0
M  V30 8472 H 801.611 -3.41496 -2.03633 0
M  V30 8473 N 802.608 0.318715 -1.54344 0
M  V30 8474 C 803.854 1.05765 -1.73037 0
M  V30 8475 C 804.187 1.87514 -0.505181 0
M  V30 8476 O 803.462 1.88021 0.497838 0
M  V30 8477 C 803.745 1.97836 -3.00887 0
M  V30 8478 C 803.598 1.19384 -4.33668 0
M  V30 8479 C 804.917 2.97285 -3.24514 0
M  V30 8480 H 802.036 0.383104 -0.629603 0
M  V30 8481 H 804.678 0.333864 -1.87044 0
M  V30 8482 H 802.828 2.59552 -2.89076 0
M  V30 8483 H 804.5 0.600906 -4.57369 0
M  V30 8484 H 802.743 0.496198 -4.30953 0
M  V30 8485 H 803.414 1.87014 -5.19355 0
M  V30 8486 H 805.89 2.45693 -3.35819 0
M  V30 8487 H 804.766 3.58887 -4.15321 0
M  V30 8488 H 805.027 3.70003 -2.41971 0
M  V30 8489 N 804.086 1.46499 0.581025 0
M  V30 8490 C 805.311 1.55708 1.37002 0
M  V30 8491 C 805.736 0.19942 1.8704 0
M  V30 8492 O 805.094 -0.820731 1.61659 0
M  V30 8493 C 805.142 2.56716 2.53238 0
M  V30 8494 O 804.246 2.10336 3.54729 0
M  V30 8495 H 803.587 0.523912 0.407937 0
M  V30 8496 H 806.117 1.92085 0.704602 0
M  V30 8497 H 806.127 2.76378 3.00132 0
M  V30 8498 H 804.802 3.55307 2.16171 0
M  V30 8499 H 803.379 2.00669 3.14303 0
M  V30 8500 N 805.565 -0.825799 1.34232 0
M  V30 8501 C 806.495 -1.95151 1.28212 0
M  V30 8502 C 807.476 -1.69345 0.160123 0
M  V30 8503 O 808.661 -1.90983 0.352019 0
M  V30 8504 C 805.791 -3.31554 1.03388 0
M  V30 8505 C 804.745 -3.71793 2.12023 0
M  V30 8506 C 804.071 -5.06147 1.72392 0
M  V30 8507 C 805.371 -3.84193 3.53826 0
M  V30 8508 H 807.065 -2.00445 2.22401 0
M  V30 8509 H 804.611 -0.962996 1.07063 0
M  V30 8510 H 806.564 -4.09889 0.978225 0
M  V30 8511 H 805.288 -3.26551 0.0564142 0
M  V30 8512 H 803.947 -2.95731 2.16654 0
M  V30 8513 H 803.595 -4.97628 0.733137 0
M  V30 8514 H 803.295 -5.34041 2.451 0
M  V30 8515 H 804.819 -5.86943 1.68317 0
M  V30 8516 H 806.233 -4.52806 3.51624 0
M  V30 8517 H 804.63 -4.23538 4.2513 0
M  V30 8518 H 805.7 -2.86272 3.91377 0
M  V30 8519 N 807.043 -1.17915 -1.04565 0
M  V30 8520 C 808.459 -0.927761 -1.29864 0
M  V30 8521 C 808.659 0.409536 -1.97294 0
M  V30 8522 O 807.715 1.14505 -2.25044 0
M  V30 8523 C 809.028 -2.08967 -2.16225 0
M  V30 8524 C 810.576 -2.12741 -2.29587 0
M  V30 8525 C 811.051 -3.28335 -3.19312 0
M  V30 8526 N 812.542 -3.28164 -3.26898 0
M  V30 8527 C 813.277 -4.14249 -3.96466 0
M  V30 8528 N 812.773 -5.10457 -4.68407 0
M  V30 8529 N 814.566 -4.02179 -3.92694 0
M  V30 8530 H 806.717 -2.03983 -0.592011 0
M  V30 8531 H 808.98 -0.891023 -0.323701 0
M  V30 8532 H 808.686 -3.05654 -1.73979 0
M  V30 8533 H 808.56 -2.04606 -3.16885 0
M  V30 8534 H 810.947 -1.16636 -2.71072 0
M  V30 8535 H 811.028 -2.21162 -1.28535 0
M  V30 8536 H 810.672 -4.2471 -2.78539 0
M  V30 8537 H 810.602 -3.17151 -4.20384 0
M  V30 8538 H 813.093 -2.58511 -2.75646 0
M  V30 8539 H 813.406 -5.72526 -5.1907 0
M  V30 8540 H 811.751 -5.14422 -4.67328 0
M  V30 8541 H 814.942 -3.26308 -3.3562 0
M  V30 8542 H 815.115 -4.69486 -4.4664 0
M  V30 8543 N 808.521 1.23394 -0.980386 0
M  V30 8544 C 809.77 1.91116 -0.644785 0
M  V30 8545 C 810.083 1.77333 0.825367 0
M  V30 8546 O 811.289 2.39858 1.27203 0
M  V30 8547 C 809.745 3.42592 -1.10266 0
M  V30 8548 C 809.353 3.65037 -2.59715 0
M  V30 8549 C 811.097 4.1609 -0.8408 0
M  V30 8550 C 809.004 5.10148 -2.9917 0
M  V30 8551 H 807.934 0.715632 -0.23746 0
M  V30 8552 H 810.585 1.39829 -1.18828 0
M  V30 8553 H 808.967 3.92989 -0.487372 0
M  V30 8554 H 810.141 3.25186 -3.26482 0
M  V30 8555 H 808.456 3.04849 -2.83647 0
M  V30 8556 H 811.053 5.23021 -1.11143 0
M  V30 8557 H 811.396 4.15702 0.223085 0
M  V30 8558 H 811.929 3.71681 -1.41767 0
M  V30 8559 H 808.668 5.15668 -4.04682 0
M  V30 8560 H 808.188 5.50949 -2.37097 0
M  V30 8561 H 809.867 5.7848 -2.89775 0
M  V30 8562 N 809.999 0.752036 1.385 0
M  V30 8563 C 810.962 0.131587 2.28822 0
M  V30 8564 C 811.962 -0.649149 1.47115 0
M  V30 8565 O 813.152 -0.475645 1.67581 0
M  V30 8566 C 810.284 -0.822101 3.30839 0
M  V30 8567 H 811.477 0.927551 2.85196 0
M  V30 8568 H 809.03 0.518945 1.47434 0
M  V30 8569 H 809.765 -1.6438 2.79553 0
M  V30 8570 H 809.55 -0.264689 3.91206 0
M  V30 8571 H 811.04 -1.25226 3.98382 0
M  V30 8572 N 811.477 -1.49425 0.500989 0
M  V30 8573 C 812.726 -2.01649 -0.04538 0
M  V30 8574 C 813.039 -1.38572 -1.38047 0
M  V30 8575 O 814.245 -1.82124 -2.01353 0
M  V30 8576 C 812.701 -3.5966 -0.131337 0
M  V30 8577 C 812.309 -4.3171 1.19711 0
M  V30 8578 C 814.053 -4.19828 -0.628071 0
M  V30 8579 C 811.96 -5.81579 1.07332 0
M  V30 8580 H 810.89 -0.753715 -0.0207329 0
M  V30 8581 H 813.541 -1.71962 0.640407 0
M  V30 8582 H 811.923 -3.86063 -0.881574 0
M  V30 8583 H 813.097 -4.17008 1.96064 0
M  V30 8584 H 811.412 -3.83286 1.62729 0
M  V30 8585 H 814.009 -5.2958 -0.738198 0
M  V30 8586 H 814.352 -3.83194 -1.6269 0
M  V30 8587 H 814.885 -3.97746 0.0656314 0
M  V30 8588 H 811.624 -6.22738 2.04642 0
M  V30 8589 H 811.144 -5.98774 0.350679 0
M  V30 8590 H 812.823 -6.42614 0.752047 0
M  V30 8591 N 812.955 -0.234822 -1.55841 0
M  V30 8592 C 813.902 0.6698 -2.20867 0
M  V30 8593 C 814.872 1.18042 -1.16856 0
M  V30 8594 O 816.057 1.23709 -1.45261 0
M  V30 8595 C 813.197 1.86646 -2.90271 0
M  V30 8596 C 812.31 1.39351 -4.08908 0
M  V30 8597 C 811.445 2.54878 -4.66059 0
M  V30 8598 C 810.484 2.04384 -5.76969 0
M  V30 8599 N 809.621 3.13233 -6.28355 0
M  V30 8600 H 814.461 0.10858 -2.97802 0
M  V30 8601 H 811.998 0.041836 -1.4704 0
M  V30 8602 H 813.956 2.56926 -3.28702 0
M  V30 8603 H 812.586 2.40035 -2.15831 0
M  V30 8604 H 811.638 0.585173 -3.75872 0
M  V30 8605 H 812.95 0.983356 -4.89011 0
M  V30 8606 H 812.104 3.33219 -5.07001 0
M  V30 8607 H 810.843 2.99188 -3.85146 0
M  V30 8608 H 809.848 1.24509 -5.35516 0
M  V30 8609 H 811.073 1.61057 -6.59725 0
M  V30 8610 H 809.019 3.57 -5.50352 0
M  V30 8611 H 808.936 2.76511 -7.03618 0
M  V30 8612 H 810.204 3.91669 -6.73955 0
M  V30 8613 N 814.433 1.57553 0.0384317 0
M  V30 8614 C 815.679 1.89121 0.732199 0
M  V30 8615 C 816.012 0.831404 1.75503 0
M  V30 8616 O 815.287 -0.154642 1.93884 0
M  V30 8617 C 815.57 3.31338 1.41021 0
M  V30 8618 C 815.423 4.48004 0.401532 0
M  V30 8619 C 816.742 3.72318 2.34665 0
M  V30 8620 H 813.861 0.687819 0.264715 0
M  V30 8621 H 816.503 1.89999 -0.00496279 0
M  V30 8622 H 814.653 3.3072 2.03854 0
M  V30 8623 H 816.325 4.60755 -0.224159 0
M  V30 8624 H 814.568 4.32895 -0.280092 0
M  V30 8625 H 815.239 5.44377 0.91423 0
M  V30 8626 H 817.715 3.74243 1.81883 0
M  V30 8627 H 816.591 4.72652 2.7909 0
M  V30 8628 H 816.852 3.04062 3.20934 0
M  V30 8629 N 815.911 -0.310526 1.54511 0
M  V30 8630 C 816.841 -1.38757 1.878 0
M  V30 8631 C 817.822 -1.53353 0.735991 0
M  V30 8632 O 819.007 -1.67018 0.990887 0
M  V30 8633 C 816.137 -2.75327 2.11689 0
M  V30 8634 C 815.091 -2.75506 3.27537 0
M  V30 8635 C 814.417 -4.15275 3.36824 0
M  V30 8636 C 815.717 -2.38093 4.64875 0
M  V30 8637 H 817.411 -1.11146 2.78005 0
M  V30 8638 H 814.957 -0.533232 1.33763 0
M  V30 8639 H 816.91 -3.50752 2.33562 0
M  V30 8640 H 815.634 -3.04443 1.18245 0
M  V30 8641 H 814.293 -2.02538 3.05572 0
M  V30 8642 H 813.941 -4.41553 2.40915 0
M  V30 8643 H 813.641 -4.16299 4.14692 0
M  V30 8644 H 815.165 -4.92493 3.60947 0
M  V30 8645 H 816.579 -3.03232 4.86542 0
M  V30 8646 H 814.976 -2.50345 5.45387 0
M  V30 8647 H 816.046 -1.33227 4.66239 0
M  V30 8648 N 817.389 -1.46805 -0.573248 0
M  V30 8649 C 818.666 -1.43082 -1.33368 0
M  V30 8650 C 819.046 -0.119252 -2.10763 0
M  V30 8651 O 818.394 0.899239 -2.10062 0
M  V30 8652 C 818.604 -2.66643 -2.25172 0
M  V30 8653 C 819.952 -3.13188 -2.86702 0
M  V30 8654 O 820.976 -2.67258 -2.35482 0
M  V30 8655 O 819.835 -3.92994 -3.79761 0
M  V30 8656 H 816.929 -0.569451 -0.599712 0
M  V30 8657 H 819.475 -1.58984 -0.59348 0
M  V30 8658 H 818.247 -3.53649 -1.67475 0
M  V30 8659 H 817.87 -2.53247 -3.06516 0
M  V30 8660 N 818.867 0.818669 -1.34668 0
M  V30 8661 C 820.097 1.60441 -1.30162 0
M  V30 8662 C 820.505 1.88783 0.125579 0
M  V30 8663 O 819.848 1.48281 1.08437 0
M  V30 8664 C 819.91 2.96794 -2.02864 0
M  V30 8665 C 819.574 2.91327 -3.52105 0
M  V30 8666 C 820.571 2.65611 -4.4693 0
M  V30 8667 C 818.256 3.10825 -3.9458 0
M  V30 8668 C 820.25 2.59452 -5.82206 0
M  V30 8669 C 817.937 3.0429 -5.29954 0
M  V30 8670 C 818.935 2.78637 -6.23579 0
M  V30 8671 O 818.623 2.72042 -7.56471 0
M  V30 8672 H 818.355 0.505278 -0.449077 0
M  V30 8673 H 820.909 1.02632 -1.77921 0
M  V30 8674 H 819.139 3.56538 -1.49725 0
M  V30 8675 H 820.828 3.57837 -1.91592 0
M  V30 8676 H 821.594 2.50278 -4.15434 0
M  V30 8677 H 817.473 3.29807 -3.221 0
M  V30 8678 H 821.017 2.39349 -6.55254 0
M  V30 8679 H 816.914 3.19177 -5.61067 0
M  V30 8680 H 817.682 2.87738 -7.66257 0
M  V30 8681 N 820.346 1.18468 1.03938 0
M  V30 8682 C 821.309 0.914944 2.10146 0
M  V30 8683 C 822.309 -0.10022 1.60487 0
M  V30 8684 O 823.499 0.133365 1.73689 0
M  V30 8685 C 820.631 0.372993 3.38853 0
M  V30 8686 H 821.824 1.85677 2.35508 0
M  V30 8687 H 819.377 0.996876 1.20383 0
M  V30 8688 H 820.112 -0.57538 3.19155 0
M  V30 8689 H 819.897 1.1048 3.76213 0
M  V30 8690 H 821.387 0.203014 4.17106 0
M  V30 8691 N 821.824 -1.22873 0.986916 0
M  V30 8692 C 823.054 -1.95204 0.67668 0
M  V30 8693 C 823.462 -1.73193 -0.761641 0
M  V30 8694 O 822.805 -1.0243 -1.52492 0
M  V30 8695 C 822.867 -3.48173 0.895302 0
M  V30 8696 C 822.531 -3.93912 2.31695 0
M  V30 8697 C 823.528 -4.02064 3.29607 0
M  V30 8698 C 821.213 -4.26722 2.64978 0
M  V30 8699 C 823.207 -4.42391 4.58878 0
M  V30 8700 C 820.894 -4.66729 3.94471 0
M  V30 8701 C 821.892 -4.74531 4.91232 0
M  V30 8702 O 821.58 -5.13636 6.18412 0
M  V30 8703 H 821.312 -0.628105 0.24992 0
M  V30 8704 H 823.866 -1.5714 1.32274 0
M  V30 8705 H 822.096 -3.86223 0.192072 0
M  V30 8706 H 823.785 -4.01717 0.581233 0
M  V30 8707 H 824.551 -3.76912 3.05225 0
M  V30 8708 H 820.43 -4.19858 1.9037 0
M  V30 8709 H 823.974 -4.48395 5.34404 0
M  V30 8710 H 819.871 -4.91332 4.18645 0
M  V30 8711 H 820.639 -5.31728 6.2226 0
M  V30 8712 N 823.302 -0.75937 -1.38099 0
M  V30 8713 C 824.249 -0.135508 -2.30402 0
M  V30 8714 C 825.219 0.703356 -1.50473 0
M  V30 8715 O 826.404 0.658287 -1.79084 0
M  V30 8716 C 823.544 0.747228 -3.36913 0
M  V30 8717 C 822.657 -0.106893 -4.31868 0
M  V30 8718 C 821.792 0.779388 -5.25451 0
M  V30 8719 C 820.831 -0.0780179 -6.1205 0
M  V30 8720 N 819.968 0.765545 -6.97914 0
M  V30 8721 H 824.808 -0.9282 -2.83176 0
M  V30 8722 H 822.345 -0.46935 -1.39411 0
M  V30 8723 H 824.303 1.27371 -3.97281 0
M  V30 8724 H 822.933 1.50565 -2.85535 0
M  V30 8725 H 821.985 -0.751063 -3.72912 0
M  V30 8726 H 823.297 -0.768798 -4.9284 0
M  V30 8727 H 822.451 1.37282 -5.90964 0
M  V30 8728 H 821.19 1.47501 -4.6486 0
M  V30 8729 H 820.195 -0.684078 -5.45528 0
M  V30 8730 H 821.42 -0.770786 -6.74712 0
M  V30 8731 H 819.366 1.44601 -6.39864 0
M  V30 8732 H 819.283 0.160666 -7.55829 0
M  V30 8733 H 820.551 1.34377 -7.6783 0
M  V30 8734 N 824.78 1.49157 -0.508906 0
M  V30 8735 C 825.73 2.26215 0.284705 0
M  V30 8736 C 826.714 1.31401 0.928586 0
M  V30 8737 O 827.906 1.56073 0.834877 0
M  V30 8738 C 825.035 3.15906 1.34382 0
M  V30 8739 C 824.121 4.18186 0.705785 0
M  V30 8740 N 824.512 5.05419 -0.196214 0
M  V30 8741 C 822.81 4.35425 0.965457 0
M  V30 8742 C 823.511 5.78977 -0.562222 0
M  V30 8743 N 822.487 5.43553 0.0717389 0
M  V30 8744 H 826.289 2.91033 -0.409543 0
M  V30 8745 H 823.803 1.59104 -0.325508 0
M  V30 8746 H 825.8 3.6975 1.92589 0
M  V30 8747 H 824.46 2.52642 2.03966 0
M  V30 8748 H 825.471 5.14781 -0.567526 0
M  V30 8749 H 822.148 3.83363 1.65346 0
M  V30 8750 H 823.538 6.59192 -1.30062 0
M  V30 8751 N 826.258 0.243083 1.55714 0
M  V30 8752 C 827.206 -0.674349 2.2261 0
M  V30 8753 C 828.2 -1.18307 1.21243 0
M  V30 8754 O 829.406 -1.1404 1.39265 0
M  V30 8755 H 825.781 -0.235941 0.714028 0
M  V30 8756 H 827.752 -0.0869446 2.98273 0
M  V30 8757 C 826.501 -1.86206 2.93637 0
M  V30 8758 H 825.824 -1.47975 3.71407 0
M  V30 8759 H 827.264 -2.4813 3.43813 0
M  V30 8760 C 825.723 -2.73084 1.97298 0
M  V30 8761 O 826.253 -3.72497 1.50361 0
M  V30 8762 N 824.459 -2.39571 1.64482 0
M  V30 8763 H 824.006 -1.5878 2.02846 0
M  V30 8764 H 823.964 -2.97976 1.00288 0
M  V30 8765 N 827.736 -1.57571 -0.0300757 0
M  V30 8766 C 828.666 -2.0953 -1.03051 0
M  V30 8767 C 829.647 -0.99761 -1.37774 0
M  V30 8768 O 830.832 -1.27279 -1.46676 0
M  V30 8769 C 827.962 -2.57385 -2.33174 0
M  V30 8770 C 826.916 -3.71409 -2.12696 0
M  V30 8771 C 826.242 -4.05467 -3.4857 0
M  V30 8772 C 827.542 -4.99877 -1.51396 0
M  V30 8773 H 829.236 -2.93367 -0.597999 0
M  V30 8774 H 826.782 -1.41127 -0.286203 0
M  V30 8775 H 828.735 -2.92355 -3.03491 0
M  V30 8776 H 827.459 -1.70629 -2.78484 0
M  V30 8777 H 826.118 -3.36786 -1.44813 0
M  V30 8778 H 825.766 -3.15779 -3.91526 0
M  V30 8779 H 825.466 -4.82269 -3.35694 0
M  V30 8780 H 826.99 -4.4297 -4.2025 0
M  V30 8781 H 828.404 -5.3281 -2.11629 0
M  V30 8782 H 826.801 -5.81283 -1.49098 0
M  V30 8783 H 827.871 -4.82522 -0.479676 0
M  V30 8784 N 829.214 0.302327 -1.54673 0
M  V30 8785 C 830.177 1.35592 -1.8479 0
M  V30 8786 C 831.177 1.43743 -0.72073 0
M  V30 8787 O 832.367 1.43402 -0.989017 0
M  V30 8788 C 829.499 2.74091 -2.02699 0
M  V30 8789 H 830.692 1.10132 -2.78946 0
M  V30 8790 H 828.245 0.538926 -1.46715 0
M  V30 8791 H 828.98 3.04775 -1.10826 0
M  V30 8792 H 828.765 2.69565 -2.8474 0
M  V30 8793 H 830.255 3.50272 -2.27374 0
M  V30 8794 N 830.692 1.47107 0.565454 0
M  V30 8795 C 831.917 1.57153 1.35343 0
M  V30 8796 C 832.342 0.219247 1.86818 0
M  V30 8797 O 831.7 -0.803539 1.62521 0
M  V30 8798 C 831.748 2.59387 2.50501 0
M  V30 8799 O 830.852 2.14086 3.52478 0
M  V30 8800 H 830.193 0.528209 0.402357 0
M  V30 8801 H 832.723 1.92821 0.684189 0
M  V30 8802 H 832.733 2.79546 2.97184 0
M  V30 8803 H 831.408 3.57579 2.12391 0
M  V30 8804 H 829.985 2.03991 3.12157 0
M  V30 8805 N 832.17 -0.811516 1.35101 0
M  V30 8806 C 833.4 -1.59749 1.31011 0
M  V30 8807 C 833.808 -1.88847 -0.115566 0
M  V30 8808 O 833.151 -1.48854 -1.07649 0
M  V30 8809 C 833.213 -2.95714 2.04435 0
M  V30 8810 C 832.877 -2.89456 3.53645 0
M  V30 8811 C 833.874 -2.63237 4.48333 0
M  V30 8812 C 831.559 -3.08728 3.96222 0
M  V30 8813 C 833.553 -2.56361 5.83573 0
M  V30 8814 C 831.24 -3.01475 5.3156 0
M  V30 8815 C 832.238 -2.75326 6.25048 0
M  V30 8816 O 831.926 -2.68026 7.57903 0
M  V30 8817 H 831.658 -0.502889 0.45175 0
M  V30 8818 H 834.212 -1.01687 1.78462 0
M  V30 8819 H 832.442 -3.55739 1.51613 0
M  V30 8820 H 834.131 -3.56816 1.93487 0
M  V30 8821 H 834.897 -2.48072 4.16756 0
M  V30 8822 H 830.776 -3.28094 3.23845 0
M  V30 8823 H 834.32 -2.35871 6.56514 0
M  V30 8824 H 830.217 -3.16197 5.62752 0
M  V30 8825 H 830.985 -2.8367 7.67772 0
M  V30 8826 N 833.648 -1.19017 -1.03309 0
M  V30 8827 C 834.878 -1.01387 -1.80012 0
M  V30 8828 C 835.286 0.440655 -1.83997 0
M  V30 8829 O 834.629 1.31786 -1.27977 0
M  V30 8830 C 834.691 -1.50171 -3.26633 0
M  V30 8831 C 834.355 -2.98213 -3.46292 0
M  V30 8832 C 835.352 -3.96009 -3.36857 0
M  V30 8833 C 833.037 -3.36812 -3.72643 0
M  V30 8834 C 835.031 -5.30399 -3.5349 0
M  V30 8835 C 832.718 -4.71363 -3.88922 0
M  V30 8836 C 833.716 -5.67966 -3.79347 0
M  V30 8837 O 833.404 -7.00079 -3.95151 0
M  V30 8838 H 833.136 -0.357899 -0.573484 0
M  V30 8839 H 835.69 -1.58171 -1.31039 0
M  V30 8840 H 833.92 -0.877586 -3.7661 0
M  V30 8841 H 835.609 -1.28814 -3.84918 0
M  V30 8842 H 836.375 -3.67534 -3.16455 0
M  V30 8843 H 832.254 -2.62175 -3.7919 0
M  V30 8844 H 835.798 -6.05786 -3.45933 0
M  V30 8845 H 831.695 -4.99536 -4.0882 0
M  V30 8846 H 832.463 -7.07092 -4.12266 0
M  V30 8847 N 835.127 1.22348 -0.993418 0
M  V30 8848 C 836.538 1.72893 -0.704616 0
M  V30 8849 C 836.889 1.80095 0.778483 0
M  V30 8850 O 836.014 1.4476 1.60853 0
M  V30 8851 C 836.609 3.14 -1.27237 0
M  V30 8852 C 835.168 3.61949 -1.03294 0
M  V30 8853 C 834.315 2.39816 -1.39225 0
M  V30 8854 H 837.266 1.07688 -1.16572 0
M  V30 8855 H 837.287 3.74886 -0.651212 0
M  V30 8856 H 836.799 3.08727 -2.3518 0
M  V30 8857 H 834.9 3.72588 0.0298329 0
M  V30 8858 H 835.013 4.48051 -1.69668 0
M  V30 8859 H 833.377 2.41448 -0.810849 0
M  V30 8860 H 834.16 2.37203 -2.48172 0
M  V30 8861 N 836.605 0.766683 1.37694 0
M  V30 8862 C 837.515 0.150158 2.34119 0
M  V30 8863 C 838.531 -0.685513 1.59927 0
M  V30 8864 O 839.707 -0.606616 1.92047 0
M  V30 8865 C 836.772 -0.722562 3.39087 0
M  V30 8866 C 835.833 0.128983 4.29106 0
M  V30 8867 C 835.066 -0.702178 5.29061 0
M  V30 8868 O 835.289 -1.93954 5.36412 0
M  V30 8869 O 834.223 -0.114056 6.01792 0
M  V30 8870 H 838.049 0.946829 2.88563 0
M  V30 8871 H 835.634 0.527765 1.39768 0
M  V30 8872 H 837.516 -1.22095 4.03325 0
M  V30 8873 H 836.191 -1.49751 2.86978 0
M  V30 8874 H 835.098 0.673612 3.67985 0
M  V30 8875 H 836.431 0.866892 4.84506 0
M  V30 8876 N 838.083 -1.48885 0.516809 0
M  V30 8877 C 839.494 -1.86557 0.0729921 0
M  V30 8878 C 839.845 -1.42767 -1.34581 0
M  V30 8879 O 838.97 -0.812514 -2.00567 0
M  V30 8880 C 839.565 -3.38567 0.125686 0
M  V30 8881 C 838.124 -3.75481 -0.262867 0
M  V30 8882 C 837.271 -2.72913 0.491281 0
M  V30 8883 H 840.222 -1.40978 0.728767 0
M  V30 8884 H 840.243 -3.74629 -0.665831 0
M  V30 8885 H 839.755 -3.70408 1.15842 0
M  V30 8886 H 837.856 -3.49251 -1.29824 0
M  V30 8887 H 837.969 -4.79052 0.067579 0
M  V30 8888 H 836.333 -2.54627 -0.0608525 0
M  V30 8889 H 837.116 -3.07599 1.5244 0
M  V30 8890 N 839.561 -0.251338 -1.55583 0
M  V30 8891 C 840.508 0.646337 -2.21565 0
M  V30 8892 C 841.478 1.16796 -1.18102 0
M  V30 8893 O 842.663 1.22162 -1.46564 0
M  V30 8894 C 839.803 1.83557 -2.92234 0
M  V30 8895 C 838.916 1.35006 -4.10363 0
M  V30 8896 C 838.051 2.4992 -4.68736 0
M  V30 8897 C 837.09 1.98253 -5.79105 0
M  V30 8898 N 836.227 3.06551 -6.31642 0
M  V30 8899 H 841.067 0.0769881 -2.97901 0
M  V30 8900 H 838.604 0.026238 -1.47077 0
M  V30 8901 H 840.562 2.53425 -3.31408 0
M  V30 8902 H 839.192 2.37733 -2.18364 0
M  V30 8903 H 838.244 0.545274 -3.76472 0
M  V30 8904 H 839.556 0.931435 -4.90026 0
M  V30 8905 H 838.71 3.27823 -5.10507 0
M  V30 8906 H 837.449 2.95086 -3.88298 0
M  V30 8907 H 836.454 1.18822 -5.36807 0
M  V30 8908 H 837.679 1.54051 -6.61396 0
M  V30 8909 H 835.625 3.51143 -5.54107 0
M  V30 8910 H 835.542 2.69033 -7.06511 0
M  V30 8911 H 836.81 3.84499 -6.78071 0
M  V30 8912 N 841.039 1.57585 0.0217189 0
M  V30 8913 C 842.316 1.80779 0.74687 0
M  V30 8914 C 842.696 0.851163 1.9318 0
M  V30 8915 O 842.044 -0.105039 2.28258 0
M  V30 8916 C 842.254 3.28696 1.17302 0
M  V30 8917 C 843.602 3.93871 1.58589 0
M  V30 8918 O 844.626 3.3289 1.2674 0
M  V30 8919 O 843.485 5.01254 2.1773 0
M  V30 8920 H 840.579 0.743666 0.361786 0
M  V30 8921 H 843.125 1.697 -0.00206785 0
M  V30 8922 H 841.897 3.89927 0.327453 0
M  V30 8923 H 841.52 3.44692 1.98174 0
M  V30 8924 N 842.517 -0.29412 1.54831 0
M  V30 8925 C 843.464 -1.36296 1.86258 0
M  V30 8926 C 844.434 -1.50061 0.712097 0
M  V30 8927 O 845.619 -1.64809 0.961381 0
M  V30 8928 C 842.759 -2.72187 2.12151 0
M  V30 8929 C 841.872 -2.66816 3.39755 0
M  V30 8930 C 841.007 -3.94747 3.55455 0
M  V30 8931 C 840.046 -3.838 4.76827 0
M  V30 8932 N 839.183 -5.03521 4.89296 0
M  V30 8933 H 844.023 -1.08796 2.7743 0
M  V30 8934 H 841.56 -0.526069 1.37371 0
M  V30 8935 H 843.518 -3.51225 2.25159 0
M  V30 8936 H 842.148 -2.97934 1.24237 0
M  V30 8937 H 841.2 -1.79605 3.3533 0
M  V30 8938 H 842.512 -2.5462 4.28917 0
M  V30 8939 H 841.666 -4.82223 3.68166 0
M  V30 8940 H 840.405 -4.09785 2.64438 0
M  V30 8941 H 839.41 -2.94708 4.64141 0
M  V30 8942 H 840.635 -3.70301 5.69258 0
M  V30 8943 H 838.581 -5.1901 4.01204 0
M  V30 8944 H 838.498 -4.93775 5.72471 0
M  V30 8945 H 839.766 -5.92629 5.06371 0
M  V30 8946 N 843.995 -1.47404 -0.557645 0
M  V30 8947 C 844.905 -1.62491 -1.69216 0
M  V30 8948 C 845.921 -0.507764 -1.66426 0
M  V30 8949 O 847.097 -0.775241 -1.85882 0
M  V30 8950 C 844.162 -1.63511 -3.05721 0
M  V30 8951 C 843.223 -2.86648 -3.1958 0
M  V30 8952 C 842.456 -2.87609 -4.49574 0
M  V30 8953 O 842.679 -1.97799 -5.35006 0
M  V30 8954 O 841.613 -3.79465 -4.67215 0
M  V30 8955 H 845.439 -2.58487 -1.59431 0
M  V30 8956 H 843.024 -1.30485 -0.7276 0
M  V30 8957 H 844.906 -1.66863 -3.86956 0
M  V30 8958 H 843.581 -0.706812 -3.15889 0
M  V30 8959 H 842.488 -2.8884 -2.37744 0
M  V30 8960 H 843.821 -3.7877 -3.14316 0
M  V30 8961 N 845.473 0.80434 -1.35529 0
M  V30 8962 C 846.436 1.89788 -1.28503 0
M  V30 8963 C 847.436 1.59601 -0.195983 0
M  V30 8964 O 848.626 1.68292 -0.449827 0
M  V30 8965 C 845.758 3.26255 -0.98847 0
M  V30 8966 H 846.951 1.97436 -2.25741 0
M  V30 8967 H 844.504 1.00046 -1.20086 0
M  V30 8968 H 845.239 3.24294 -0.0200541 0
M  V30 8969 H 845.024 3.49551 -1.77641 0
M  V30 8970 H 846.514 4.06298 -0.964975 0
M  V30 8971 N 846.951 1.19563 1.02676 0
M  V30 8972 C 848.198 0.999568 1.7611 0
M  V30 8973 C 848.526 -0.469432 1.8875 0
M  V30 8974 O 847.781 -1.36481 1.40255 0
M  V30 8975 C 848.08 1.61619 3.18769 0
M  V30 8976 C 847.746 3.11366 3.26132 0
M  V30 8977 C 846.408 3.52234 3.27848 0
M  V30 8978 C 848.76 4.07374 3.25109 0
M  V30 8979 C 846.088 4.87658 3.26201 0
M  V30 8980 C 848.44 5.42731 3.25002 0
M  V30 8981 C 847.104 5.83027 3.25017 0
M  V30 8982 H 846.374 0.365768 0.644434 0
M  V30 8983 H 849.021 1.48838 1.20497 0
M  V30 8984 H 847.326 1.04974 3.77476 0
M  V30 8985 H 849.023 1.43975 3.74262 0
M  V30 8986 H 845.613 2.78804 3.25525 0
M  V30 8987 H 849.797 3.76842 3.22961 0
M  V30 8988 H 845.053 5.18156 3.24537 0
M  V30 8989 H 849.227 6.16879 3.23161 0
M  V30 8990 H 846.854 6.87936 3.23494 0
M  V30 8991 N 848.429 -1.21819 0.999893 0
M  V30 8992 C 849.675 -1.91035 0.680701 0
M  V30 8993 C 850.008 -1.77582 -0.786021 0
M  V30 8994 O 849.283 -1.14917 -1.56921 0
M  V30 8995 C 849.566 -3.43013 1.0961 0
M  V30 8996 C 849.419 -3.65481 2.6219 0
M  V30 8997 C 850.738 -4.35204 0.654616 0
M  V30 8998 H 847.857 -0.693748 0.248763 0
M  V30 8999 H 850.499 -1.43555 1.24466 0
M  V30 9000 H 848.649 -3.83581 0.616253 0
M  V30 9001 H 850.321 -3.34273 3.17899 0
M  V30 9002 H 848.564 -3.09522 3.03938 0
M  V30 9003 H 849.235 -4.71945 2.86307 0
M  V30 9004 H 851.711 -4.0219 1.06688 0
M  V30 9005 H 850.587 -5.40198 0.973492 0
M  V30 9006 H 850.848 -4.3986 -0.444458 0
M  V30 9007 N 849.908 -0.773975 -1.37286 0
M  V30 9008 C 851.324 -0.45386 -1.53011 0
M  V30 9009 C 851.524 1.03018 -1.73175 0
M  V30 9010 O 850.58 1.81597 -1.75438 0
M  V30 9011 C 851.893 -1.27087 -2.72524 0
M  V30 9012 C 853.441 -1.26299 -2.86387 0
M  V30 9013 C 853.916 -2.0634 -4.08886 0
M  V30 9014 N 855.407 -2.03706 -4.16003 0
M  V30 9015 C 856.142 -2.62418 -5.09828 0
M  V30 9016 N 855.638 -3.29926 -6.09197 0
M  V30 9017 N 857.431 -2.52236 -5.02328 0
M  V30 9018 H 849.582 -1.73551 -1.22449 0
M  V30 9019 H 851.845 -0.736874 -0.596423 0
M  V30 9020 H 851.551 -2.32263 -2.64096 0
M  V30 9021 H 851.425 -0.90157 -3.66267 0
M  V30 9022 H 853.812 -0.219213 -2.94285 0
M  V30 9023 H 853.893 -1.67195 -1.93596 0
M  V30 9024 H 853.537 -3.10741 -4.01749 0
M  V30 9025 H 853.467 -1.62825 -5.00795 0
M  V30 9026 H 855.958 -1.54559 -3.44848 0
M  V30 9027 H 856.271 -3.72095 -6.77322 0
M  V30 9028 H 854.616 -3.34026 -6.09469 0
M  V30 9029 H 857.807 -1.99108 -4.23643 0
M  V30 9030 H 857.98 -2.98286 -5.75265 0
M  V30 9031 N 851.386 1.48609 -0.524698 0
M  V30 9032 C 852.611 2.07398 0.00952139 0
M  V30 9033 C 853.036 1.37939 1.27884 0
M  V30 9034 O 852.394 0.443633 1.75788 0
M  V30 9035 C 852.442 3.59916 0.221956 0
M  V30 9036 O 851.546 3.91647 1.29175 0
M  V30 9037 H 850.887 0.662981 -0.0367729 0
M  V30 9038 H 853.417 1.91092 -0.7311 0
M  V30 9039 H 853.427 4.05552 0.446236 0
M  V30 9040 H 852.102 4.09876 -0.705306 0
M  V30 9041 H 850.679 3.57796 1.05055 0
M  V30 9042 N 852.864 0.259585 1.55447 0
M  V30 9043 C 853.794 -0.62852 2.24882 0
M  V30 9044 C 854.775 -1.17128 1.23349 0
M  V30 9045 O 855.96 -1.20829 1.52033 0
M  V30 9046 C 853.09 -1.81983 2.95803 0
M  V30 9047 C 852.044 -1.40929 4.04132 0
M  V30 9048 C 851.37 -2.68246 4.62545 0
M  V30 9049 C 852.67 -0.570956 5.1917 0
M  V30 9050 H 854.364 -0.0495021 2.99359 0
M  V30 9051 H 851.91 -0.0223688 1.43983 0
M  V30 9052 H 853.863 -2.44689 3.43082 0
M  V30 9053 H 852.587 -2.42444 2.18835 0
M  V30 9054 H 851.246 -0.805519 3.57641 0
M  V30 9055 H 850.894 -3.26931 3.82263 0
M  V30 9056 H 850.594 -2.41495 5.35681 0
M  V30 9057 H 852.118 -3.31827 5.12565 0
M  V30 9058 H 853.532 -1.10262 5.62597 0
M  V30 9059 H 851.929 -0.398979 5.98772 0
M  V30 9060 H 852.999 0.413918 4.8313 0
M  V30 9061 N 854.342 -1.57594 -0.0133615 0
M  V30 9062 C 855.588 -1.90262 -0.702019 0
M  V30 9063 C 855.921 -0.859219 -1.74158 0
M  V30 9064 O 855.196 0.123778 -1.94106 0
M  V30 9065 C 855.479 -3.3354 -1.35732 0
M  V30 9066 C 855.332 -4.48586 -0.330208 0
M  V30 9067 C 856.651 -3.76004 -2.28712 0
M  V30 9068 H 853.77 -0.691943 -0.253739 0
M  V30 9069 H 856.412 -1.89967 0.0351894 0
M  V30 9070 H 854.562 -3.33921 -1.98567 0
M  V30 9071 H 856.234 -4.6034 0.297433 0
M  V30 9072 H 854.477 -4.32394 0.348926 0
M  V30 9073 H 855.148 -5.45762 -0.827508 0
M  V30 9074 H 857.624 -3.77089 -1.75906 0
M  V30 9075 H 856.5 -4.77032 -2.71535 0
M  V30 9076 H 856.761 -3.09129 -3.16056 0
M  V30 9077 N 855.82 0.285905 -1.54985 0
M  V30 9078 C 857.05 1.03626 -1.78732 0
M  V30 9079 C 857.458 1.80896 -0.554377 0
M  V30 9080 O 856.801 1.77161 0.48578 0
M  V30 9081 C 856.863 2.05185 -2.95193 0
M  V30 9082 C 856.527 1.46973 -4.32722 0
M  V30 9083 C 857.524 0.891986 -5.12191 0
M  V30 9084 C 855.209 1.50081 -4.79355 0
M  V30 9085 C 857.203 0.353078 -6.36421 0
M  V30 9086 C 854.89 0.958037 -6.03544 0
M  V30 9087 C 855.888 0.385157 -6.81913 0
M  V30 9088 O 855.576 -0.149341 -8.03761 0
M  V30 9089 H 855.308 0.312416 -0.599477 0
M  V30 9090 H 857.862 0.326067 -2.02795 0
M  V30 9091 H 856.092 2.79928 -2.66791 0
M  V30 9092 H 857.781 2.66244 -3.0638 0
M  V30 9093 H 858.547 0.860762 -4.77301 0
M  V30 9094 H 854.426 1.9361 -4.18373 0
M  V30 9095 H 857.97 -0.0947181 -6.97536 0
M  V30 9096 H 853.867 0.986458 -6.37918 0
M  V30 9097 H 854.635 -0.0374719 -8.18491 0
M  V30 9098 N 857.298 1.47698 0.54982 0
M  V30 9099 C 858.526 1.5833 1.33188 0
M  V30 9100 C 858.941 0.236193 1.87317 0
M  V30 9101 O 858.298 -0.77167 1.65383 0
M  V30 9102 C 858.349 2.61438 2.49664 0
M  V30 9103 O 858.07 3.9092 1.97771 0
M  V30 9104 C 859.571 2.82324 3.41772 0
M  V30 9105 H 856.791 0.53443 0.405741 0
M  V30 9106 H 859.335 1.93375 0.665309 0
M  V30 9107 H 857.49 2.29307 3.12245 0
M  V30 9108 H 857.904 4.47323 2.73866 0
M  V30 9109 H 859.378 3.58316 4.19897 0
M  V30 9110 H 859.855 1.90416 3.95776 0
M  V30 9111 H 860.461 3.15682 2.85 0
M  V30 9112 N 858.776 -0.797141 1.35954 0
M  V30 9113 C 860.187 -1.37179 1.26644 0
M  V30 9114 C 860.538 -1.9596 -0.0971046 0
M  V30 9115 O 859.663 -1.91994 -0.998355 0
M  V30 9116 C 860.258 -2.49395 2.2932 0
M  V30 9117 C 858.817 -3.02697 2.23722 0
M  V30 9118 C 857.964 -1.75721 2.14517 0
M  V30 9119 H 860.915 -0.599407 1.46945 0
M  V30 9120 H 860.936 -3.28204 1.92515 0
M  V30 9121 H 860.448 -2.06584 3.2855 0
M  V30 9122 H 858.549 -3.49948 1.27934 0
M  V30 9123 H 858.662 -3.60036 3.16087 0
M  V30 9124 H 857.026 -1.97649 1.60646 0
M  V30 9125 H 857.809 -1.35049 3.15621 0
M  V30 9126 N 860.254 -1.20106 -1.0204 0
M  V30 9127 C 861.531 -0.918029 -1.72718 0
M  V30 9128 C 861.911 0.574163 -2.03142 0
M  V30 9129 O 861.259 1.53476 -1.69285 0
M  V30 9130 C 861.469 -1.78698 -2.9978 0
M  V30 9131 C 862.817 -2.02648 -3.7312 0
M  V30 9132 O 863.841 -1.75919 -3.09727 0
M  V30 9133 O 862.7 -2.47767 -4.87107 0
M  V30 9134 H 859.794 -0.342904 -0.752559 0
M  V30 9135 H 862.34 -1.30961 -1.07923 0
M  V30 9136 H 861.112 -2.79757 -2.7359 0
M  V30 9137 H 860.735 -1.39522 -3.72316 0
M  V30 9138 N 861.732 1.21287 -1.00634 0
M  V30 9139 C 862.962 1.94103 -0.70765 0
M  V30 9140 C 863.37 1.74382 0.733991 0
M  V30 9141 O 862.713 1.04843 1.50843 0
M  V30 9142 C 862.775 3.46705 -0.950581 0
M  V30 9143 C 862.439 3.90176 -2.37932 0
M  V30 9144 C 863.436 3.96769 -3.35961 0
M  V30 9145 C 861.121 4.22453 -2.71733 0
M  V30 9146 C 863.115 4.35034 -4.65858 0
M  V30 9147 C 860.802 4.60394 -4.01846 0
M  V30 9148 C 861.8 4.66656 -4.9872 0
M  V30 9149 O 861.488 5.03732 -6.26505 0
M  V30 9150 H 861.22 0.62405 -0.259881 0
M  V30 9151 H 863.774 1.55015 -1.34757 0
M  V30 9152 H 862.004 3.85868 -0.253492 0
M  V30 9153 H 863.693 4.00741 -0.645069 0
M  V30 9154 H 864.459 3.72009 -3.11182 0
M  V30 9155 H 860.338 4.16776 -1.97025 0
M  V30 9156 H 863.882 4.39836 -5.4147 0
M  V30 9157 H 859.779 4.84609 -4.26409 0
M  V30 9158 H 860.547 5.21761 -6.30641 0
M  V30 9159 N 863.21 0.781244 1.36873 0
M  V30 9160 C 864.487 0.274217 1.93668 0
M  V30 9161 C 864.867 -1.2323 1.71399 0
M  V30 9162 O 864.215 -2.01993 1.06822 0
M  V30 9163 C 864.425 0.657939 3.42742 0
M  V30 9164 C 865.773 0.63307 4.19854 0
M  V30 9165 O 866.797 0.597909 3.51146 0
M  V30 9166 O 865.656 0.668636 5.42394 0
M  V30 9167 H 862.75 0.0658059 0.824378 0
M  V30 9168 H 865.296 0.863238 1.46104 0
M  V30 9169 H 864.068 1.69728 3.52573 0
M  V30 9170 H 863.691 0.0423678 3.97577 0
M  V30 9171 N 864.689 -1.48329 0.532571 0
M  V30 9172 C 865.914 -2.074 0.00147755 0
M  V30 9173 C 866.339 -1.38615 -1.27151 0
M  V30 9174 O 865.697 -0.452949 -1.75551 0
M  V30 9175 C 865.745 -3.60029 -0.202866 0
M  V30 9176 O 864.849 -3.92327 -1.27097 0
M  V30 9177 H 864.19 -0.662777 0.0402883 0
M  V30 9178 H 866.72 -1.90701 0.741224 0
M  V30 9179 H 866.73 -4.05783 -0.424722 0
M  V30 9180 H 865.405 -4.09496 0.727033 0
M  V30 9181 H 863.982 -3.58348 -1.03156 0
M  V30 9182 N 866.167 -0.267825 -1.55308 0
M  V30 9183 C 867.414 0.351036 -1.99434 0
M  V30 9184 C 867.742 1.56406 -1.15618 0
M  V30 9185 O 866.997 1.94548 -0.212045 0
M  V30 9186 C 867.296 0.784247 -3.48689 0
M  V30 9187 C 866.962 -0.323328 -4.49739 0
M  V30 9188 C 865.624 -0.627467 -4.77091 0
M  V30 9189 C 867.976 -1.07002 -5.10098 0
M  V30 9190 C 865.304 -1.682 -5.62073 0
M  V30 9191 C 867.656 -2.11422 -5.96224 0
M  V30 9192 C 866.32 -2.42479 -6.21901 0
M  V30 9193 H 865.59 0.128453 -0.729781 0
M  V30 9194 H 868.237 -0.380018 -1.87692 0
M  V30 9195 H 866.542 1.59485 -3.57871 0
M  V30 9196 H 868.239 1.2737 -3.80234 0
M  V30 9197 H 864.829 -0.0761528 -4.28532 0
M  V30 9198 H 869.013 -0.848302 -4.88996 0
M  V30 9199 H 864.269 -1.92772 -5.80215 0
M  V30 9200 H 868.443 -2.69759 -6.4203 0
M  V30 9201 H 866.07 -3.24328 -6.87543 0
M  V30 9202 N 867.645 1.57599 0.00500368 0
M  V30 9203 C 868.873 1.94626 0.702016 0
M  V30 9204 C 869.288 0.86953 1.67585 0
M  V30 9205 O 868.645 -0.15199 1.81866 0
M  V30 9206 C 868.696 3.31658 1.43824 0
M  V30 9207 O 868.417 4.35197 0.503467 0
M  V30 9208 C 869.918 3.83114 2.23021 0
M  V30 9209 H 867.138 0.641785 0.195841 0
M  V30 9210 H 869.682 2.04451 -0.0446287 0
M  V30 9211 H 867.837 3.23156 2.13655 0
M  V30 9212 H 868.251 5.1444 1.02235 0
M  V30 9213 H 869.725 4.81438 2.7004 0
M  V30 9214 H 870.202 3.15559 3.05482 0
M  V30 9215 H 870.808 3.94775 1.58216 0
M  V30 9216 N 869.123 -0.277682 1.55134 0
M  V30 9217 C 870.053 -1.34742 1.90701 0
M  V30 9218 C 871.034 -1.51757 0.768354 0
M  V30 9219 O 872.219 -1.64879 1.02609 0
M  V30 9220 C 869.349 -2.70775 2.17481 0
M  V30 9221 C 868.303 -2.68497 3.33307 0
M  V30 9222 C 867.629 -4.08037 3.45557 0
M  V30 9223 C 868.929 -2.28178 4.69821 0
M  V30 9224 H 870.623 -1.05224 2.803 0
M  V30 9225 H 868.169 -0.504738 1.34864 0
M  V30 9226 H 870.122 -3.45719 2.40949 0
M  V30 9227 H 868.846 -3.01867 1.24676 0
M  V30 9228 H 867.505 -1.9601 3.09799 0
M  V30 9229 H 867.153 -4.36344 2.50226 0
M  V30 9230 H 866.853 -4.07409 4.23429 0
M  V30 9231 H 868.377 -4.84726 3.71312 0
M  V30 9232 H 869.791 -2.92843 4.92865 0
M  V30 9233 H 868.188 -2.3872 5.50575 0
M  V30 9234 H 869.258 -1.23308 4.6896 0
M  V30 9235 N 870.601 -1.47988 -0.541979 0
M  V30 9236 C 871.878 -1.45878 -1.30303 0
M  V30 9237 C 872.258 -0.163931 -2.10463 0
M  V30 9238 O 871.606 0.854479 -2.11922 0
M  V30 9239 C 871.816 -2.71359 -2.19466 0
M  V30 9240 C 873.164 -3.19199 -2.79995 0
M  V30 9241 O 874.188 -2.72193 -2.2976 0
M  V30 9242 O 873.047 -4.00961 -3.71339 0
M  V30 9243 H 870.141 -0.582043 -0.587498 0
M  V30 9244 H 872.687 -1.60207 -0.559623 0
M  V30 9245 H 871.459 -3.57122 -1.59936 0
M  V30 9246 H 871.082 -2.59692 -3.01075 0
M  V30 9247 N 872.079 0.78992 -1.36375 0
M  V30 9248 C 873.304 1.58389 -1.33895 0
M  V30 9249 C 873.729 1.8794 0.0774934 0
M  V30 9250 O 873.087 1.4785 1.0493 0
M  V30 9251 C 873.135 2.88201 -2.16732 0
M  V30 9252 O 872.239 3.81778 -1.55946 0
M  V30 9253 H 871.58 0.480471 -0.458305 0
M  V30 9254 H 874.11 0.979119 -1.79651 0
M  V30 9255 H 874.12 3.37475 -2.29292 0
M  V30 9256 H 872.795 2.66019 -3.19698 0
M  V30 9257 H 871.372 3.40371 -1.52323 0
M  V30 9258 N 873.557 1.20646 1.01402 0
M  V30 9259 C 874.787 1.04238 1.78376 0
M  V30 9260 C 875.195 -0.411327 1.84675 0
M  V30 9261 O 874.538 -1.29734 1.30057 0
M  V30 9262 C 874.6 1.55349 3.24202 0
M  V30 9263 C 874.264 3.03684 3.41504 0
M  V30 9264 C 875.261 4.01318 3.30514 0
M  V30 9265 C 872.946 3.42698 3.67237 0
M  V30 9266 C 874.94 5.35956 3.45007 0
M  V30 9267 C 872.627 4.77491 3.81373 0
M  V30 9268 C 873.625 5.73929 3.70263 0
M  V30 9269 O 873.313 7.06277 3.83963 0
M  V30 9270 H 873.045 0.366978 0.567718 0
M  V30 9271 H 875.599 1.60235 1.28506 0
M  V30 9272 H 873.829 0.93739 3.75166 0
M  V30 9273 H 875.518 1.34921 3.8282 0
M  V30 9274 H 876.284 3.72522 3.10568 0
M  V30 9275 H 872.163 2.68175 3.74971 0
M  V30 9276 H 875.707 6.11212 3.36252 0
M  V30 9277 H 871.604 5.05977 4.00821 0
M  V30 9278 H 872.372 7.13561 4.00965 0
M  V30 9279 N 875.035 -1.20752 1.01276 0
M  V30 9280 C 876.263 -1.94006 0.718976 0
M  V30 9281 C 876.678 -1.74544 -0.719711 0
M  V30 9282 O 876.035 -1.05697 -1.48776 0
M  V30 9283 C 876.086 -3.46208 1.04031 0
M  V30 9284 O 875.807 -3.65031 2.42248 0
M  V30 9285 C 877.308 -4.36614 0.767032 0
M  V30 9286 H 874.528 -0.616743 0.264327 0
M  V30 9287 H 877.072 -1.53352 1.3529 0
M  V30 9288 H 875.227 -3.84756 0.451852 0
M  V30 9289 H 875.641 -4.59054 2.53712 0
M  V30 9290 H 877.115 -5.42076 1.04198 0
M  V30 9291 H 877.592 -4.38182 -0.298851 0
M  V30 9292 H 878.198 -4.03723 1.33746 0
M  V30 9293 N 876.513 -0.788492 -1.36457 0
M  V30 9294 C 877.759 -0.370067 -2.00005 0
M  V30 9295 C 878.114 1.0464 -1.61456 0
M  V30 9296 O 877.407 1.71277 -0.85876 0
M  V30 9297 C 877.601 -0.470255 -3.54293 0
M  V30 9298 C 877.43 -1.89492 -4.07827 0
M  V30 9299 C 876.2 -2.51932 -4.38016 0
M  V30 9300 C 878.398 -2.85692 -4.2765 0
M  V30 9301 N 876.38 -3.85997 -4.77368 0
M  V30 9302 C 877.751 -4.04588 -4.69796 0
M  V30 9303 C 879.806 -2.8276 -4.09818 0
M  V30 9304 C 878.509 -5.2096 -4.95977 0
M  V30 9305 C 880.535 -3.98319 -4.37145 0
M  V30 9306 C 879.897 -5.1596 -4.79547 0
M  V30 9307 H 875.996 -0.182813 -0.760331 0
M  V30 9308 H 878.58 -1.02589 -1.6548 0
M  V30 9309 H 876.751 0.155476 -3.88089 0
M  V30 9310 H 878.483 -0.0281643 -4.0469 0
M  V30 9311 H 875.238 -2.0342 -4.27688 0
M  V30 9312 H 875.662 -4.54971 -5.01329 0
M  V30 9313 H 880.304 -1.92971 -3.76194 0
M  V30 9314 H 878.022 -6.11335 -5.28483 0
M  V30 9315 H 881.608 -3.97411 -4.24919 0
M  V30 9316 H 880.488 -6.03893 -5.00283 0
M  V30 9317 N 877.991 1.48044 -0.54043 0
M  V30 9318 C 879.402 1.86418 -0.102662 0
M  V30 9319 C 879.753 1.4489 1.32293 0
M  V30 9320 O 878.878 0.844319 1.99249 0
M  V30 9321 C 879.473 3.38324 -0.179533 0
M  V30 9322 C 878.032 3.75852 0.203098 0
M  V30 9323 C 877.179 2.72097 -0.534637 0
M  V30 9324 H 880.13 1.398 -0.751103 0
M  V30 9325 H 880.151 3.75641 0.606147 0
M  V30 9326 H 879.663 3.68518 -1.21721 0
M  V30 9327 H 877.764 3.51272 1.24252 0
M  V30 9328 H 877.877 4.78884 -0.143784 0
M  V30 9329 H 876.241 2.54692 0.0203358 0
M  V30 9330 H 877.024 3.05135 -1.57314 0
M  V30 9331 N 879.47 0.276058 1.55163 0
M  V30 9332 C 880.417 -0.611006 2.22565 0
M  V30 9333 C 881.387 -1.14902 1.19945 0
M  V30 9334 O 882.572 -1.19815 1.48489 0
M  V30 9335 C 879.712 -1.78885 2.95117 0
M  V30 9336 C 878.825 -1.2846 4.12458 0
M  V30 9337 C 877.96 -2.42432 4.72652 0
M  V30 9338 C 876.999 -1.89015 5.82185 0
M  V30 9339 N 876.136 -2.96463 6.36439 0
M  V30 9340 H 880.976 -0.0295849 2.97985 0
M  V30 9341 H 878.513 -0.00283607 1.471 0
M  V30 9342 H 880.471 -2.48121 3.35398 0
M  V30 9343 H 879.101 -2.34229 2.22119 0
M  V30 9344 H 878.153 -0.485312 3.77292 0
M  V30 9345 H 879.465 -0.853358 4.91446 0
M  V30 9346 H 878.619 -3.19659 5.15658 0
M  V30 9347 H 877.358 -2.88872 3.92943 0
M  V30 9348 H 876.363 -1.10267 5.38629 0
M  V30 9349 H 877.588 -1.43509 6.63763 0
M  V30 9350 H 875.534 -3.42283 5.59623 0
M  V30 9351 H 875.451 -2.57759 7.10701 0
M  V30 9352 H 876.719 -3.73663 6.84103 0
M  V30 9353 N 880.948 -1.576 0.00335426 0
M  V30 9354 C 881.858 -2.12067 -1.00322 0
M  V30 9355 C 882.874 -1.06672 -1.37467 0
M  V30 9356 O 884.05 -1.38592 -1.46131 0
M  V30 9357 C 881.115 -2.61593 -2.27531 0
M  V30 9358 C 880.176 -3.81602 -1.96668 0
M  V30 9359 C 879.409 -4.28756 -3.17811 0
M  V30 9360 O 879.632 -3.75222 -4.2961 0
M  V30 9361 O 878.566 -5.20877 -3.01613 0
M  V30 9362 H 882.392 -2.98299 -0.570199 0
M  V30 9363 H 879.977 -1.47835 -0.215682 0
M  V30 9364 H 881.859 -2.93631 -3.02256 0
M  V30 9365 H 880.534 -1.78457 -2.70065 0
M  V30 9366 H 879.441 -3.54531 -1.19408 0
M  V30 9367 H 880.774 -4.65822 -1.58968 0
M  V30 9368 N 882.426 0.269451 -1.5528 0
M  V30 9369 C 883.389 1.31642 -1.87625 0
M  V30 9370 C 884.389 1.42182 -0.751058 0
M  V30 9371 O 885.579 1.41272 -1.01921 0
M  V30 9372 C 882.711 2.6973 -2.08467 0
M  V30 9373 H 883.904 1.0419 -2.81219 0
M  V30 9374 H 881.457 0.507685 -1.47825 0
M  V30 9375 H 882.192 3.02356 -1.17266 0
M  V30 9376 H 881.977 2.63465 -2.90394 0
M  V30 9377 H 883.467 3.4537 -2.34753 0
M  V30 9378 N 883.904 1.48273 0.534124 0
M  V30 9379 C 884.837 1.57053 1.65559 0
M  V30 9380 C 885.815 0.421213 1.5705 0
M  V30 9381 O 886.999 0.632242 1.77581 0
M  V30 9382 C 884.126 1.49465 3.03937 0
M  V30 9383 C 883.172 2.69186 3.30819 0
M  V30 9384 S 884.005 4.31192 3.17543 0
M  V30 9385 C 885.161 4.26197 4.58375 0
M  V30 9386 H 885.394 2.51927 1.57861 0
M  V30 9387 H 882.927 1.36755 0.716763 0
M  V30 9388 H 884.885 1.45775 3.83745 0
M  V30 9389 H 883.546 0.559357 3.09079 0
M  V30 9390 H 882.739 2.60005 4.31756 0
M  V30 9391 H 882.341 2.70118 2.58674 0
M  V30 9392 H 884.633 3.95874 5.49809 0
M  V30 9393 H 885.576 5.27299 4.72611 0
M  V30 9394 H 885.984 3.56723 4.37503 0
M  V30 9395 N 885.382 -0.782676 1.36792 0
M  V30 9396 C 886.33 -1.91698 1.31737 0
M  V30 9397 C 887.324 -1.68118 0.207994 0
M  V30 9398 O 888.53 -1.76042 0.375393 0
M  V30 9399 H 884.905 -0.630215 0.410284 0
M  V30 9400 H 886.876 -1.93078 2.27516 0
M  V30 9401 C 885.625 -3.28816 1.13029 0
M  V30 9402 H 884.948 -3.4753 1.97643 0
M  V30 9403 H 886.388 -4.08515 1.13541 0
M  V30 9404 C 884.847 -3.36497 -0.1647 0
M  V30 9405 O 885.377 -3.84822 -1.15216 0
M  V30 9406 N 883.583 -2.89828 -0.211678 0
M  V30 9407 H 883.13 -2.50693 0.59252 0
M  V30 9408 H 883.088 -2.95349 -1.07779 0
M  V30 9409 N 886.86 -1.21182 -1.00761 0
M  V30 9410 C 888.106 -1.02898 -1.74756 0
M  V30 9411 C 888.439 0.436774 -1.89225 0
M  V30 9412 O 887.714 1.32415 -1.42466 0
M  V30 9413 C 887.997 -1.72372 -3.16164 0
M  V30 9414 C 887.85 -3.2645 -3.09435 0
M  V30 9415 C 889.169 -1.46415 -4.15031 0
M  V30 9416 H 886.288 -0.375214 -0.634337 0
M  V30 9417 H 888.93 -1.49321 -1.17487 0
M  V30 9418 H 887.08 -1.32906 -3.65059 0
M  V30 9419 H 888.752 -3.75269 -2.68274 0
M  V30 9420 H 886.995 -3.56889 -2.46603 0
M  V30 9421 H 887.666 -3.70226 -4.09435 0
M  V30 9422 H 890.142 -1.80671 -3.7483 0
M  V30 9423 H 889.018 -1.97544 -5.12121 0
M  V30 9424 H 889.279 -0.39361 -4.40344 0
M  V30 9425 N 888.338 1.20213 -1.01915 0
M  V30 9426 C 889.27 2.2251 -0.549725 0
M  V30 9427 C 890.283 1.58558 0.369235 0
M  V30 9428 O 891.472 1.77715 0.167176 0
M  V30 9429 C 888.572 3.38189 0.219432 0
M  V30 9430 C 887.745 4.31729 -0.702066 0
M  V30 9431 C 886.804 5.26196 0.0199624 0
M  V30 9432 O 885.83 5.65993 -0.60339 0
M  V30 9433 N 887.032 5.65895 1.29397 0
M  V30 9434 H 889.797 2.63412 -1.42948 0
M  V30 9435 H 887.358 1.3478 -0.896987 0
M  V30 9436 H 889.35 3.98392 0.711763 0
M  V30 9437 H 887.92 2.96156 1.00051 0
M  V30 9438 H 887.14 3.69455 -1.37466 0
M  V30 9439 H 888.428 4.91145 -1.3287 0
M  V30 9440 H 887.826 5.35579 1.8213 0
M  V30 9441 H 886.383 6.28395 1.73098 0
M  V30 9442 N 889.816 0.795718 1.36037 0
M  V30 9443 C 891.044 0.383153 2.03321 0
M  V30 9444 C 891.459 -1.00246 1.59988 0
M  V30 9445 O 890.816 -1.64406 0.792265 0
M  V30 9446 C 890.867 0.444467 3.58757 0
M  V30 9447 O 890.588 1.77544 4.00512 0
M  V30 9448 C 892.089 0.0233291 4.43294 0
M  V30 9449 H 889.309 0.157061 0.652359 0
M  V30 9450 H 891.853 1.07632 1.73884 0
M  V30 9451 H 890.008 -0.200341 3.86882 0
M  V30 9452 H 890.422 1.73065 4.95125 0
M  V30 9453 H 891.896 0.117361 5.51875 0
M  V30 9454 H 892.373 -1.03007 4.2695 0
M  V30 9455 H 892.979 0.64087 4.20444 0
M  V30 9456 N 891.294 -1.47756 0.548274 0
M  V30 9457 C 892.54 -2.02789 0.0209265 0
M  V30 9458 C 892.873 -1.42268 -1.32187 0
M  V30 9459 O 892.148 -0.575001 -1.85806 0
M  V30 9460 C 892.431 -3.60007 -0.0816674 0
M  V30 9461 C 892.284 -4.30977 1.28759 0
M  V30 9462 C 893.603 -4.32777 -0.799515 0
M  V30 9463 H 890.722 -0.736944 0.00907884 0
M  V30 9464 H 893.364 -1.76282 0.708839 0
M  V30 9465 H 891.514 -3.82722 -0.667537 0
M  V30 9466 H 893.186 -4.19629 1.91597 0
M  V30 9467 H 891.429 -3.9168 1.86466 0
M  V30 9468 H 892.1 -5.39488 1.16861 0
M  V30 9469 H 894.576 -4.15001 -0.30216 0
M  V30 9470 H 893.452 -5.42431 -0.840239 0
M  V30 9471 H 893.713 -4.01358 -1.85375 0
M  V30 9472 O 892.811 -0.426279 -1.55773 0
M  V30 9473 H 893.502 0.110126 -1.93387 0
M  V30 END ATOM
M  V30 BEGIN BOND
M  V30 END BOND
M  V30 END CTAB
M  END
$$$$
