drugbank_target|Q16760 Diacylglycerol kinase delta (DB00144)
 OpenBabel12092120083D

  0  0  0     0  0            999 V3000
M  V30 BEGIN CTAB
M  V30 COUNTS 18840 19027 0 0 0
M  V30 BEGIN ATOM
M  V30 1 H -0.908 1.98254 -0.117106 0
M  V30 2 N 0 1.576 0 0
M  V30 3 C 0.933 2.03868 1.02534 0
M  V30 4 C 1.911 0.928543 1.3348 0
M  V30 5 O 3.095 1.19667 1.45644 0
M  V30 6 C 0.222 2.43627 2.35294 0
M  V30 7 C -0.732 3.65373 2.2001 0
M  V30 8 S 0.101 5.13292 1.52614 0
M  V30 9 C 1.257 5.56322 2.86805 0
M  V30 10 H 1.49 2.90518 0.631377 0
M  V30 11 H -0.977 1.52953 0.210867 0
M  V30 12 H 0.981 2.67203 3.11629 0
M  V30 13 H -0.358 1.57376 2.7183 0
M  V30 14 H -1.165 3.90944 3.18086 0
M  V30 15 H -1.563 3.418 1.51819 0
M  V30 16 H 0.729 5.58782 3.83104 0
M  V30 17 H 1.672 6.56266 2.65933 0
M  V30 18 H 2.08 4.83886 2.90714 0
M  V30 19 N 1.4781 -0.272755 1.55222 0
M  V30 20 C 2.4411 -1.32041 1.87344 0
M  V30 21 C 3.4411 -1.42342 0.74803 0
M  V30 22 O 4.6311 -1.41488 1.0162 0
M  V30 23 C 1.7631 -2.70173 2.07893 0
M  V30 24 H 2.9561 -1.04789 2.80997 0
M  V30 25 H 0.5091 -0.51083 1.47717 0
M  V30 26 H 1.2441 -3.02605 1.16622 0
M  V30 27 H 1.0291 -2.64082 2.89833 0
M  V30 28 H 2.5191 -3.45869 2.34017 0
M  V30 29 N 2.9562 -1.48159 -0.537278 0
M  V30 30 C 3.9192 -1.61665 -1.62472 0
M  V30 31 C 4.9192 -0.490395 -1.5314 0
M  V30 32 O 6.1092 -0.755998 -1.5694 0
M  V30 33 C 3.2412 -1.57997 -3.02076 0
M  V30 34 H 4.4342 -2.58621 -1.51839 0
M  V30 35 H 1.9872 -1.36647 -0.758771 0
M  V30 36 H 2.7222 -0.624913 -3.18222 0
M  V30 37 H 2.5072 -2.39755 -3.10258 0
M  V30 38 H 3.9972 -1.70627 -3.81151 0
M  V30 39 N 4.4343 0.785586 -1.36625 0
M  V30 40 C 5.3973 1.87999 -1.31107 0
M  V30 41 C 6.3973 1.59316 -0.217959 0
M  V30 42 O 7.5873 1.67656 -0.472977 0
M  V30 43 C 4.7193 3.24861 -1.03334 0
M  V30 44 H 5.9123 1.94307 -2.2844 0
M  V30 45 H 3.4653 0.983813 -1.21453 0
M  V30 46 H 4.2003 3.24235 -0.0647432 0
M  V30 47 H 3.9853 3.4707 -1.82441 0
M  V30 48 H 5.4753 4.04929 -1.02088 0
M  V30 49 N 5.9124 1.20967 1.01018 0
M  V30 50 C 6.8754 0.965918 2.07853 0
M  V30 51 C 7.8754 -0.0610545 1.60684 0
M  V30 52 O 9.0654 0.175681 1.73312 0
M  V30 53 C 6.1974 0.455513 3.37843 0
M  V30 54 H 7.3904 1.91365 2.3091 0
M  V30 55 H 4.9434 1.02594 1.17916 0
M  V30 56 H 5.6784 -0.497381 3.20463 0
M  V30 57 H 5.4634 1.19622 3.73407 0
M  V30 58 H 6.9534 0.304667 4.16487 0
M  V30 59 N 7.3905 -1.2043 1.01659 0
M  V30 60 C 8.6385 -1.89423 0.704522 0
M  V30 61 C 8.9595 -1.79231 -0.768197 0
M  V30 62 O 8.2295 -1.1947 -1.55254 0
M  V30 63 H 6.8095 -0.701178 0.257602 0
M  V30 64 H 9.4715 -1.4626 1.28818 0
M  V30 65 H 8.5675 -2.96052 0.987916 0
M  V30 66 N 8.8686 -0.792821 -1.36206 0
M  V30 67 C 9.8316 -0.199459 -2.2833 0
M  V30 68 C 10.8316 0.605189 -1.48977 0
M  V30 69 O 12.0216 0.425685 -1.68919 0
M  V30 70 C 9.1536 0.723523 -3.33134 0
M  V30 71 H 10.3466 -1.01181 -2.82316 0
M  V30 72 H 7.8996 -0.562485 -1.45828 0
M  V30 73 H 8.6346 1.56008 -2.84309 0
M  V30 74 H 8.4196 0.148436 -3.91819 0
M  V30 75 H 9.9096 1.13344 -4.01924 0
M  V30 76 N 10.3467 1.47872 -0.545128 0
M  V30 77 C 11.7577 1.86384 -0.108581 0
M  V30 78 C 12.1087 1.45309 1.31832 0
M  V30 79 O 11.2337 0.850641 1.9898 0
M  V30 80 C 11.8287 3.38265 -0.190274 0
M  V30 81 C 10.3877 3.75914 0.191164 0
M  V30 82 C 9.5347 2.71926 -0.543273 0
M  V30 83 H 12.4857 1.39561 -0.755537 0
M  V30 84 H 12.5067 3.75831 0.594217 0
M  V30 85 H 12.0187 3.6813 -1.2289 0
M  V30 86 H 10.1197 3.51665 1.23136 0
M  V30 87 H 10.2327 4.78836 -0.158987 0
M  V30 88 H 8.5967 2.54697 0.0122495 0
M  V30 89 H 9.3797 3.04634 -1.58282 0
M  V30 90 N 11.8248 0.280983 1.55075 0
M  V30 91 C 13.2358 -0.215629 1.85451 0
M  V30 92 C 13.5868 -1.54991 1.203 0
M  V30 93 O 12.7118 -2.10699 0.493435 0
M  V30 94 C 13.3068 -0.398026 3.36454 0
M  V30 95 C 11.8658 -0.838866 3.66933 0
M  V30 96 C 11.0128 0.064458 2.77225 0
M  V30 97 H 13.9638 0.502601 1.50531 0
M  V30 98 H 13.9848 -1.23569 3.59876 0
M  V30 99 H 13.4968 0.573241 3.83843 0
M  V30 100 H 11.5978 -1.8214 3.25048 0
M  V30 101 H 11.7108 -0.672123 4.74362 0
M  V30 102 H 10.0748 -0.452863 2.50642 0
M  V30 103 H 10.8578 1.03172 3.2743 0
M  V30 104 N 13.3029 -1.57598 0.00835791 0
M  V30 105 C 14.7139 -1.7892 -0.53333 0
M  V30 106 C 15.0649 -0.916609 -1.73473 0
M  V30 107 O 14.1899 -0.121336 -2.1606 0
M  V30 108 C 14.7849 -3.24488 -0.974313 0
M  V30 109 C 13.3439 -3.46878 -1.46125 0
M  V30 110 C 12.4909 -2.74157 -0.416302 0
M  V30 111 H 15.4419 -1.56958 0.234495 0
M  V30 112 H 15.4629 -3.3306 -1.83988 0
M  V30 113 H 14.9749 -3.87972 -0.099718 0
M  V30 114 H 13.0759 -2.8862 -2.35646 0
M  V30 115 H 13.1889 -4.55572 -1.48295 0
M  V30 116 H 11.5529 -2.39022 -0.87981 0
M  V30 117 H 12.3359 -3.40345 0.44947 0
M  V30 118 N 14.781 0.264519 -1.55364 0
M  V30 119 C 16.029 0.993021 -1.76021 0
M  V30 120 C 16.35 1.86511 -0.569099 0
M  V30 121 O 15.62 1.91438 0.415735 0
M  V30 122 H 14.2 0.369639 -0.649135 0
M  V30 123 H 16.862 0.286707 -1.9278 0
M  V30 124 H 15.958 1.62502 -2.66457 0
M  V30 125 N 16.2591 1.48442 0.529413 0
M  V30 126 C 17.6701 1.5002 1.11134 0
M  V30 127 C 18.0211 0.27031 1.94329 0
M  V30 128 O 17.1461 -0.622507 2.07253 0
M  V30 129 C 17.7411 2.71834 2.02217 0
M  V30 130 C 16.3001 2.76283 2.55627 0
M  V30 131 C 15.4471 2.43542 1.326 0
M  V30 132 H 18.3981 1.5555 0.314641 0
M  V30 133 H 18.4191 2.50384 2.8651 0
M  V30 134 H 17.9311 3.61331 1.41639 0
M  V30 135 H 16.0321 1.90995 3.19924 0
M  V30 136 H 16.1451 3.77725 2.94721 0
M  V30 137 H 14.5091 1.94709 1.64196 0
M  V30 138 H 15.2921 3.3528 0.737734 0
M  V30 139 N 17.7372 -0.778329 1.37039 0
M  V30 140 C 19.1482 -1.35421 1.28523 0
M  V30 141 C 19.4992 -1.96075 -0.0700901 0
M  V30 142 O 18.6242 -1.93352 -0.971801 0
M  V30 143 C 19.2192 -2.46211 2.32735 0
M  V30 144 C 17.7782 -2.99585 2.27873 0
M  V30 145 C 16.9252 -1.72748 2.16918 0
M  V30 146 H 19.8762 -0.5791 1.47757 0
M  V30 147 H 19.8972 -3.2552 1.9702 0
M  V30 148 H 19.4092 -2.02036 3.31365 0
M  V30 149 H 17.5102 -3.48152 1.32745 0
M  V30 150 H 17.6232 -3.55646 3.21018 0
M  V30 151 H 15.9872 -1.95416 1.63354 0
M  V30 152 H 16.7702 -1.30686 3.17452 0
M  V30 153 N 19.2153 -1.21501 -1.00376 0
M  V30 154 C 20.1473 -0.933174 -2.09343 0
M  V30 155 C 21.1603 0.0840896 -1.62583 0
M  V30 156 O 22.3493 -0.148563 -1.77881 0
M  V30 157 C 19.4493 -0.379869 -3.36764 0
M  V30 158 C 18.6223 -1.45176 -4.12605 0
M  V30 159 C 17.6813 -0.907476 -5.18316 0
M  V30 160 O 16.7073 -1.5912 -5.46507 0
M  V30 161 N 17.9093 0.276649 -5.7984 0
M  V30 162 H 20.6743 -1.87124 -2.34104 0
M  V30 163 H 18.2353 -1.12043 -1.16867 0
M  V30 164 H 20.2273 -0.00131488 -4.047 0
M  V30 165 H 18.7973 0.463048 -3.09151 0
M  V30 166 H 18.0173 -2.00411 -3.39454 0
M  V30 167 H 19.3053 -2.17328 -4.6005 0
M  V30 168 H 18.7033 0.849147 -5.59291 0
M  V30 169 H 17.2603 0.596702 -6.49063 0
M  V30 170 N 20.6934 1.19889 -1.02296 0
M  V30 171 C 22.1044 1.71124 -0.746568 0
M  V30 172 C 22.4554 1.81939 0.734335 0
M  V30 173 O 21.5804 1.48639 1.57275 0
M  V30 174 C 22.1754 3.10804 -1.34857 0
M  V30 175 C 20.7344 3.59323 -1.1209 0
M  V30 176 C 19.8814 2.3635 -1.45031 0
M  V30 177 H 22.8324 1.04813 -1.19163 0
M  V30 178 H 22.8534 3.73186 -0.742437 0
M  V30 179 H 22.3654 3.029 -2.42638 0
M  V30 180 H 20.4664 3.7255 -0.0610337 0
M  V30 181 H 20.5794 4.4378 -1.80544 0
M  V30 182 H 18.9434 2.39399 -0.869487 0
M  V30 183 H 19.7264 2.31081 -2.53883 0
M  V30 184 N 22.1715 0.800033 1.35784 0
M  V30 185 C 23.5825 0.439142 1.81462 0
M  V30 186 C 23.9335 -1.03813 1.66485 0
M  V30 187 O 23.0585 -1.80626 1.19177 0
M  V30 188 C 23.6535 0.790314 3.29453 0
M  V30 189 C 22.2125 0.482111 3.733 0
M  V30 190 C 21.3595 1.01938 2.57883 0
M  V30 191 H 24.3105 0.992254 1.23855 0
M  V30 192 H 24.3315 0.0853677 3.80404 0
M  V30 193 H 23.8435 1.86554 3.40322 0
M  V30 194 H 21.9445 -0.584652 3.67984 0
M  V30 195 H 22.0575 1.01015 4.6833 0
M  V30 196 H 20.4215 0.442043 2.50835 0
M  V30 197 H 21.2045 2.10059 2.71533 0
M  V30 198 N 23.6496 -1.47581 0.552962 0
M  V30 199 C 25.0606 -1.86324 0.118463 0
M  V30 200 C 25.4116 -1.46006 -1.3106 0
M  V30 201 O 24.5366 -0.861182 -1.98526 0
M  V30 202 C 25.1316 -3.3816 0.20821 0
M  V30 203 C 23.6906 -3.7601 -0.171226 0
M  V30 204 C 22.8376 -2.71634 0.557686 0
M  V30 205 H 25.7886 -1.39159 0.762928 0
M  V30 206 H 25.8096 -3.76141 -0.574278 0
M  V30 207 H 25.3216 -3.67473 1.24841 0
M  V30 208 H 23.4226 -3.52313 -1.21269 0
M  V30 209 H 23.5356 -4.78745 0.184379 0
M  V30 210 H 21.8996 -2.547 0.00125792 0
M  V30 211 H 22.6826 -3.0379 1.59896 0
M  V30 212 N 25.1277 -0.289203 -1.54924 0
M  V30 213 C 26.5387 0.205791 -1.85562 0
M  V30 214 C 26.8897 1.54351 -1.2112 0
M  V30 215 O 26.0147 2.10435 -0.504601 0
M  V30 216 C 26.6097 0.380177 -3.3666 0
M  V30 217 C 25.1687 0.819395 -3.67373 0
M  V30 218 C 24.3157 -0.079159 -2.77187 0
M  V30 219 H 27.2667 -0.510577 -1.50262 0
M  V30 220 H 27.2877 1.21659 -3.60526 0
M  V30 221 H 26.7997 -0.593589 -3.83534 0
M  V30 222 H 24.9007 1.80413 -3.26009 0
M  V30 223 H 25.0137 0.646957 -4.74712 0
M  V30 224 H 23.3777 0.439565 -2.50878 0
M  V30 225 H 24.1607 -1.04906 -3.26878 0
M  V30 226 N 26.6058 1.57591 -0.0167156 0
M  V30 227 C 28.0168 1.79201 0.523834 0
M  V30 228 C 28.3678 0.925796 1.72984 0
M  V30 229 O 27.4928 0.132792 2.15992 0
M  V30 230 C 28.0878 3.25 0.957091 0
M  V30 231 C 26.6468 3.47648 1.44283 0
M  V30 232 C 25.7938 2.74374 0.401757 0
M  V30 233 H 28.7448 1.56831 -0.242816 0
M  V30 234 H 28.7658 3.34031 1.82219 0
M  V30 235 H 28.2778 3.88019 0.0791415 0
M  V30 236 H 26.3788 2.89866 2.34113 0
M  V30 237 H 26.4918 4.56352 1.45877 0
M  V30 238 H 24.8558 2.39485 0.867121 0
M  V30 239 H 25.6388 3.40102 -0.467513 0
M  V30 240 N 28.0839 -0.256276 1.55502 0
M  V30 241 C 29.4949 -0.826068 1.67431 0
M  V30 242 C 29.8459 -1.86396 0.612446 0
M  V30 243 O 28.9709 -2.15031 -0.243025 0
M  V30 244 C 29.5659 -1.50512 3.03532 0
M  V30 245 C 28.1249 -2.02273 3.17431 0
M  V30 246 C 27.2719 -0.870548 2.63281 0
M  V30 247 H 30.2229 -0.0322728 1.58667 0
M  V30 248 H 30.2439 -2.37279 2.97454 0
M  V30 249 H 29.7559 -0.749484 3.80794 0
M  V30 250 H 27.8569 -2.80746 2.44974 0
M  V30 251 H 27.9699 -2.22655 4.24219 0
M  V30 252 H 26.3339 -1.26851 2.20864 0
M  V30 253 H 27.1169 -0.128149 3.43061 0
M  V30 254 N 29.562 -1.4872 -0.521534 0
M  V30 255 C 30.973 -1.50607 -1.10337 0
M  V30 256 C 31.324 -0.280612 -1.94183 0
M  V30 257 O 30.449 0.611507 -2.0758 0
M  V30 258 C 31.044 -2.72903 -2.00772 0
M  V30 259 C 29.603 -2.77634 -2.54158 0
M  V30 260 C 28.75 -2.44241 -1.31307 0
M  V30 261 H 31.701 -1.55714 -0.306388 0
M  V30 262 H 31.722 -2.519 -2.85178 0
M  V30 263 H 31.234 -3.62077 -1.39721 0
M  V30 264 H 29.335 -1.92689 -3.18907 0
M  V30 265 H 29.448 -3.79283 -2.92714 0
M  V30 266 H 27.812 -1.95577 -1.63161 0
M  V30 267 H 28.595 -3.35666 -0.719943 0
M  V30 268 N 31.0401 0.771051 -1.3745 0
M  V30 269 C 31.9501 1.91538 -1.35464 0
M  V30 270 C 32.9661 1.72134 -0.254123 0
M  V30 271 O 34.1421 1.95358 -0.489626 0
M  V30 272 C 31.2071 3.26671 -1.16134 0
M  V30 273 C 30.2681 3.58723 -2.35831 0
M  V30 274 C 29.5011 4.87409 -2.17413 0
M  V30 275 O 29.7241 5.58506 -1.15876 0
M  V30 276 O 28.6581 5.18539 -3.05615 0
M  V30 277 H 32.4841 1.96165 -2.31847 0
M  V30 278 H 30.0691 0.9139 -1.18187 0
M  V30 279 H 31.9511 4.07499 -1.07345 0
M  V30 280 H 30.6261 3.22894 -0.228251 0
M  V30 281 H 29.5331 2.78127 -2.50192 0
M  V30 282 H 30.8661 3.67243 -3.27709 0
M  V30 283 N 32.5182 1.22032 0.997298 0
M  V30 284 C 33.4282 1.00271 2.12092 0
M  V30 285 C 34.4442 -0.047621 1.73935 0
M  V30 286 O 35.6202 0.144136 2.00884 0
M  V30 287 C 32.6852 0.578449 3.4184 0
M  V30 288 C 31.7462 1.70189 3.94125 0
M  V30 289 C 30.9792 1.29778 5.17681 0
M  V30 290 O 31.2022 0.174676 5.70132 0
M  V30 291 O 30.1362 2.11261 5.63607 0
M  V30 292 H 33.9622 1.94398 2.3333 0
M  V30 293 H 31.5472 1.00587 1.10465 0
M  V30 294 H 33.4292 0.351998 4.19927 0
M  V30 295 H 32.1042 -0.334019 3.21972 0
M  V30 296 H 31.0112 1.98282 3.1723 0
M  V30 297 H 32.3442 2.59206 4.18417 0
M  V30 298 N 33.9963 -1.19345 1.0293 0
M  V30 299 C 35.2213 -1.93538 0.745511 0
M  V30 300 C 35.6463 -1.75007 -0.689511 0
M  V30 301 O 35.0043 -1.05265 -1.47611 0
M  V30 302 C 35.0523 -3.43336 1.10239 0
M  V30 303 O 34.1563 -4.11806 0.221289 0
M  V30 304 H 33.4973 -0.604193 0.275404 0
M  V30 305 H 36.0273 -1.5141 1.37609 0
M  V30 306 H 36.0373 -3.94004 1.05947 0
M  V30 307 H 34.7123 -3.56146 2.14786 0
M  V30 308 H 33.2893 -3.715 0.322842 0
M  V30 309 N 35.4744 -0.807222 -1.35358 0
M  V30 310 C 36.6994 -0.399309 -2.0352 0
M  V30 311 C 37.1244 0.981986 -1.60433 0
M  V30 312 O 36.4824 1.63601 -0.781299 0
M  V30 313 C 36.5304 -0.491552 -3.57234 0
M  V30 314 O 35.6344 0.494754 -4.09421 0
M  V30 315 H 34.9754 -0.166682 -0.642739 0
M  V30 316 H 37.5054 -1.09328 -1.72941 0
M  V30 317 H 37.5154 -0.361588 -4.06395 0
M  V30 318 H 36.1904 -1.49907 -3.87944 0
M  V30 319 H 34.7674 0.324977 -3.71481 0
M  V30 320 N 36.9525 1.47285 -0.560781 0
M  V30 321 C 38.2295 1.9558 0.0277798 0
M  V30 322 C 38.6095 1.5034 1.48192 0
M  V30 323 O 37.9575 0.743882 2.16052 0
M  V30 324 C 38.1675 3.48789 -0.121418 0
M  V30 325 C 39.5155 4.24594 0.0220912 0
M  V30 326 O 40.5395 3.56166 -0.0491439 0
M  V30 327 O 39.3985 5.46217 0.175958 0
M  V30 328 H 36.4925 0.824663 0.0621342 0
M  V30 329 H 39.0385 1.5767 -0.627556 0
M  V30 330 H 37.8105 3.74533 -1.13316 0
M  V30 331 H 37.4335 3.93473 0.571366 0
M  V30 332 N 38.4306 0.297415 1.54768 0
M  V30 333 C 39.6556 -0.318435 2.04941 0
M  V30 334 C 40.0806 -1.4701 1.17345 0
M  V30 335 O 39.4386 -1.80436 0.176758 0
M  V30 336 C 39.4866 -0.755749 3.52592 0
M  V30 337 O 38.5906 -1.86088 3.68028 0
M  V30 338 H 37.9316 -0.062421 0.661059 0
M  V30 339 H 40.4616 0.438215 1.99852 0
M  V30 340 H 40.4716 -1.04552 3.94376 0
M  V30 341 H 39.1466 0.0867233 4.1581 0
M  V30 342 H 37.7236 -1.57193 3.38149 0
M  V30 343 N 39.9087 -1.5758 0.0250728 0
M  V30 344 C 40.8187 -2.1343 -0.973905 0
M  V30 345 C 41.8347 -1.08556 -1.35984 0
M  V30 346 O 43.0107 -1.40592 -1.44207 0
M  V30 347 C 40.0757 -2.64703 -2.23904 0
M  V30 348 C 39.1367 -3.84276 -1.91391 0
M  V30 349 C 38.3697 -4.33095 -3.11873 0
M  V30 350 O 38.5927 -3.81107 -4.24398 0
M  V30 351 O 37.5267 -5.24984 -2.94406 0
M  V30 352 H 41.3527 -2.99057 -0.529036 0
M  V30 353 H 38.9377 -1.48118 -0.195288 0
M  V30 354 H 40.8197 -2.97769 -2.98181 0
M  V30 355 H 39.4947 -1.82161 -2.6758 0
M  V30 356 H 38.4017 -3.56143 -1.14511 0
M  V30 357 H 39.7347 -4.67968 -1.52534 0
M  V30 358 N 41.3868 0.248026 -1.55636 0
M  V30 359 C 42.7978 0.817177 -1.67866 0
M  V30 360 C 43.1488 1.86069 -0.622322 0
M  V30 361 O 42.2738 2.15157 0.231618 0
M  V30 362 C 42.8688 1.489 -3.04326 0
M  V30 363 C 41.4278 2.00587 -3.185 0
M  V30 364 C 40.5748 0.856573 -2.63739 0
M  V30 365 H 43.5258 0.0238579 -1.58682 0
M  V30 366 H 43.5468 2.35698 -2.98708 0
M  V30 367 H 43.0588 0.729279 -3.81186 0
M  V30 368 H 41.1598 2.79443 -2.4646 0
M  V30 369 H 41.2728 2.20402 -4.25393 0
M  V30 370 H 39.6368 1.25678 -2.21534 0
M  V30 371 H 40.4198 0.109953 -3.43124 0
M  V30 372 N 42.8649 1.48995 0.513639 0
M  V30 373 C 43.7749 1.67443 1.64317 0
M  V30 374 C 44.7909 0.556947 1.64846 0
M  V30 375 O 45.9669 0.830082 1.83498 0
M  V30 376 C 43.0319 1.72515 3.00732 0
M  V30 377 C 42.0929 2.96009 3.1093 0
M  V30 378 C 41.3259 3.00829 4.40837 0
M  V30 379 O 41.5489 2.13594 5.28898 0
M  V30 380 O 40.4829 3.93168 4.55744 0
M  V30 381 H 44.3089 2.63106 1.51687 0
M  V30 382 H 41.8939 1.32588 0.688543 0
M  V30 383 H 43.7759 1.78277 3.81831 0
M  V30 384 H 42.4509 0.800278 3.13651 0
M  V30 385 H 41.3579 2.9577 2.29065 0
M  V30 386 H 42.6909 3.87934 3.02933 0
M  V30 387 N 44.343 -0.763751 1.37857 0
M  V30 388 C 45.306 -1.85889 1.34081 0
M  V30 389 C 46.306 -1.58949 0.243277 0
M  V30 390 O 47.496 -1.66882 0.499589 0
M  V30 391 C 44.628 -3.23176 1.08489 0
M  V30 392 H 45.821 -1.90648 2.31502 0
M  V30 393 H 43.374 -0.964367 1.23003 0
M  V30 394 H 44.109 -3.24091 0.116318 0
M  V30 395 H 43.894 -3.44124 1.8794 0
M  V30 396 H 45.384 -4.03254 1.08517 0
M  V30 397 N 45.8211 -1.22559 -0.990812 0
M  V30 398 C 46.7311 -1.01394 -2.11557 0
M  V30 399 C 47.7471 0.0383962 -1.73958 0
M  V30 400 O 48.9231 -0.154787 -2.00804 0
M  V30 401 C 45.9881 -0.596569 -3.41529 0
M  V30 402 C 45.0491 -1.72276 -3.93217 0
M  V30 403 C 44.2821 -1.32521 -5.16985 0
M  V30 404 O 44.5051 -0.204909 -5.70032 0
M  V30 405 O 43.4391 -2.14247 -5.62478 0
M  V30 406 H 47.2651 -1.95633 -2.32296 0
M  V30 407 H 44.8501 -1.01172 -1.0993 0
M  V30 408 H 46.7321 -0.374263 -4.19735 0
M  V30 409 H 45.4071 0.316939 -3.22145 0
M  V30 410 H 44.3141 -1.99961 -3.16174 0
M  V30 411 H 45.6471 -2.61421 -4.17037 0
M  V30 412 N 47.2992 1.18797 -1.03562 0
M  V30 413 C 48.7102 1.70322 -0.764676 0
M  V30 414 C 49.0612 1.82708 0.714996 0
M  V30 415 O 48.1862 1.50299 1.55689 0
M  V30 416 C 48.7812 3.09356 -1.38145 0
M  V30 417 C 47.3402 3.58114 -1.15895 0
M  V30 418 C 46.4872 2.34798 -1.4753 0
M  V30 419 H 49.4382 1.03543 -1.20268 0
M  V30 420 H 49.4592 3.72378 -0.781977 0
M  V30 421 H 48.9712 3.00309 -2.45837 0
M  V30 422 H 47.0722 3.72464 -0.100544 0
M  V30 423 H 47.1852 4.4184 -1.8524 0
M  V30 424 H 45.5492 2.38464 -0.894829 0
M  V30 425 H 46.3322 2.28375 -2.56319 0
M  V30 426 N 48.7773 0.814389 1.34928 0
M  V30 427 C 50.0253 0.397636 1.9815 0
M  V30 428 C 50.3463 -1.04069 1.64908 0
M  V30 429 O 49.6163 -1.72121 0.93548 0
M  V30 430 H 48.1963 0.144043 0.732981 0
M  V30 431 H 50.8583 1.04195 1.6471 0
M  V30 432 H 49.9543 0.509688 3.0791 0
M  V30 433 N 50.2554 -1.46986 0.568584 0
M  V30 434 C 51.4804 -2.07335 0.0520528 0
M  V30 435 C 51.9054 -1.41675 -1.23733 0
M  V30 436 O 51.2634 -0.495623 -1.74394 0
M  V30 437 C 51.3114 -3.60417 -0.11501 0
M  V30 438 O 50.4154 -3.95309 -1.17492 0
M  V30 439 H 49.7564 -0.661597 0.0564385 0
M  V30 440 H 52.2864 -1.88837 0.787507 0
M  V30 441 H 52.2964 -4.06698 -0.325644 0
M  V30 442 H 50.9714 -4.07601 0.826675 0
M  V30 443 H 49.5484 -3.60757 -0.943869 0
M  V30 444 N 51.7335 -0.305618 -1.54608 0
M  V30 445 C 53.1445 0.186098 -1.8577 0
M  V30 446 C 53.4955 1.53058 -1.22751 0
M  V30 447 O 52.6205 2.09888 -0.526893 0
M  V30 448 C 53.2155 0.344449 -3.37044 0
M  V30 449 C 51.7745 0.780384 -3.68221 0
M  V30 450 C 50.9215 -0.108554 -2.77087 0
M  V30 451 H 53.8725 -0.526485 -1.49712 0
M  V30 452 H 53.8935 1.17828 -3.61796 0
M  V30 453 H 53.4055 -0.634235 -3.82883 0
M  V30 454 H 51.5065 1.76945 -3.27904 0
M  V30 455 H 51.6195 0.596572 -4.75371 0
M  V30 456 H 49.9835 0.412931 -2.5133 0
M  V30 457 H 50.7665 -1.08368 -3.25747 0
M  V30 458 N 53.2116 1.57565 -0.0334293 0
M  V30 459 C 54.1436 2.0739 0.975811 0
M  V30 460 C 55.1566 0.998166 1.2861 0
M  V30 461 O 56.3456 1.27426 1.25 0
M  V30 462 C 53.4456 2.4871 2.30209 0
M  V30 463 C 52.6186 3.79413 2.17634 0
M  V30 464 C 51.6776 4.07237 3.33233 0
M  V30 465 O 50.7036 4.77425 3.09927 0
M  V30 466 N 51.9056 3.5775 4.5716 0
M  V30 467 H 54.6706 2.94598 0.55066 0
M  V30 468 H 52.2316 1.61173 0.15323 0
M  V30 469 H 54.2236 2.64413 3.06378 0
M  V30 470 H 52.7936 1.66845 2.64351 0
M  V30 471 H 52.0136 3.73465 1.26165 0
M  V30 472 H 53.3016 4.65038 2.0644 0
M  V30 473 H 52.6996 3.00976 4.78989 0
M  V30 474 H 51.2566 3.78724 5.30482 0
M  V30 475 N 54.6897 -0.239769 1.55765 0
M  V30 476 C 55.6367 -1.29696 1.90913 0
M  V30 477 C 56.6067 -1.47478 0.764164 0
M  V30 478 O 57.7917 -1.61345 1.01845 0
M  V30 479 C 54.9317 -2.64598 2.21544 0
M  V30 480 C 54.0447 -2.54765 3.48882 0
M  V30 481 C 53.1797 -3.82069 3.69049 0
M  V30 482 C 52.2187 -3.66883 4.89963 0
M  V30 483 N 51.3557 -4.86094 5.06614 0
M  V30 484 H 56.1957 -0.990224 2.81067 0
M  V30 485 H 53.7327 -0.477684 1.39128 0
M  V30 486 H 55.6907 -3.43132 2.3731 0
M  V30 487 H 54.3207 -2.93405 1.34585 0
M  V30 488 H 53.3727 -1.67763 3.41409 0
M  V30 489 H 54.6847 -2.39457 4.37563 0
M  V30 490 H 53.8387 -4.69046 3.84812 0
M  V30 491 H 52.5777 -4.00282 2.78614 0
M  V30 492 H 51.5827 -2.78289 4.74168 0
M  V30 493 H 52.8077 -3.50157 5.81865 0
M  V30 494 H 50.7537 -5.04655 4.19117 0
M  V30 495 H 50.6707 -4.73443 5.89396 0
M  V30 496 H 51.9387 -5.74549 5.26795 0
M  V30 497 N 56.1678 -1.49265 -0.50573 0
M  V30 498 C 57.0978 -1.68495 -1.61653 0
M  V30 499 C 58.0788 -0.53366 -1.61512 0
M  V30 500 O 59.2638 -0.76897 -1.78327 0
M  V30 501 C 56.3938 -1.74709 -3.00157 0
M  V30 502 C 55.3478 -2.89581 -3.15162 0
M  V30 503 C 54.6738 -2.80903 -4.5497 0
M  V30 504 C 55.9738 -4.30578 -2.95634 0
M  V30 505 H 57.6678 -2.61493 -1.45814 0
M  V30 506 H 55.2138 -1.25838 -0.70005 0
M  V30 507 H 57.1668 -1.86748 -3.77761 0
M  V30 508 H 55.8908 -0.783067 -3.17074 0
M  V30 509 H 54.5498 -2.77136 -2.39982 0
M  V30 510 H 54.1978 -1.82419 -4.68756 0
M  V30 511 H 53.8978 -3.57999 -4.65951 0
M  V30 512 H 55.4218 -2.94944 -5.34641 0
M  V30 513 H 56.8358 -4.4373 -3.63011 0
M  V30 514 H 55.2328 -5.0886 -3.18091 0
M  V30 515 H 56.3028 -4.45352 -1.91806 0
M  V30 516 N 57.6459 0.756429 -1.3826 0
M  V30 517 C 58.8949 1.51082 -1.3363 0
M  V30 518 C 59.2079 1.95467 0.0720068 0
M  V30 519 O 60.4139 2.7043 0.240834 0
M  V30 520 C 58.8699 2.72893 -2.34644 0
M  V30 521 C 58.4779 2.35544 -3.81081 0
M  V30 522 C 60.2219 3.50791 -2.39052 0
M  V30 523 C 58.1289 3.53948 -4.73787 0
M  V30 524 H 57.0589 0.56727 -0.49671 0
M  V30 525 H 59.7099 0.827147 -1.638 0
M  V30 526 H 58.0919 3.43227 -1.97513 0
M  V30 527 H 59.2659 1.72894 -4.27135 0
M  V30 528 H 57.5809 1.70786 -3.79764 0
M  V30 529 H 60.1779 4.38823 -3.05513 0
M  V30 530 H 60.5209 3.91745 -1.40861 0
M  V30 531 H 61.0539 2.87467 -2.74968 0
M  V30 532 H 57.7929 3.18064 -5.73163 0
M  V30 533 H 57.3129 4.15651 -4.32428 0
M  V30 534 H 58.9919 4.20566 -4.91663 0
M  V30 535 N 59.124 1.23083 0.984299 0
M  V30 536 C 60.54 0.992637 1.24975 0
M  V30 537 C 60.74 -0.308618 1.99123 0
M  V30 538 O 59.796 -1.02905 2.30579 0
M  V30 539 C 61.109 2.19698 2.05312 0
M  V30 540 C 62.657 2.24147 2.18465 0
M  V30 541 C 63.132 3.44157 3.02192 0
M  V30 542 N 64.623 3.44372 3.09777 0
M  V30 543 C 65.358 4.33886 3.74874 0
M  V30 544 N 64.854 5.3363 4.41827 0
M  V30 545 N 66.647 4.21639 3.71721 0
M  V30 546 H 58.798 2.06731 0.487453 0
M  V30 547 H 61.061 0.906339 0.277944 0
M  V30 548 H 60.767 3.1411 1.58201 0
M  V30 549 H 60.641 2.20465 3.06064 0
M  V30 550 H 63.028 1.30277 2.64786 0
M  V30 551 H 63.109 2.27415 1.17115 0
M  V30 552 H 62.753 4.38332 2.56568 0
M  V30 553 H 62.683 3.3813 4.03702 0
M  V30 554 H 65.174 2.72201 2.62135 0
M  V30 555 H 65.487 5.98196 4.89266 0
M  V30 556 H 63.832 5.37534 4.40548 0
M  V30 557 H 67.023 3.42962 3.18582 0
M  V30 558 H 67.196 4.91604 4.22173 0
M  V30 559 N 60.6021 -1.18246 1.0419 0
M  V30 560 C 61.5491 -2.2192 0.634037 0
M  V30 561 C 62.5191 -1.62179 -0.358765 0
M  V30 562 O 63.7041 -1.89122 -0.252466 0
M  V30 563 C 60.8441 -3.451 0.00445535 0
M  V30 564 C 59.9571 -4.19174 1.04487 0
M  V30 565 C 59.0921 -5.29813 0.383676 0
M  V30 566 C 58.1311 -5.9566 1.4091 0
M  V30 567 N 57.2681 -6.97834 0.772784 0
M  V30 568 H 62.1081 -2.56164 1.52263 0
M  V30 569 H 59.6451 -1.25843 0.761701 0
M  V30 570 H 61.6031 -4.15485 -0.377919 0
M  V30 571 H 60.2331 -3.11472 -0.847652 0
M  V30 572 H 59.2851 -3.47604 1.54518 0
M  V30 573 H 60.5971 -4.64267 1.82368 0
M  V30 574 H 59.7511 -6.06677 -0.0528366 0
M  V30 575 H 58.4901 -4.85825 -0.427208 0
M  V30 576 H 57.4951 -5.17535 1.85574 0
M  V30 577 H 58.7201 -6.4173 2.22171 0
M  V30 578 H 56.6661 -6.55998 -0.0177708 0
M  V30 579 H 56.5831 -7.41186 1.48928 0
M  V30 580 H 57.8511 -7.78665 0.36071 0
M  V30 581 N 62.0802 -0.821533 -1.34494 0
M  V30 582 C 63.3262 -0.409552 -1.98622 0
M  V30 583 C 63.6592 1.0244 -1.64984 0
M  V30 584 O 62.9342 1.71325 -0.920758 0
M  V30 585 C 63.2172 -0.610458 -3.54888 0
M  V30 586 C 63.0702 -2.09043 -3.98273 0
M  V30 587 C 64.3892 -0.0455379 -4.40076 0
M  V30 588 H 61.5082 -0.15028 -0.721516 0
M  V30 589 H 64.1502 -1.03384 -1.59411 0
M  V30 590 H 62.3002 -0.079044 -3.8842 0
M  V30 591 H 63.9722 -2.68537 -3.75081 0
M  V30 592 H 62.2152 -2.58139 -3.48635 0
M  V30 593 H 62.8862 -2.18182 -5.07051 0
M  V30 594 H 65.3622 -0.499557 -4.1309 0
M  V30 595 H 64.2382 -0.215922 -5.48475 0
M  V30 596 H 64.4992 1.04939 -4.29465 0
M  V30 597 N 63.5583 1.46682 -0.576371 0
M  V30 598 C 64.7833 2.07304 -0.0630475 0
M  V30 599 C 65.2083 1.42329 1.2298 0
M  V30 600 O 64.5663 0.504865 1.74129 0
M  V30 601 C 64.6143 3.60472 0.095895 0
M  V30 602 O 63.7183 3.95927 1.15394 0
M  V30 603 H 63.0593 0.661288 -0.0599463 0
M  V30 604 H 65.5893 1.88417 -0.797511 0
M  V30 605 H 65.5993 4.06865 0.304071 0
M  V30 606 H 64.2743 4.07157 -0.84828 0
M  V30 607 H 62.8513 3.61252 0.924724 0
M  V30 608 N 65.0364 0.313813 1.54444 0
M  V30 609 C 66.2644 -0.293918 2.04802 0
M  V30 610 C 66.6794 -1.46537 1.19047 0
M  V30 611 O 66.0364 -1.81182 0.218939 0
M  V30 612 C 66.0874 -0.737806 3.53891 0
M  V30 613 O 65.8084 0.387038 4.36387 0
M  V30 614 C 67.3094 -1.40936 4.203 0
M  V30 615 H 64.5294 -0.0620057 0.668129 0
M  V30 616 H 67.0734 0.457169 1.99324 0
M  V30 617 H 65.2284 -1.43889 3.59687 0
M  V30 618 H 65.6424 0.0391274 5.24485 0
M  V30 619 H 67.1164 -1.67099 5.26101 0
M  V30 620 H 67.5934 -2.35355 3.70816 0
M  V30 621 H 68.1994 -0.751117 4.18615 0
M  V30 622 N 66.5145 -1.57545 0.0417849 0
M  V30 623 C 67.7395 -1.97035 -0.647455 0
M  V30 624 C 68.1645 -0.918775 -1.64135 0
M  V30 625 O 67.5225 0.119006 -1.80909 0
M  V30 626 C 67.5705 -3.35609 -1.31905 0
M  V30 627 O 66.6745 -3.3287 -2.43457 0
M  V30 628 H 66.0155 -0.64211 -0.169086 0
M  V30 629 H 68.5455 -2.04318 0.107399 0
M  V30 630 H 68.5555 -3.72126 -1.67291 0
M  V30 631 H 67.2305 -4.11685 -0.590586 0
M  V30 632 H 65.8075 -3.08087 -2.10088 0
M  V30 633 N 67.9926 0.231505 -1.5589 0
M  V30 634 C 69.2406 0.955461 -1.78088 0
M  V30 635 C 69.5616 1.85262 -0.608533 0
M  V30 636 O 68.8316 1.92277 0.375035 0
M  V30 637 H 67.4116 0.355787 -0.656829 0
M  V30 638 H 70.0736 0.245751 -1.93344 0
M  V30 639 H 69.1696 1.56814 -2.69844 0
M  V30 640 N 69.4707 1.49531 0.497807 0
M  V30 641 C 70.4027 1.62559 1.61578 0
M  V30 642 C 71.4157 0.508134 1.54667 0
M  V30 643 O 72.6047 0.780309 1.60541 0
M  V30 644 C 69.7047 1.56925 3.00379 0
M  V30 645 C 68.8777 2.84257 3.3244 0
M  V30 646 C 67.9367 2.71632 4.50669 0
M  V30 647 O 66.9627 3.4557 4.52294 0
M  V30 648 N 68.1647 1.83391 5.5077 0
M  V30 649 H 70.9297 2.58981 1.50828 0
M  V30 650 H 68.4907 1.4666 0.685743 0
M  V30 651 H 70.4827 1.46129 3.77397 0
M  V30 652 H 69.0527 0.683483 3.05037 0
M  V30 653 H 68.2727 3.09381 2.44289 0
M  V30 654 H 69.5607 3.68666 3.5066 0
M  V30 655 H 68.9587 1.22583 5.52259 0
M  V30 656 H 67.5157 1.78515 6.26878 0
M  V30 657 N 70.9488 -0.749086 1.3866 0
M  V30 658 C 72.1978 -1.50371 1.3443 0
M  V30 659 C 72.5108 -1.95503 -0.0616397 0
M  V30 660 O 73.7168 -2.70554 -0.226489 0
M  V30 661 C 72.1728 -2.71644 2.36088 0
M  V30 662 C 71.7808 -2.3352 3.82325 0
M  V30 663 C 73.5248 -3.49518 2.40909 0
M  V30 664 C 71.4318 -3.51431 4.75658 0
M  V30 665 H 70.3618 -0.564628 0.499712 0
M  V30 666 H 73.0128 -0.818449 1.64237 0
M  V30 667 H 71.3948 -3.42175 1.9933 0
M  V30 668 H 72.5688 -1.70627 4.28046 0
M  V30 669 H 70.8838 -1.6877 3.80665 0
M  V30 670 H 73.4808 -4.37197 3.07836 0
M  V30 671 H 73.8238 -3.90992 1.42937 0
M  V30 672 H 74.3568 -2.86005 2.76489 0
M  V30 673 H 71.0958 -3.15019 5.74842 0
M  V30 674 H 70.6158 -4.13352 4.34627 0
M  V30 675 H 72.2948 -4.17953 4.93887 0
M  V30 676 N 72.4269 -1.23603 -0.977757 0
M  V30 677 C 73.8429 -0.999251 -1.24447 0
M  V30 678 C 74.0429 0.298053 -1.99283 0
M  V30 679 O 73.0989 1.01681 -2.31122 0
M  V30 680 C 74.4119 -2.20784 -2.04144 0
M  V30 681 C 75.9599 -2.25303 -2.17273 0
M  V30 682 C 76.4349 -3.45755 -3.00362 0
M  V30 683 N 77.9259 -3.4601 -3.07947 0
M  V30 684 C 78.6609 -4.35868 -3.72568 0
M  V30 685 N 78.1569 -5.35966 -4.38991 0
M  V30 686 N 79.9499 -4.23605 -3.6948 0
M  V30 687 H 72.1009 -2.06986 -0.476483 0
M  V30 688 H 74.3639 -0.907801 -0.273134 0
M  V30 689 H 74.0699 -3.14945 -1.56533 0
M  V30 690 H 73.9439 -2.22085 -3.04891 0
M  V30 691 H 76.3309 -1.3168 -2.64092 0
M  V30 692 H 76.4119 -2.28033 -1.15907 0
M  V30 693 H 76.0559 -4.39687 -2.5424 0
M  V30 694 H 75.9859 -3.40266 -4.01904 0
M  V30 695 H 78.4769 -2.73588 -2.60688 0
M  V30 696 H 78.7899 -6.00783 -4.86086 0
M  V30 697 H 77.1349 -5.39863 -4.37691 0
M  V30 698 H 80.3259 -3.44647 -3.16759 0
M  V30 699 H 80.4989 -4.93836 -4.1956 0
M  V30 700 N 73.905 1.17692 -1.04816 0
M  V30 701 C 74.837 2.21103 -0.603822 0
M  V30 702 C 75.85 1.59411 0.33046 0
M  V30 703 O 77.039 1.7807 0.12379 0
M  V30 704 C 74.139 3.38623 0.136898 0
M  V30 705 C 73.312 4.29888 -0.807137 0
M  V30 706 C 72.371 5.26088 -0.10836 0
M  V30 707 O 71.397 5.64353 -0.741232 0
M  V30 708 N 72.599 5.68882 1.15558 0
M  V30 709 H 75.364 2.59848 -1.49329 0
M  V30 710 H 72.925 1.32553 -0.929587 0
M  V30 711 H 74.917 4.00009 0.614401 0
M  V30 712 H 73.487 2.98508 0.927993 0
M  V30 713 H 72.707 3.65993 -1.46434 0
M  V30 714 H 73.995 4.87759 -1.44807 0
M  V30 715 H 73.393 5.39861 1.69015 0
M  V30 716 H 71.95 6.32429 1.57722 0
M  V30 717 N 75.3831 0.828654 1.34056 0
M  V30 718 C 76.3301 0.252567 2.29414 0
M  V30 719 C 77.3001 -0.62588 1.53857 0
M  V30 720 O 78.4851 -0.566312 1.82202 0
M  V30 721 C 75.6251 -0.574831 3.40279 0
M  V30 722 C 74.7381 0.326499 4.30764 0
M  V30 723 C 73.8731 -0.511016 5.28736 0
M  V30 724 C 72.9121 0.389342 6.1086 0
M  V30 725 N 72.0491 -0.409439 7.00905 0
M  V30 726 H 76.8891 1.07108 2.78086 0
M  V30 727 H 74.4261 0.539677 1.36843 0
M  V30 728 H 76.3841 -1.06992 4.03248 0
M  V30 729 H 75.0141 -1.35841 2.92826 0
M  V30 730 H 74.0661 0.939837 3.68607 0
M  V30 731 H 75.3781 1.01857 4.88289 0
M  V30 732 H 74.5321 -1.07035 5.97184 0
M  V30 733 H 73.2711 -1.23657 4.71763 0
M  V30 734 H 72.2761 0.960769 5.4134 0
M  V30 735 H 73.5011 1.1131 6.69916 0
M  V30 736 H 71.4471 -1.11856 6.46393 0
M  V30 737 H 71.3641 0.224126 7.55668 0
M  V30 738 H 72.6321 -0.951336 7.73673 0
M  V30 739 N 76.8612 -1.46375 0.584142 0
M  V30 740 C 78.0892 -2.06761 0.0759296 0
M  V30 741 C 78.5042 -1.43266 -1.22965 0
M  V30 742 O 77.8612 -0.538458 -1.74376 0
M  V30 743 C 77.9122 -3.61375 -0.0950384 0
M  V30 744 O 77.6332 -4.22495 1.15887 0
M  V30 745 C 79.1342 -4.38693 -0.637434 0
M  V30 746 H 76.3542 -0.668479 0.0581075 0
M  V30 747 H 78.8982 -1.8798 0.805218 0
M  V30 748 H 77.0532 -3.79578 -0.774554 0
M  V30 749 H 77.4672 -5.15385 0.973598 0
M  V30 750 H 78.9412 -5.47464 -0.706237 0
M  V30 751 H 79.4182 -4.06836 -1.65472 0
M  V30 752 H 80.0242 -4.25299 0.00725967 0
M  V30 753 N 78.3393 -0.321999 -1.54275 0
M  V30 754 C 79.5883 0.281931 -1.9972 0
M  V30 755 C 79.9013 1.53369 -1.21397 0
M  V30 756 O 81.1073 2.21352 -1.57211 0
M  V30 757 C 79.5633 0.5529 -3.55628 0
M  V30 758 C 79.1713 -0.681721 -4.42783 0
M  V30 759 C 80.9153 1.11687 -4.09544 0
M  V30 760 C 78.8223 -0.382742 -5.9016 0
M  V30 761 H 77.7523 0.109124 -0.746062 0
M  V30 762 H 80.4033 -0.43398 -1.78294 0
M  V30 763 H 78.7853 1.32896 -3.73035 0
M  V30 764 H 79.9593 -1.45723 -4.37151 0
M  V30 765 H 78.2743 -1.1658 -3.99748 0
M  V30 766 H 80.8713 1.35515 -5.17242 0
M  V30 767 H 81.2143 2.06575 -3.61431 0
M  V30 768 H 81.7473 0.402032 -3.95763 0
M  V30 769 H 78.4863 -1.30076 -6.42464 0
M  V30 770 H 78.0063 0.355094 -5.98748 0
M  V30 771 H 79.6853 0.00800157 -6.47 0
M  V30 772 N 79.8174 1.5752 -0.0501392 0
M  V30 773 C 81.0664 1.91827 0.623328 0
M  V30 774 C 81.3794 0.930222 1.72065 0
M  V30 775 O 82.5854 1.1653 2.4522 0
M  V30 776 C 81.0414 3.40692 1.16003 0
M  V30 777 C 80.6494 4.479 0.0948811 0
M  V30 778 C 82.3934 3.84034 1.80881 0
M  V30 779 C 80.3004 5.87879 0.644411 0
M  V30 780 H 79.2304 0.715918 0.236596 0
M  V30 781 H 81.8814 1.83115 -0.118861 0
M  V30 782 H 80.2634 3.44405 1.9545 0
M  V30 783 H 81.4374 4.55775 -0.678675 0
M  V30 784 H 79.7524 4.13892 -0.45637 0
M  V30 785 H 82.3494 4.85984 2.22988 0
M  V30 786 H 82.6924 3.20225 2.6601 0
M  V30 787 H 83.2254 3.82833 1.0809 0
M  V30 788 H 79.9644 6.55282 -0.169229 0
M  V30 789 H 79.4844 5.83567 1.38598 0
M  V30 790 H 81.1634 6.37098 1.12763 0
M  V30 791 N 81.2955 -0.223234 1.56011 0
M  V30 792 C 82.2425 -1.27664 1.92277 0
M  V30 793 C 83.2125 -1.46659 0.779763 0
M  V30 794 O 84.3975 -1.60256 1.03551 0
M  V30 795 C 81.5375 -2.62234 2.24338 0
M  V30 796 C 80.6505 -2.51051 3.51564 0
M  V30 797 C 79.7855 -3.78133 3.7308 0
M  V30 798 C 78.8245 -3.61665 4.93827 0
M  V30 799 N 77.9615 -4.80693 5.11741 0
M  V30 800 H 82.8015 -0.960358 2.82101 0
M  V30 801 H 80.3385 -0.462901 1.39627 0
M  V30 802 H 82.2965 -3.40596 2.40936 0
M  V30 803 H 80.9265 -2.91961 1.3769 0
M  V30 804 H 79.9785 -1.64132 3.43169 0
M  V30 805 H 81.2905 -2.34803 4.40079 0
M  V30 806 H 80.4445 -4.64938 3.89766 0
M  V30 807 H 79.1835 -3.97304 2.82844 0
M  V30 808 H 78.1885 -2.73244 4.77093 0
M  V30 809 H 79.4135 -3.43966 5.85546 0
M  V30 810 H 77.3595 -5.00181 4.24446 0
M  V30 811 H 77.2765 -4.67165 5.94384 0
M  V30 812 H 78.5445 -5.6893 5.3286 0
M  V30 813 N 82.7736 -1.49793 -0.48987 0
M  V30 814 C 83.6836 -1.70036 -1.61632 0
M  V30 815 C 84.6996 -0.583102 -1.63939 0
M  V30 816 O 85.8756 -0.859169 -1.82154 0
M  V30 817 C 82.9406 -1.77277 -2.97949 0
M  V30 818 C 82.0016 -3.00918 -3.06181 0
M  V30 819 C 81.2346 -3.07804 -4.35996 0
M  V30 820 O 81.4576 -2.21982 -5.25433 0
M  V30 821 O 80.3916 -4.00369 -4.49431 0
M  V30 822 H 84.2176 -2.65486 -1.47482 0
M  V30 823 H 81.8026 -1.33666 -0.667362 0
M  V30 824 H 83.6846 -1.84329 -3.78947 0
M  V30 825 H 82.3596 -0.850076 -3.12339 0
M  V30 826 H 81.2666 -2.99377 -2.2433 0
M  V30 827 H 82.5996 -3.92704 -2.96723 0
M  V30 828 N 84.2517 0.741722 -1.39055 0
M  V30 829 C 85.4997 1.49818 -1.35643 0
M  V30 830 C 85.8207 1.94938 0.0491642 0
M  V30 831 O 85.0907 1.68505 0.999141 0
M  V30 832 H 83.6707 0.555755 -0.499144 0
M  V30 833 H 86.3327 0.880957 -1.73854 0
M  V30 834 H 85.4287 2.38348 -2.01486 0
M  V30 835 N 85.7298 1.2412 0.971189 0
M  V30 836 C 86.6628 0.97373 2.06382 0
M  V30 837 C 87.6408 -0.0912662 1.62344 0
M  V30 838 O 88.8248 0.0449365 1.88446 0
M  V30 839 C 85.9518 0.468746 3.35441 0
M  V30 840 C 84.9978 1.52176 3.98428 0
M  V30 841 S 85.8308 3.10203 4.36503 0
M  V30 842 C 86.9868 2.61398 5.68702 0
M  V30 843 H 87.2198 1.89893 2.28753 0
M  V30 844 H 84.7528 1.07466 1.10862 0
M  V30 845 H 86.7108 0.184012 4.10087 0
M  V30 846 H 85.3718 -0.435688 3.11064 0
M  V30 847 H 84.5648 1.11876 4.91426 0
M  V30 848 H 84.1668 1.75632 3.30196 0
M  V30 849 H 86.4588 2.03992 6.4606 0
M  V30 850 H 87.4018 3.52972 6.13854 0
M  V30 851 H 87.8098 2.01941 5.27143 0
M  V30 852 N 87.2079 -1.17134 1.05439 0
M  V30 853 C 88.1379 -2.2342 0.678649 0
M  V30 854 C 89.1189 -1.66971 -0.32476 0
M  V30 855 O 90.3039 -1.93149 -0.201802 0
M  V30 856 C 87.4339 -3.47256 0.0552099 0
M  V30 857 C 86.3879 -4.16543 0.98365 0
M  V30 858 C 85.7139 -5.34231 0.223961 0
M  V30 859 C 87.0139 -4.68495 2.3089 0
M  V30 860 H 88.7079 -2.55105 1.56722 0
M  V30 861 H 86.2539 -1.2262 0.754998 0
M  V30 862 H 88.2069 -4.20828 -0.21946 0
M  V30 863 H 86.9309 -3.14846 -0.868319 0
M  V30 864 H 85.5899 -3.44887 1.24293 0
M  V30 865 H 85.2379 -4.98071 -0.702412 0
M  V30 866 H 84.9379 -5.81527 0.842627 0
M  V30 867 H 86.4619 -6.10585 -0.0433671 0
M  V30 868 H 87.8759 -5.33691 2.09396 0
M  V30 869 H 86.2729 -5.26379 2.88176 0
M  V30 870 H 87.3429 -3.85169 2.94572 0
M  V30 871 N 88.686 -0.835752 -1.33615 0
M  V30 872 C 89.914 -0.443344 -2.02094 0
M  V30 873 C 90.329 0.954522 -1.62894 0
M  V30 874 O 89.686 1.61982 -0.840723 0
M  V30 875 C 89.737 -0.550775 -3.5728 0
M  V30 876 O 89.458 -1.89356 -3.95065 0
M  V30 877 C 90.959 -0.154919 -4.43029 0
M  V30 878 H 88.179 -0.176359 -0.647409 0
M  V30 879 H 90.723 -1.12746 -1.70612 0
M  V30 880 H 88.878 0.0853997 -3.87306 0
M  V30 881 H 89.292 -1.87687 -4.89769 0
M  V30 882 H 90.766 -0.281144 -5.51284 0
M  V30 883 H 91.243 0.902863 -4.2982 0
M  V30 884 H 91.849 -0.765404 -4.18356 0
M  V30 885 N 90.1641 1.46063 -0.591896 0
M  V30 886 C 91.1111 2.30399 0.136069 0
M  V30 887 C 92.0811 1.41169 0.875238 0
M  V30 888 O 93.2661 1.70112 0.86409 0
M  V30 889 C 90.4061 3.25804 1.13781 0
M  V30 890 C 89.5191 4.30134 0.401137 0
M  V30 891 C 88.6541 5.12659 1.39121 0
M  V30 892 C 87.6931 6.0873 0.641462 0
M  V30 893 N 86.8301 6.8409 1.58004 0
M  V30 894 H 91.6701 2.92118 -0.589144 0
M  V30 895 H 89.2071 1.43959 -0.302342 0
M  V30 896 H 91.1651 3.79569 1.73156 0
M  V30 897 H 89.7951 2.65872 1.83062 0
M  V30 898 H 88.8471 3.79152 -0.307826 0
M  V30 899 H 90.1591 4.98458 -0.184565 0
M  V30 900 H 89.3131 5.70747 2.05749 0
M  V30 901 H 88.0521 4.44316 2.01084 0
M  V30 902 H 87.0571 5.49786 -0.0385419 0
M  V30 903 H 88.2821 6.79095 0.0270945 0
M  V30 904 H 86.2281 6.18449 2.18761 0
M  V30 905 H 86.1451 7.48709 1.04738 0
M  V30 906 H 87.4131 7.4673 2.23639 0
M  V30 907 N 91.6422 0.330177 1.54103 0
M  V30 908 C 92.5742 -0.566902 2.22079 0
M  V30 909 C 93.5872 -1.07462 1.22294 0
M  V30 910 O 94.7762 -0.987065 1.48726 0
M  V30 911 C 91.8762 -1.79138 2.87685 0
M  V30 912 C 91.0492 -1.42123 4.13666 0
M  V30 913 C 90.1082 -2.50394 4.62806 0
M  V30 914 O 89.1342 -2.14261 5.27334 0
M  V30 915 N 90.3362 -3.81433 4.37595 0
M  V30 916 H 93.1012 0.0151844 2.99696 0
M  V30 917 H 90.6622 0.153681 1.61169 0
M  V30 918 H 92.6542 -2.50975 3.1748 0
M  V30 919 H 91.2242 -2.28115 2.13734 0
M  V30 920 H 90.4442 -0.534201 3.90564 0
M  V30 921 H 91.7322 -1.14971 4.9564 0
M  V30 922 H 91.1302 -4.13584 3.8596 0
M  V30 923 H 89.6872 -4.4948 4.72029 0
M  V30 924 N 93.1203 -1.57491 0.0584922 0
M  V30 925 C 94.0683 -2.13148 -0.931168 0
M  V30 926 C 95.0623 -1.06507 -1.31729 0
M  V30 927 O 96.2683 -1.24906 -1.29609 0
M  V30 928 H 92.6433 -0.68137 -0.31818 0
M  V30 929 H 94.6143 -2.95187 -0.436707 0
M  V30 930 C 93.3633 -2.69732 -2.19408 0
M  V30 931 H 92.6863 -3.51454 -1.90578 0
M  V30 932 H 94.1263 -3.12287 -2.86798 0
M  V30 933 C 92.5853 -1.63855 -2.94369 0
M  V30 934 O 93.1153 -1.05565 -3.87581 0
M  V30 935 N 91.3213 -1.35202 -2.57233 0
M  V30 936 H 90.8683 -1.82791 -1.81508 0
M  V30 937 H 90.8263 -0.645922 -3.07693 0
M  V30 938 N 94.5984 0.214957 -1.56127 0
M  V30 939 C 95.5464 1.28601 -1.93816 0
M  V30 940 C 96.5404 1.48175 -0.821016 0
M  V30 941 O 97.7464 1.49271 -1.0059 0
M  V30 942 H 94.1214 0.431302 -0.616022 0
M  V30 943 H 96.0924 0.940991 -2.83175 0
M  V30 944 C 94.8414 2.62779 -2.27689 0
M  V30 945 H 94.1644 2.48527 -3.13168 0
M  V30 946 H 95.6044 3.36517 -2.57939 0
M  V30 947 C 94.0634 3.18285 -1.10436 0
M  V30 948 O 94.5934 4.00002 -0.368945 0
M  V30 949 N 92.7994 2.7675 -0.886433 0
M  V30 950 H 92.3464 2.10404 -1.48619 0
M  V30 951 H 92.3044 3.14229 -0.103656 0
M  V30 952 N 96.0765 1.50051 0.48192 0
M  V30 953 C 97.3015 1.64508 1.26301 0
M  V30 954 C 97.7265 0.323851 1.85291 0
M  V30 955 O 97.0845 -0.710969 1.66778 0
M  V30 956 C 97.1325 2.7305 2.35533 0
M  V30 957 O 96.2365 2.3355 3.39895 0
M  V30 958 H 95.5775 0.549978 0.372048 0
M  V30 959 H 98.1075 1.9636 0.574786 0
M  V30 960 H 98.1175 2.95799 2.8101 0
M  V30 961 H 96.7925 3.68946 1.91967 0
M  V30 962 H 95.3695 2.21205 3.00204 0
M  V30 963 N 97.5546 -0.734337 1.39446 0
M  V30 964 C 98.8016 -1.49391 1.36706 0
M  V30 965 C 99.1296 -1.94465 -0.0367813 0
M  V30 966 O 98.3846 -1.67154 -1.01774 0
M  V30 967 C 98.6836 -2.74711 2.28623 0
M  V30 968 C 98.3496 -2.48501 3.76242 0
M  V30 969 C 97.0116 -2.41062 4.16464 0
M  V30 970 C 99.3636 -2.26098 4.69606 0
M  V30 971 C 96.6916 -2.09262 5.48112 0
M  V30 972 C 99.0436 -1.95814 6.01531 0
M  V30 973 C 97.7076 -1.86845 6.40816 0
M  V30 974 H 96.9776 -0.546661 0.500243 0
M  V30 975 H 99.6246 -0.842788 1.71957 0
M  V30 976 H 97.9296 -3.44569 1.86492 0
M  V30 977 H 99.6266 -3.32741 2.23796 0
M  V30 978 H 96.2166 -2.55169 3.44364 0
M  V30 979 H 100.401 -2.30812 4.39363 0
M  V30 980 H 95.6566 -2.00841 5.77471 0
M  V30 981 H 99.8306 -1.77488 6.73403 0
M  V30 982 H 97.4576 -1.6197 7.42745 0
M  V30 983 N 99.0327 -1.24633 -0.964593 0
M  V30 984 C 99.9647 -0.999302 -2.06268 0
M  V30 985 C 100.978 0.0323226 -1.62768 0
M  V30 986 O 102.167 -0.205079 -1.77318 0
M  V30 987 C 99.2667 -0.486816 -3.35385 0
M  V30 988 C 98.4397 -1.5823 -4.07777 0
M  V30 989 C 97.4987 -1.07191 -5.15166 0
M  V30 990 O 96.5247 -1.76426 -5.41168 0
M  V30 991 N 97.7267 0.0920373 -5.80427 0
M  V30 992 H 100.492 -1.94477 -2.28033 0
M  V30 993 H 98.0527 -1.15704 -1.13244 0
M  V30 994 H 100.045 -0.130066 -4.04491 0
M  V30 995 H 98.6147 0.364459 -3.10468 0
M  V30 996 H 97.8347 -2.11109 -3.32906 0
M  V30 997 H 99.1227 -2.31854 -4.52903 0
M  V30 998 H 98.5207 0.670784 -5.61709 0
M  V30 999 H 97.0777 0.389905 -6.50633 0
M  V30 1000 N 100.511 1.16574 -1.06058 0
M  V30 1001 C 101.927 1.3904 -0.783585 0
M  V30 1002 C 102.127 1.91784 0.618145 0
M  V30 1003 O 101.183 2.11511 1.37911 0
M  V30 1004 C 102.496 2.37329 -1.84649 0
M  V30 1005 C 104.044 2.51018 -1.86973 0
M  V30 1006 C 104.519 3.52588 -2.92311 0
M  V30 1007 N 106.01 3.60113 -2.91329 0
M  V30 1008 C 106.745 4.38486 -3.69482 0
M  V30 1009 N 106.241 5.20302 -4.57447 0
M  V30 1010 N 108.034 4.33446 -3.57885 0
M  V30 1011 H 100.185 0.806725 -1.96483 0
M  V30 1012 H 102.448 0.417117 -0.851303 0
M  V30 1013 H 102.154 2.05663 -2.85299 0
M  V30 1014 H 102.028 3.36946 -1.6955 0
M  V30 1015 H 104.415 2.81989 -0.869827 0
M  V30 1016 H 104.496 1.51445 -2.0615 0
M  V30 1017 H 104.14 3.22354 -3.92492 0
M  V30 1018 H 104.07 4.51886 -2.70383 0
M  V30 1019 H 106.561 3.01707 -2.27555 0
M  V30 1020 H 106.874 5.77311 -5.13743 0
M  V30 1021 H 105.219 5.19653 -4.61503 0
M  V30 1022 H 108.41 3.68586 -2.88551 0
M  V30 1023 H 108.583 4.94279 -4.19037 0
M  V30 1024 N 101.989 0.842826 1.3317 0
M  V30 1025 C 103.214 0.453129 2.02389 0
M  V30 1026 C 103.639 -0.939105 1.6298 0
M  V30 1027 O 102.997 -1.61472 0.8244 0
M  V30 1028 C 103.045 0.586094 3.55805 0
M  V30 1029 O 102.149 -0.386029 4.10589 0
M  V30 1030 H 101.49 0.183664 0.638094 0
M  V30 1031 H 104.02 1.13875 1.69981 0
M  V30 1032 H 104.03 0.469209 4.05293 0
M  V30 1033 H 102.705 1.6014 3.83833 0
M  V30 1034 H 101.282 -0.226371 3.72212 0
M  V30 1035 N 103.467 -1.45747 0.599634 0
M  V30 1036 C 104.414 -2.30467 -0.123849 0
M  V30 1037 C 105.384 -1.41632 -0.86774 0
M  V30 1038 O 106.569 -1.70568 -0.855056 0
M  V30 1039 C 103.709 -3.26402 -1.12051 0
M  V30 1040 C 102.822 -4.3034 -0.37832 0
M  V30 1041 C 101.957 -5.13389 -1.364 0
M  V30 1042 C 100.996 -6.09061 -0.609171 0
M  V30 1043 N 100.133 -6.84918 -1.54374 0
M  V30 1044 H 104.973 -2.91802 0.604627 0
M  V30 1045 H 102.51 -1.43797 0.309972 0
M  V30 1046 H 104.468 -3.80482 -1.7114 0
M  V30 1047 H 103.098 -2.66839 -1.8165 0
M  V30 1048 H 102.15 -3.78984 0.327929 0
M  V30 1049 H 103.462 -4.98354 0.210997 0
M  V30 1050 H 102.616 -5.7183 -2.02719 0
M  V30 1051 H 101.355 -4.45376 -1.98725 0
M  V30 1052 H 100.36 -5.49758 0.0676979 0
M  V30 1053 H 101.585 -6.79099 0.00891991 0
M  V30 1054 H 99.531 -6.19601 -2.15478 0
M  V30 1055 H 99.448 -7.49254 -1.00766 0
M  V30 1056 H 100.716 -7.47906 -2.19676 0
M  V30 1057 N 104.945 -0.338344 -1.53925 0
M  V30 1058 C 106.361 0.0137736 -1.59594 0
M  V30 1059 C 106.561 1.49186 -1.35447 0
M  V30 1060 O 105.617 2.24987 -1.14616 0
M  V30 1061 C 106.93 -0.41773 -2.97784 0
M  V30 1062 C 108.478 -0.369633 -3.1081 0
M  V30 1063 C 108.953 -0.776524 -4.51369 0
M  V30 1064 N 110.444 -0.730506 -4.57403 0
M  V30 1065 C 111.179 -1.01736 -5.64303 0
M  V30 1066 N 110.675 -1.3721 -6.79077 0
M  V30 1067 N 112.468 -0.941942 -5.54151 0
M  V30 1068 H 104.619 -1.3012 -1.67876 0
M  V30 1069 H 106.882 -0.530082 -0.78595 0
M  V30 1070 H 106.588 -1.44811 -3.20504 0
M  V30 1071 H 106.462 0.209729 -3.76616 0
M  V30 1072 H 108.849 0.651568 -2.87817 0
M  V30 1073 H 108.93 -1.03223 -2.34049 0
M  V30 1074 H 108.574 -1.79571 -4.75096 0
M  V30 1075 H 108.504 -0.0914649 -5.26521 0
M  V30 1076 H 110.995 -0.468783 -3.74981 0
M  V30 1077 H 111.308 -1.57597 -7.5656 0
M  V30 1078 H 109.653 -1.4105 -6.80536 0
M  V30 1079 H 112.844 -0.664184 -4.63364 0
M  V30 1080 H 113.017 -1.16884 -6.37371 0
M  V30 1081 N 106.423 1.57458 -0.0668435 0
M  V30 1082 C 107.839 1.56947 0.289772 0
M  V30 1083 C 108.039 1.07584 1.70376 0
M  V30 1084 O 107.095 0.739486 2.41429 0
M  V30 1085 C 108.408 3.0052 0.103943 0
M  V30 1086 C 109.956 3.12517 0.173857 0
M  V30 1087 C 110.431 4.57997 0.0163682 0
M  V30 1088 N 111.922 4.63144 0.0721352 0
M  V30 1089 C 112.657 5.73394 -0.0253794 0
M  V30 1090 N 112.153 6.92576 -0.176133 0
M  V30 1091 N 113.946 5.62091 0.0313305 0
M  V30 1092 H 106.097 1.87863 -0.991027 0
M  V30 1093 H 108.36 0.86583 -0.38606 0
M  V30 1094 H 108.066 3.40729 -0.871572 0
M  V30 1095 H 107.94 3.67304 0.858366 0
M  V30 1096 H 110.327 2.72197 1.13985 0
M  V30 1097 H 110.408 2.48381 -0.611586 0
M  V30 1098 H 110.052 4.99005 -0.946374 0
M  V30 1099 H 109.982 5.20158 0.821153 0
M  V30 1100 H 112.473 3.77436 0.187263 0
M  V30 1101 H 112.786 7.72418 -0.242821 0
M  V30 1102 H 111.131 6.94678 -0.211429 0
M  V30 1103 H 114.322 4.67867 0.147773 0
M  V30 1104 H 114.495 6.47982 -0.048121 0
M  V30 1105 N 107.901 -0.206675 1.56239 0
M  V30 1106 C 109.131 -0.943975 1.83773 0
M  V30 1107 C 109.539 -1.77841 0.645703 0
M  V30 1108 O 108.882 -1.79403 -0.395008 0
M  V30 1109 C 108.944 -1.899 3.05251 0
M  V30 1110 C 108.608 -1.24764 4.39639 0
M  V30 1111 C 109.605 -0.630216 5.16066 0
M  V30 1112 C 107.29 -1.25496 4.8637 0
M  V30 1113 C 109.284 -0.0287946 6.37393 0
M  V30 1114 C 106.971 -0.649698 6.07637 0
M  V30 1115 C 107.969 -0.0376845 6.8299 0
M  V30 1116 O 107.657 0.55812 8.0196 0
M  V30 1117 H 107.389 -0.281508 0.614597 0
M  V30 1118 H 109.943 -0.222458 2.04192 0
M  V30 1119 H 108.173 -2.6599 2.80689 0
M  V30 1120 H 109.862 -2.5031 3.1953 0
M  V30 1121 H 110.628 -0.616785 4.81062 0
M  V30 1122 H 106.507 -1.72072 4.27683 0
M  V30 1123 H 110.051 0.449518 6.9615 0
M  V30 1124 H 105.948 -0.660592 6.42111 0
M  V30 1125 H 106.716 0.453891 8.17241 0
M  V30 1126 N 109.379 -1.50304 -0.473955 0
M  V30 1127 C 110.626 -1.6115 -1.22625 0
M  V30 1128 C 110.954 -0.310517 -1.92005 0
M  V30 1129 O 110.209 0.703419 -1.82621 0
M  V30 1130 C 110.508 -2.73938 -2.29549 0
M  V30 1131 C 110.174 -4.14519 -1.7744 0
M  V30 1132 C 108.836 -4.5277 -1.62949 0
M  V30 1133 C 111.188 -5.02392 -1.3875 0
M  V30 1134 C 108.516 -5.76639 -1.08187 0
M  V30 1135 C 110.868 -6.26805 -0.854309 0
M  V30 1136 C 109.532 -6.63861 -0.696011 0
M  V30 1137 H 108.802 -0.589691 -0.448715 0
M  V30 1138 H 111.449 -1.84228 -0.522705 0
M  V30 1139 H 109.754 -2.44937 -3.05799 0
M  V30 1140 H 111.451 -2.79534 -2.87509 0
M  V30 1141 H 108.041 -3.8434 -1.89685 0
M  V30 1142 H 112.225 -4.73474 -1.4878 0
M  V30 1143 H 107.481 -6.04027 -0.946666 0
M  V30 1144 H 111.655 -6.94258 -0.545843 0
M  V30 1145 H 109.282 -7.59722 -0.26952 0
M  V30 1146 N 110.857 0.726932 -1.39834 0
M  V30 1147 C 111.804 1.841 -1.39197 0
M  V30 1148 C 112.774 1.642 -0.250502 0
M  V30 1149 O 113.959 1.85494 -0.446846 0
M  V30 1150 C 111.099 3.21697 -1.24919 0
M  V30 1151 C 110.212 3.53247 -2.48678 0
M  V30 1152 C 109.347 4.80289 -2.26928 0
M  V30 1153 C 108.386 5.04707 -3.4632 0
M  V30 1154 N 107.523 6.22956 -3.23836 0
M  V30 1155 H 112.363 1.83979 -2.34427 0
M  V30 1156 H 109.9 0.898876 -1.16442 0
M  V30 1157 H 111.858 4.01137 -1.1465 0
M  V30 1158 H 110.488 3.21076 -0.333153 0
M  V30 1159 H 109.54 2.68447 -2.69519 0
M  V30 1160 H 110.852 3.67205 -3.37582 0
M  V30 1161 H 110.006 5.67725 -2.13947 0
M  V30 1162 H 108.745 4.68519 -1.35431 0
M  V30 1163 H 107.75 4.1573 -3.5979 0
M  V30 1164 H 108.975 5.18357 -4.38729 0
M  V30 1165 H 106.921 6.12459 -2.35011 0
M  V30 1166 H 106.838 6.37539 -4.063 0
M  V30 1167 H 108.106 7.1321 -3.14566 0
M  V30 1168 N 112.336 1.25143 0.95797 0
M  V30 1169 C 113.266 1.07711 2.07173 0
M  V30 1170 C 114.247 -0.0128462 1.70095 0
M  V30 1171 O 115.432 0.156061 1.93572 0
M  V30 1172 C 112.562 0.691503 3.40346 0
M  V30 1173 C 111.516 1.73132 3.9142 0
M  V30 1174 C 110.842 1.20049 5.21049 0
M  V30 1175 C 112.142 3.1294 4.1817 0
M  V30 1176 H 113.836 2.00873 2.22014 0
M  V30 1177 H 111.382 0.967191 1.06684 0
M  V30 1178 H 113.335 0.556505 4.17709 0
M  V30 1179 H 112.059 -0.275819 3.25433 0
M  V30 1180 H 110.718 1.8547 3.16222 0
M  V30 1181 H 110.366 0.223499 5.02503 0
M  V30 1182 H 110.066 1.89545 5.56189 0
M  V30 1183 H 111.59 1.07782 6.01012 0
M  V30 1184 H 113.004 3.03775 4.86203 0
M  V30 1185 H 111.401 3.79875 4.64559 0
M  V30 1186 H 112.471 3.6025 3.24573 0
M  V30 1187 N 113.814 -1.1601 1.06675 0
M  V30 1188 C 115.23 -1.38622 0.790948 0
M  V30 1189 C 115.43 -1.92109 -0.607965 0
M  V30 1190 O 114.486 -2.12239 -1.36787 0
M  V30 1191 C 115.799 -2.36347 1.85905 0
M  V30 1192 C 117.347 -2.50023 1.88301 0
M  V30 1193 C 117.822 -3.51033 2.94176 0
M  V30 1194 N 119.313 -3.58563 2.93235 0
M  V30 1195 C 120.048 -4.36521 3.71803 0
M  V30 1196 N 119.544 -5.17869 4.602 0
M  V30 1197 N 121.337 -4.31541 3.60178 0
M  V30 1198 H 113.488 -0.796294 1.96908 0
M  V30 1199 H 115.751 -0.412597 0.853503 0
M  V30 1200 H 115.457 -2.04147 2.86386 0
M  V30 1201 H 115.331 -3.36042 1.71334 0
M  V30 1202 H 117.718 -2.81524 0.884769 0
M  V30 1203 H 117.799 -1.5035 2.06951 0
M  V30 1204 H 117.443 -3.20268 3.94196 0
M  V30 1205 H 117.373 -4.50445 2.72776 0
M  V30 1206 H 119.864 -3.00496 2.29152 0
M  V30 1207 H 120.177 -5.74578 5.16797 0
M  V30 1208 H 118.522 -5.17199 4.64253 0
M  V30 1209 H 121.713 -3.67051 2.90502 0
M  V30 1210 H 121.886 -4.9205 4.21653 0
M  V30 1211 N 115.292 -0.849877 -1.32721 0
M  V30 1212 C 116.54 -0.450032 -1.97026 0
M  V30 1213 C 116.861 0.996604 -1.67609 0
M  V30 1214 O 116.131 1.6958 -0.980786 0
M  V30 1215 H 114.711 -0.163426 -0.728904 0
M  V30 1216 H 117.373 -1.08526 -1.6189 0
M  V30 1217 H 116.469 -0.591146 -3.0645 0
M  V30 1218 N 116.77 1.45427 -0.607355 0
M  V30 1219 C 118.186 1.57283 -0.270985 0
M  V30 1220 C 118.386 1.59875 1.22647 0
M  V30 1221 O 117.442 1.52893 2.00948 0
M  V30 1222 C 118.755 2.85566 -0.941952 0
M  V30 1223 C 120.303 2.9924 -0.917849 0
M  V30 1224 C 120.778 4.30293 -1.56882 0
M  V30 1225 N 122.269 4.37051 -1.5343 0
M  V30 1226 C 123.004 5.37123 -2.00715 0
M  V30 1227 N 122.5 6.43734 -2.56084 0
M  V30 1228 N 124.293 5.28479 -1.91484 0
M  V30 1229 H 116.444 1.41988 -1.57966 0
M  V30 1230 H 118.707 0.67885 -0.661715 0
M  V30 1231 H 118.413 2.8955 -1.99633 0
M  V30 1232 H 118.287 3.74322 -0.465096 0
M  V30 1233 H 120.674 2.94822 0.127984 0
M  V30 1234 H 120.755 2.11895 -1.43297 0
M  V30 1235 H 120.399 4.35469 -2.61398 0
M  V30 1236 H 120.329 5.16454 -1.02873 0
M  V30 1237 H 122.82 3.60615 -1.12982 0
M  V30 1238 H 123.133 7.16341 -2.89958 0
M  V30 1239 H 121.478 6.44485 -2.60122 0
M  V30 1240 H 124.669 4.44098 -1.47967 0
M  V30 1241 H 124.842 6.0632 -2.28648 0
M  V30 1242 N 118.248 0.346503 1.53744 0
M  V30 1243 C 119.476 -0.25041 2.05379 0
M  V30 1244 C 119.891 -1.43979 1.22129 0
M  V30 1245 O 119.248 -1.80677 0.257321 0
M  V30 1246 C 119.299 -0.662575 3.55376 0
M  V30 1247 O 119.02 0.479515 4.35468 0
M  V30 1248 C 120.521 -1.31989 4.23195 0
M  V30 1249 H 117.741 -0.0478198 0.669294 0
M  V30 1250 H 120.285 0.499346 1.9831 0
M  V30 1251 H 118.44 -1.36227 3.62658 0
M  V30 1252 H 118.854 0.15037 5.24284 0
M  V30 1253 H 120.328 -1.55902 5.29527 0
M  V30 1254 H 120.805 -2.27436 3.75725 0
M  V30 1255 H 121.411 -0.662154 4.20114 0
M  V30 1256 N 119.726 -1.57421 0.075193 0
M  V30 1257 C 120.656 -2.15942 -0.888324 0
M  V30 1258 C 121.637 -1.08737 -1.30806 0
M  V30 1259 O 122.822 -1.36787 -1.37851 0
M  V30 1260 C 119.952 -2.72379 -2.1547 0
M  V30 1261 C 118.906 -3.8478 -1.87425 0
M  V30 1262 C 118.232 -4.27834 -3.20721 0
M  V30 1263 C 119.532 -5.08869 -1.17684 0
M  V30 1264 H 121.226 -2.96705 -0.400799 0
M  V30 1265 H 118.772 -1.42723 -0.191342 0
M  V30 1266 H 120.725 -3.11965 -2.83295 0
M  V30 1267 H 119.449 -1.88841 -2.6647 0
M  V30 1268 H 118.108 -3.45703 -1.22004 0
M  V30 1269 H 117.756 -3.41214 -3.6957 0
M  V30 1270 H 117.456 -5.03605 -3.02746 0
M  V30 1271 H 118.98 -4.70039 -3.89738 0
M  V30 1272 H 120.394 -5.4575 -1.75584 0
M  V30 1273 H 118.791 -5.8994 -1.09956 0
M  V30 1274 H 119.861 -4.84648 -0.156453 0
M  V30 1275 N 121.204 0.198386 -1.56346 0
M  V30 1276 C 122.434 0.934215 -1.84271 0
M  V30 1277 C 122.842 1.77496 -0.655125 0
M  V30 1278 O 122.185 1.7961 0.385488 0
M  V30 1279 C 122.247 1.88278 -3.06254 0
M  V30 1280 C 121.911 1.22431 -4.40295 0
M  V30 1281 C 122.908 0.602839 -5.16393 0
M  V30 1282 C 120.593 1.22915 -4.87029 0
M  V30 1283 C 122.587 -0.0050083 -6.374 0
M  V30 1284 C 120.274 0.617465 -6.07973 0
M  V30 1285 C 121.272 0.00146341 -6.83 0
M  V30 1286 O 120.96 -0.600642 -8.01653 0
M  V30 1287 H 120.692 0.278245 -0.616081 0
M  V30 1288 H 123.246 0.211626 -2.04307 0
M  V30 1289 H 121.476 2.64498 -2.82095 0
M  V30 1290 H 123.165 2.48612 -3.20853 0
M  V30 1291 H 123.931 0.591265 -4.81382 0
M  V30 1292 H 119.81 1.69801 -4.28589 0
M  V30 1293 H 123.354 -0.48643 -6.95902 0
M  V30 1294 H 119.251 0.62653 -6.42452 0
M  V30 1295 H 120.019 -0.497225 -8.16988 0
M  V30 1296 N 122.682 1.50554 0.465978 0
M  V30 1297 C 123.912 1.65323 1.23903 0
M  V30 1298 C 124.32 0.338051 1.86155 0
M  V30 1299 O 123.663 -0.690518 1.70228 0
M  V30 1300 C 123.725 2.69048 2.3844 0
M  V30 1301 C 123.389 4.12462 1.96784 0
M  V30 1302 C 124.386 4.98168 1.48745 0
M  V30 1303 C 122.071 4.58407 2.05349 0
M  V30 1304 C 124.065 6.27868 1.0982 0
M  V30 1305 C 121.752 5.88112 1.66035 0
M  V30 1306 C 122.75 6.72668 1.18349 0
M  V30 1307 O 122.438 7.99951 0.795825 0
M  V30 1308 H 122.17 0.558629 0.38067 0
M  V30 1309 H 124.724 1.97561 0.562022 0
M  V30 1310 H 122.954 2.32062 3.09328 0
M  V30 1311 H 124.643 2.72985 3.0039 0
M  V30 1312 H 125.409 4.63885 1.41546 0
M  V30 1313 H 121.288 3.92735 2.41414 0
M  V30 1314 H 124.832 6.93819 0.725293 0
M  V30 1315 H 120.729 6.21914 1.72895 0
M  V30 1316 H 121.497 8.13265 0.924222 0
M  V30 1317 N 124.16 -0.719506 1.40217 0
M  V30 1318 C 125.123 -1.8153 1.39927 0
M  V30 1319 C 126.123 -1.58095 0.293723 0
M  V30 1320 O 127.313 -1.65209 0.552429 0
M  V30 1321 C 124.445 -3.19561 1.18716 0
M  V30 1322 H 125.638 -1.83186 2.37451 0
M  V30 1323 H 123.191 -0.924746 1.26008 0
M  V30 1324 H 123.926 -3.23557 0.219366 0
M  V30 1325 H 123.711 -3.3797 1.98793 0
M  V30 1326 H 125.201 -3.99598 1.21291 0
M  V30 1327 N 125.638 -1.25649 -0.95132 0
M  V30 1328 C 126.585 -1.06323 -2.04851 0
M  V30 1329 C 127.555 0.0286491 -1.66075 0
M  V30 1330 O 128.74 -0.12917 -1.90362 0
M  V30 1331 C 125.88 -0.691529 -3.381 0
M  V30 1332 C 124.993 -1.85861 -3.89974 0
M  V30 1333 C 124.128 -1.43096 -5.11563 0
M  V30 1334 C 123.167 -2.56696 -5.55674 0
M  V30 1335 N 122.304 -2.14684 -6.68472 0
M  V30 1336 H 127.144 -2.00222 -2.20715 0
M  V30 1337 H 124.681 -0.997027 -1.08156 0
M  V30 1338 H 126.639 -0.456963 -4.1469 0
M  V30 1339 H 125.269 0.210474 -3.22113 0
M  V30 1340 H 124.321 -2.20639 -3.09875 0
M  V30 1341 H 125.633 -2.71161 -4.18657 0
M  V30 1342 H 124.787 -1.15624 -5.9558 0
M  V30 1343 H 123.526 -0.548722 -4.84603 0
M  V30 1344 H 122.531 -2.84909 -4.7022 0
M  V30 1345 H 123.756 -3.45503 -5.8464 0
M  V30 1346 H 121.702 -1.28881 -6.43215 0
M  V30 1347 H 121.619 -2.9353 -6.96689 0
M  V30 1348 H 122.887 -1.90397 -7.5589 0
M  V30 1349 N 127.117 1.15442 -1.07289 0
M  V30 1350 C 128.345 1.90096 -0.81676 0
M  V30 1351 C 128.76 1.7798 0.629966 0
M  V30 1352 O 128.117 1.1313 1.43206 0
M  V30 1353 C 128.168 3.40466 -1.21512 0
M  V30 1354 O 127.889 3.52232 -2.60508 0
M  V30 1355 C 129.39 4.32145 -0.988198 0
M  V30 1356 H 126.61 0.602495 -0.295366 0
M  V30 1357 H 129.154 1.4627 -1.42918 0
M  V30 1358 H 127.309 3.81958 -0.647039 0
M  V30 1359 H 127.723 4.45549 -2.76742 0
M  V30 1360 H 129.197 5.36072 -1.31645 0
M  V30 1361 H 129.674 4.39135 0.0755063 0
M  V30 1362 H 130.28 3.96395 -1.54115 0
M  V30 1363 N 128.595 0.856903 1.32268 0
M  V30 1364 C 129.558 0.308171 2.27119 0
M  V30 1365 C 130.558 -0.533421 1.51695 0
M  V30 1366 O 131.748 -0.344607 1.70757 0
M  V30 1367 C 128.88 -0.563757 3.36206 0
M  V30 1368 H 130.073 1.14535 2.77167 0
M  V30 1369 H 127.626 0.631421 1.42978 0
M  V30 1370 H 128.361 -1.42266 2.91429 0
M  V30 1371 H 128.146 0.0386749 3.92081 0
M  V30 1372 H 129.636 -0.940386 4.06874 0
M  V30 1373 N 130.073 -1.45103 0.615059 0
M  V30 1374 C 131.02 -2.30586 -0.0993978 0
M  V30 1375 C 131.99 -1.42544 -0.852669 0
M  V30 1376 O 133.175 -1.71465 -0.836917 0
M  V30 1377 C 130.315 -3.27572 -1.08583 0
M  V30 1378 C 129.428 -4.30717 -0.332656 0
M  V30 1379 C 128.563 -5.14807 -1.30947 0
M  V30 1380 C 127.602 -6.09673 -0.544538 0
M  V30 1381 N 126.739 -6.86517 -1.47101 0
M  V30 1382 H 131.579 -2.91144 0.635542 0
M  V30 1383 H 129.116 -1.4346 0.325206 0
M  V30 1384 H 131.074 -3.82276 -1.67095 0
M  V30 1385 H 129.704 -2.68751 -1.78809 0
M  V30 1386 H 128.756 -3.78615 0.368107 0
M  V30 1387 H 130.068 -4.98102 0.263842 0
M  V30 1388 H 129.222 -5.73948 -1.96643 0
M  V30 1389 H 127.961 -4.47458 -1.9399 0
M  V30 1390 H 126.966 -5.49656 0.126003 0
M  V30 1391 H 128.191 -6.79052 0.080947 0
M  V30 1392 H 126.137 -6.21851 -2.08895 0
M  V30 1393 H 126.054 -7.50281 -0.928137 0
M  V30 1394 H 127.322 -7.50194 -2.11731 0
M  V30 1395 N 131.551 -0.354651 -1.53558 0
M  V30 1396 C 132.776 0.242153 -2.05981 0
M  V30 1397 C 133.201 1.42553 -1.2272 0
M  V30 1398 O 132.559 1.79656 -0.243604 0
M  V30 1399 C 132.607 0.624367 -3.55154 0
M  V30 1400 O 131.711 1.72301 -3.74681 0
M  V30 1401 H 131.052 0.0378432 -0.662921 0
M  V30 1402 H 133.582 -0.512087 -1.98088 0
M  V30 1403 H 133.592 0.898433 -3.97985 0
M  V30 1404 H 132.267 -0.240989 -4.15201 0
M  V30 1405 H 130.844 1.44535 -3.4375 0
M  V30 1406 N 133.029 1.57378 -0.0835403 0
M  V30 1407 C 134.278 1.93106 0.582498 0
M  V30 1408 C 134.591 0.96651 1.70053 0
M  V30 1409 O 135.797 1.21705 2.42693 0
M  V30 1410 C 134.253 3.43076 1.08751 0
M  V30 1411 C 133.861 4.48 -0.000146404 0
M  V30 1412 C 135.605 3.87785 1.72694 0
M  V30 1413 C 133.512 5.89113 0.519568 0
M  V30 1414 H 132.442 0.720775 0.221358 0
M  V30 1415 H 135.093 1.82821 -0.157675 0
M  V30 1416 H 133.475 3.48474 1.88101 0
M  V30 1417 H 134.649 4.54233 -0.775199 0
M  V30 1418 H 132.964 4.1283 -0.54406 0
M  V30 1419 H 135.561 4.90604 2.1263 0
M  V30 1420 H 135.904 3.25796 2.59158 0
M  V30 1421 H 136.437 3.8504 0.999457 0
M  V30 1422 H 133.176 6.54775 -0.308186 0
M  V30 1423 H 132.696 5.86376 1.26188 0
M  V30 1424 H 134.375 6.39346 0.992237 0
M  V30 1425 N 134.507 -0.190092 1.56449 0
M  V30 1426 C 135.756 -0.907912 1.80111 0
M  V30 1427 C 136.069 -1.84214 0.657619 0
M  V30 1428 O 137.275 -2.60094 0.778663 0
M  V30 1429 C 135.731 -1.66485 3.19078 0
M  V30 1430 C 135.339 -0.7752 4.41242 0
M  V30 1431 C 137.083 -2.37201 3.52045 0
M  V30 1432 C 134.99 -1.53129 5.71231 0
M  V30 1433 H 133.92 -0.34276 0.671589 0
M  V30 1434 H 136.571 -0.161109 1.82791 0
M  V30 1435 H 134.953 -2.45572 3.10661 0
M  V30 1436 H 136.127 -0.0226298 4.60794 0
M  V30 1437 H 134.442 -0.178627 4.16017 0
M  V30 1438 H 137.039 -2.94329 4.46402 0
M  V30 1439 H 137.382 -3.11632 2.76028 0
M  V30 1440 H 137.915 -1.65075 3.61932 0
M  V30 1441 H 134.654 -0.82967 6.50228 0
M  V30 1442 H 134.174 -2.25767 5.55688 0
M  V30 1443 H 135.853 -2.08377 6.12526 0
M  V30 1444 N 135.985 -1.50799 -0.457987 0
M  V30 1445 C 137.232 -1.62442 -1.20908 0
M  V30 1446 C 137.56 -0.330865 -1.91665 0
M  V30 1447 O 136.815 0.68401 -1.83357 0
M  V30 1448 C 137.114 -2.76358 -2.2663 0
M  V30 1449 C 136.78 -4.16378 -1.73033 0
M  V30 1450 C 135.442 -4.54473 -1.58138 0
M  V30 1451 C 137.794 -5.03836 -1.33413 0
M  V30 1452 C 135.122 -5.77754 -1.02065 0
M  V30 1453 C 137.474 -6.27676 -0.78778 0
M  V30 1454 C 136.138 -6.64562 -0.625561 0
M  V30 1455 H 135.408 -0.594417 -0.442435 0
M  V30 1456 H 138.055 -1.84772 -0.503136 0
M  V30 1457 H 136.36 -2.48167 -3.03184 0
M  V30 1458 H 138.057 -2.82568 -2.84528 0
M  V30 1459 H 134.647 -3.86331 -1.85598 0
M  V30 1460 H 138.831 -4.75026 -1.4375 0
M  V30 1461 H 134.087 -6.04997 -0.882547 0
M  V30 1462 H 138.261 -6.94797 -0.472177 0
M  V30 1463 H 135.888 -7.59965 -0.188926 0
M  V30 1464 N 137.463 0.71206 -1.40597 0
M  V30 1465 C 138.74 1.46536 -1.29563 0
M  V30 1466 C 139.12 2.10931 0.0844217 0
M  V30 1467 O 138.468 2.00418 1.0975 0
M  V30 1468 C 138.678 2.49821 -2.43701 0
M  V30 1469 C 140.026 3.15551 -2.841 0
M  V30 1470 O 141.05 2.60142 -2.4332 0
M  V30 1471 O 139.909 4.15867 -3.54566 0
M  V30 1472 H 137.003 0.651801 -0.509004 0
M  V30 1473 H 139.549 0.743935 -1.52524 0
M  V30 1474 H 138.321 2.00778 -3.35863 0
M  V30 1475 H 137.944 3.29495 -2.22528 0
M  V30 1476 N 138.941 1.26152 0.944643 0
M  V30 1477 C 139.851 1.09176 2.07648 0
M  V30 1478 C 140.867 0.0261935 1.7398 0
M  V30 1479 O 142.043 0.229208 2.00091 0
M  V30 1480 C 139.108 0.722915 3.39079 0
M  V30 1481 C 138.169 1.86752 3.86552 0
M  V30 1482 C 137.402 1.51617 5.11711 0
M  V30 1483 O 137.625 0.416331 5.68879 0
M  V30 1484 O 136.559 2.34975 5.54139 0
M  V30 1485 H 140.385 2.0412 2.24875 0
M  V30 1486 H 137.97 1.05182 1.061 0
M  V30 1487 H 139.852 0.529787 4.18056 0
M  V30 1488 H 138.527 -0.197159 3.23099 0
M  V30 1489 H 137.434 2.11558 3.08535 0
M  V30 1490 H 138.767 2.76719 4.07047 0
M  V30 1491 N 140.419 -1.14872 1.07899 0
M  V30 1492 C 141.665 -1.86064 0.806725 0
M  V30 1493 C 141.998 -1.82434 -0.665706 0
M  V30 1494 O 141.273 -1.25138 -1.48899 0
M  V30 1495 C 141.556 -3.34929 1.32267 0
M  V30 1496 C 141.409 -3.47161 2.86006 0
M  V30 1497 C 142.728 -4.29863 0.943717 0
M  V30 1498 H 139.847 -0.675591 0.294526 0
M  V30 1499 H 142.489 -1.34925 1.33773 0
M  V30 1500 H 140.639 -3.78611 0.870974 0
M  V30 1501 H 142.311 -3.12302 3.39507 0
M  V30 1502 H 140.554 -2.88539 3.23925 0
M  V30 1503 H 141.225 -4.51777 3.17177 0
M  V30 1504 H 143.701 -3.9417 1.33302 0
M  V30 1505 H 142.577 -5.32494 1.33198 0
M  V30 1506 H 142.838 -4.41846 -0.149796 0
M  V30 1507 N 141.898 -0.863906 -1.31812 0
M  V30 1508 C 143.175 -0.39275 -1.91616 0
M  V30 1509 C 143.555 1.12461 -1.7865 0
M  V30 1510 O 142.903 1.95045 -1.19037 0
M  V30 1511 C 143.113 -0.867385 -3.38049 0
M  V30 1512 C 144.461 -0.889966 -4.15168 0
M  V30 1513 O 145.485 -0.812635 -3.46806 0
M  V30 1514 O 144.344 -1.00079 -5.37258 0
M  V30 1515 H 141.438 -0.116358 -0.818773 0
M  V30 1516 H 143.984 -0.951418 -1.40521 0
M  V30 1517 H 142.756 -1.91081 -3.41473 0
M  V30 1518 H 142.379 -0.286687 -3.96565 0
M  V30 1519 N 143.376 1.44774 -0.622745 0
M  V30 1520 C 144.306 2.33382 0.0741861 0
M  V30 1521 C 145.287 1.47719 0.843387 0
M  V30 1522 O 146.472 1.76458 0.810934 0
M  V30 1523 C 143.602 3.30663 1.06204 0
M  V30 1524 C 142.556 4.26079 0.405037 0
M  V30 1525 C 141.882 5.13165 1.5022 0
M  V30 1526 C 143.182 5.1781 -0.683414 0
M  V30 1527 H 144.876 2.91905 -0.665713 0
M  V30 1528 H 142.422 1.40363 -0.321587 0
M  V30 1529 H 144.375 3.9153 1.55827 0
M  V30 1530 H 143.099 2.70331 1.83272 0
M  V30 1531 H 141.758 3.66532 -0.0704683 0
M  V30 1532 H 141.406 4.49191 2.26355 0
M  V30 1533 H 141.106 5.77812 1.06803 0
M  V30 1534 H 142.63 5.76902 2.00041 0
M  V30 1535 H 144.044 5.72661 -0.270631 0
M  V30 1536 H 142.441 5.91015 -1.04023 0
M  V30 1537 H 143.511 4.59326 -1.55395 0
M  V30 1538 N 144.854 0.36279 1.53368 0
M  V30 1539 C 146.082 -0.228613 2.05633 0
M  V30 1540 C 146.497 -1.42676 1.23649 0
M  V30 1541 O 145.854 -1.80394 0.27647 0
M  V30 1542 C 145.905 -0.624845 3.56059 0
M  V30 1543 O 145.626 0.525675 4.34935 0
M  V30 1544 C 147.127 -1.27493 4.24571 0
M  V30 1545 H 144.347 -0.0407183 0.669763 0
M  V30 1546 H 146.891 0.520352 1.97769 0
M  V30 1547 H 145.046 -1.32373 3.64083 0
M  V30 1548 H 145.46 0.205969 5.24095 0
M  V30 1549 H 146.934 -1.50277 5.31151 0
M  V30 1550 H 147.411 -2.23439 3.78116 0
M  V30 1551 H 148.017 -0.617558 4.20792 0
M  V30 1552 N 146.332 -1.57332 0.0918853 0
M  V30 1553 C 147.609 -1.85691 -0.614668 0
M  V30 1554 C 147.989 -0.988146 -1.86545 0
M  V30 1555 O 147.337 -0.0597055 -2.28422 0
M  V30 1556 C 147.547 -3.36294 -0.933126 0
M  V30 1557 C 148.895 -4.04275 -1.29796 0
M  V30 1558 O 149.919 -3.41157 -1.02424 0
M  V30 1559 O 148.778 -5.1564 -1.81047 0
M  V30 1560 H 145.872 -0.767802 -0.307261 0
M  V30 1561 H 148.418 -1.69244 0.12434 0
M  V30 1562 H 147.19 -3.91273 -0.0456404 0
M  V30 1563 H 146.813 -3.58076 -1.72822 0
M  V30 1564 N 147.81 0.181792 -1.56548 0
M  V30 1565 C 148.773 1.20894 -1.94724 0
M  V30 1566 C 149.773 1.37738 -0.829747 0
M  V30 1567 O 150.963 1.35323 -1.09697 0
M  V30 1568 C 148.095 2.57593 -2.23291 0
M  V30 1569 H 149.288 0.882275 -2.86629 0
M  V30 1570 H 146.841 0.423838 -1.50444 0
M  V30 1571 H 147.576 2.95291 -1.34067 0
M  V30 1572 H 147.361 2.46735 -3.04736 0
M  V30 1573 H 148.851 3.31637 -2.53785 0
M  V30 1574 N 149.288 1.51039 0.449983 0
M  V30 1575 C 150.513 1.6715 1.22783 0
M  V30 1576 C 150.938 0.363081 1.84563 0
M  V30 1577 O 150.296 -0.675433 1.68249 0
M  V30 1578 C 150.344 2.77985 2.29689 0
M  V30 1579 O 149.448 2.40707 3.34864 0
M  V30 1580 H 148.789 0.557746 0.360299 0
M  V30 1581 H 151.319 1.97535 0.533005 0
M  V30 1582 H 151.329 3.01693 2.74673 0
M  V30 1583 H 150.004 3.72935 1.84098 0
M  V30 1584 H 148.581 2.27523 2.95445 0
M  V30 1585 N 150.766 -0.704594 1.40972 0
M  V30 1586 C 152.012 -1.46675 1.40051 0
M  V30 1587 C 152.345 -1.94199 0.00641102 0
M  V30 1588 O 151.62 -1.68916 -0.964235 0
M  V30 1589 C 151.903 -2.68505 2.39952 0
M  V30 1590 C 151.756 -2.26805 3.88432 0
M  V30 1591 C 153.075 -3.70686 2.37233 0
M  V30 1592 H 150.194 -0.532015 0.510028 0
M  V30 1593 H 152.836 -0.803255 1.72185 0
M  V30 1594 H 150.986 -3.25114 2.1268 0
M  V30 1595 H 152.658 -1.75592 4.26574 0
M  V30 1596 H 150.901 -1.58685 4.03734 0
M  V30 1597 H 151.572 -3.14181 4.53866 0
M  V30 1598 H 154.048 -3.23731 2.61415 0
M  V30 1599 H 152.924 -4.53553 3.09162 0
M  V30 1600 H 153.185 -4.19754 1.38777 0
M  V30 1601 N 152.244 -1.26651 -0.937939 0
M  V30 1602 C 153.207 -1.08546 -2.01867 0
M  V30 1603 C 154.207 -0.0327327 -1.60767 0
M  V30 1604 O 155.397 -0.276427 -1.71993 0
M  V30 1605 C 152.529 -0.651711 -3.34613 0
M  V30 1606 H 153.722 -2.04502 -2.1936 0
M  V30 1607 H 151.275 -1.09294 -1.11734 0
M  V30 1608 H 152.01 0.309696 -3.22818 0
M  V30 1609 H 151.795 -1.41189 -3.65798 0
M  V30 1610 H 153.285 -0.546973 -4.14002 0
M  V30 1611 N 153.722 1.14298 -1.08507 0
M  V30 1612 C 154.632 2.23027 -0.727753 0
M  V30 1613 C 155.648 1.71952 0.26619 0
M  V30 1614 O 156.824 2.011 0.109882 0
M  V30 1615 C 153.889 3.46403 -0.143541 0
M  V30 1616 C 152.95 4.12413 -1.19223 0
M  V30 1617 C 152.183 5.29899 -0.635798 0
M  V30 1618 O 152.406 5.67796 0.544393 0
M  V30 1619 O 151.34 5.85717 -1.38634 0
M  V30 1620 H 155.166 2.55945 -1.63481 0
M  V30 1621 H 152.751 1.22248 -0.858817 0
M  V30 1622 H 154.633 4.21018 0.179404 0
M  V30 1623 H 153.308 3.15206 0.736659 0
M  V30 1624 H 152.215 3.39667 -1.56772 0
M  V30 1625 H 153.548 4.47718 -2.04474 0
M  V30 1626 N 155.201 0.870884 1.31352 0
M  V30 1627 C 156.426 0.495957 2.01383 0
M  V30 1628 C 156.851 -0.904324 1.64935 0
M  V30 1629 O 156.209 -1.59687 0.858466 0
M  V30 1630 C 156.257 0.661433 3.54482 0
M  V30 1631 O 155.361 -0.298851 4.11316 0
M  V30 1632 H 154.702 0.197158 0.634054 0
M  V30 1633 H 157.232 1.17455 1.67527 0
M  V30 1634 H 157.242 0.555072 4.04207 0
M  V30 1635 H 155.917 1.68246 3.8035 0
M  V30 1636 H 154.494 -0.147368 3.72609 0
M  V30 1637 N 156.679 -1.44442 0.630414 0
M  V30 1638 C 157.904 -2.06927 0.139944 0
M  V30 1639 C 158.329 -1.46795 -1.17613 0
M  V30 1640 O 157.687 -0.569144 -1.72135 0
M  V30 1641 C 157.735 -3.6058 0.0379581 0
M  V30 1642 O 156.839 -3.99937 -1.0062 0
M  V30 1643 H 156.18 -0.658608 0.0844483 0
M  V30 1644 H 158.71 -1.85327 0.866891 0
M  V30 1645 H 158.72 -4.07714 -0.152856 0
M  V30 1646 H 157.395 -4.03728 0.998809 0
M  V30 1647 H 155.972 -3.64436 -0.79001 0
M  V30 1648 N 158.157 -0.370918 -1.53173 0
M  V30 1649 C 159.385 0.217704 -2.05751 0
M  V30 1650 C 159.8 1.42018 -1.24404 0
M  V30 1651 O 159.157 1.80245 -0.286033 0
M  V30 1652 C 159.208 0.605954 -3.56385 0
M  V30 1653 O 158.929 -0.548734 -4.3465 0
M  V30 1654 C 160.43 1.2524 -4.25241 0
M  V30 1655 H 157.65 0.0371659 -0.66997 0
M  V30 1656 H 160.194 -0.530832 -1.9749 0
M  V30 1657 H 158.349 1.3044 -3.6478 0
M  V30 1658 H 158.763 -0.23376 -5.23979 0
M  V30 1659 H 160.237 1.47458 -5.3194 0
M  V30 1660 H 160.714 2.2143 -3.79296 0
M  V30 1661 H 161.32 0.595233 -4.21114 0
M  V30 1662 N 159.635 1.57281 -0.100228 0
M  V30 1663 C 160.582 2.14305 0.856858 0
M  V30 1664 C 161.552 1.06296 1.27634 0
M  V30 1665 O 162.737 1.34109 1.35718 0
M  V30 1666 C 159.877 2.73184 2.10866 0
M  V30 1667 C 158.99 3.95442 1.73925 0
M  V30 1668 C 158.125 4.42468 2.93931 0
M  V30 1669 C 157.164 5.57303 2.5314 0
M  V30 1670 N 156.301 5.99158 3.65997 0
M  V30 1671 H 161.141 2.95772 0.363726 0
M  V30 1672 H 158.678 1.46139 0.167858 0
M  V30 1673 H 160.636 3.05442 2.84185 0
M  V30 1674 H 159.266 1.94437 2.57671 0
M  V30 1675 H 158.318 3.69464 0.905554 0
M  V30 1676 H 159.63 4.78769 1.39935 0
M  V30 1677 H 158.784 4.76537 3.75496 0
M  V30 1678 H 157.523 3.58052 3.31134 0
M  V30 1679 H 156.528 5.22857 1.70003 0
M  V30 1680 H 157.753 6.43471 2.17075 0
M  V30 1681 H 155.699 5.17687 4.02909 0
M  V30 1682 H 155.616 6.77295 3.35869 0
M  V30 1683 H 156.884 6.3786 4.48057 0
M  V30 1684 N 161.113 -0.173488 1.56642 0
M  V30 1685 C 162.061 -1.23417 1.97157 0
M  V30 1686 C 163.055 -1.45946 0.860013 0
M  V30 1687 O 164.261 -1.46551 1.04512 0
M  V30 1688 H 160.636 -0.414818 0.62724 0
M  V30 1689 H 162.607 -0.865582 2.8557 0
M  V30 1690 C 161.356 -2.5665 2.34576 0
M  V30 1691 H 160.679 -2.40137 3.19647 0
M  V30 1692 H 162.119 -3.2956 2.6677 0
M  V30 1693 C 160.578 -3.15245 1.18836 0
M  V30 1694 O 161.108 -3.98883 0.474869 0
M  V30 1695 N 159.314 -2.74303 0.959497 0
M  V30 1696 H 158.861 -2.0639 1.54146 0
M  V30 1697 H 158.819 -3.13844 0.186932 0
M  V30 1698 N 162.591 -1.51276 -0.441967 0
M  V30 1699 C 163.837 -1.63958 -1.19355 0
M  V30 1700 C 164.17 -0.352543 -1.90973 0
M  V30 1701 O 163.445 0.647627 -1.83401 0
M  V30 1702 C 163.728 -2.83979 -2.21422 0
M  V30 1703 C 163.581 -4.22646 -1.53918 0
M  V30 1704 C 164.9 -2.99521 -3.22451 0
M  V30 1705 H 162.019 -0.596709 -0.432559 0
M  V30 1706 H 164.661 -1.83748 -0.483398 0
M  V30 1707 H 162.811 -2.67237 -2.81987 0
M  V30 1708 H 164.483 -4.51045 -0.967256 0
M  V30 1709 H 162.726 -4.25558 -0.841615 0
M  V30 1710 H 163.397 -5.02609 -2.28229 0
M  V30 1711 H 165.873 -3.14944 -2.71937 0
M  V30 1712 H 164.749 -3.85072 -3.91166 0
M  V30 1713 H 165.01 -2.11391 -3.88287 0
M  V30 1714 N 164.069 0.697108 -1.41344 0
M  V30 1715 C 165.017 1.83237 -1.43272 0
M  V30 1716 C 166.011 1.66522 -0.310947 0
M  V30 1717 O 167.217 1.73402 -0.482899 0
M  V30 1718 H 163.592 0.603802 -0.448249 0
M  V30 1719 H 165.563 1.78727 -2.38954 0
M  V30 1720 C 164.312 3.21245 -1.33029 0
M  V30 1721 H 163.635 3.34723 -2.18633 0
M  V30 1722 H 165.075 4.00763 -1.38439 0
M  V30 1723 C 163.534 3.36873 -0.0424635 0
M  V30 1724 O 164.064 3.91177 0.913421 0
M  V30 1725 N 162.27 2.90581 0.0331145 0
M  V30 1726 H 161.817 2.46577 -0.745506 0
M  V30 1727 H 161.775 3.01416 0.894199 0
M  V30 1728 N 165.547 1.27147 0.931209 0
M  V30 1729 C 166.495 1.09398 2.05268 0
M  V30 1730 C 167.489 0.0180591 1.6939 0
M  V30 1731 O 168.695 0.17551 1.79142 0
M  V30 1732 H 165.07 0.336986 0.672268 0
M  V30 1733 H 167.041 2.04416 2.17386 0
M  V30 1734 C 165.79 0.75424 3.39421 0
M  V30 1735 H 165.113 1.57404 3.67511 0
M  V30 1736 H 166.553 0.669903 4.18674 0
M  V30 1737 C 165.012 -0.541197 3.32525 0
M  V30 1738 O 165.542 -1.57664 3.69466 0
M  V30 1739 N 163.748 -0.535517 2.85623 0
M  V30 1740 H 163.295 0.307511 2.55758 0
M  V30 1741 H 163.253 -1.40236 2.81392 0
M  V30 1742 N 167.025 -1.13721 1.09112 0
M  V30 1743 C 168.25 -1.89314 0.847053 0
M  V30 1744 C 168.675 -1.78416 -0.595774 0
M  V30 1745 O 168.033 -1.12942 -1.41823 0
M  V30 1746 C 168.081 -3.3701 1.28284 0
M  V30 1747 O 167.185 -4.10054 0.439267 0
M  V30 1748 H 166.526 -0.588745 0.307044 0
M  V30 1749 H 169.056 -1.43902 1.45442 0
M  V30 1750 H 169.066 -3.87834 1.26683 0
M  V30 1751 H 167.741 -3.4426 2.33363 0
M  V30 1752 H 166.318 -3.69266 0.519312 0
M  V30 1753 N 168.503 -0.877838 -1.30888 0
M  V30 1754 C 169.75 -0.492696 -1.96415 0
M  V30 1755 C 170.078 0.956671 -1.69346 0
M  V30 1756 O 169.333 1.68993 -0.986913 0
M  V30 1757 C 169.632 -0.705748 -3.50363 0
M  V30 1758 C 169.298 -2.1291 -3.97467 0
M  V30 1759 C 167.96 -2.51834 -4.1004 0
M  V30 1760 C 170.312 -3.05702 -4.22132 0
M  V30 1761 C 167.64 -3.82775 -4.44635 0
M  V30 1762 C 169.992 -4.36166 -4.58194 0
M  V30 1763 C 168.656 -4.74993 -4.68975 0
M  V30 1764 H 167.926 -0.18029 -0.718733 0
M  V30 1765 H 170.573 -1.11233 -1.55883 0
M  V30 1766 H 168.878 -0.00303058 -3.918 0
M  V30 1767 H 170.575 -0.387456 -3.99124 0
M  V30 1768 H 167.165 -1.81694 -3.88182 0
M  V30 1769 H 171.349 -2.76853 -4.11906 0
M  V30 1770 H 166.605 -4.12609 -4.51181 0
M  V30 1771 H 170.779 -5.08111 -4.76231 0
M  V30 1772 H 168.406 -5.76495 -4.95537 0
M  V30 1773 N 169.982 1.44106 -0.638065 0
M  V30 1774 C 171.21 2.06336 -0.152615 0
M  V30 1775 C 171.625 1.47731 1.17563 0
M  V30 1776 O 170.982 0.602806 1.72257 0
M  V30 1777 C 171.033 3.61479 -0.0391491 0
M  V30 1778 O 170.754 4.17903 -1.31487 0
M  V30 1779 C 172.255 4.40757 0.474176 0
M  V30 1780 H 169.475 0.665862 -0.0828776 0
M  V30 1781 H 172.019 1.84862 -0.87443 0
M  V30 1782 H 170.174 3.82191 0.633142 0
M  V30 1783 H 170.588 5.11416 -1.16421 0
M  V30 1784 H 172.062 5.49707 0.502562 0
M  V30 1785 H 172.539 4.12697 1.50258 0
M  V30 1786 H 173.145 4.24979 -0.165102 0
M  V30 1787 N 171.46 0.379036 1.52974 0
M  V30 1788 C 172.706 -0.206727 2.01744 0
M  V30 1789 C 173.039 -1.47314 1.26539 0
M  V30 1790 O 172.314 -1.91084 0.362903 0
M  V30 1791 C 172.597 -0.485066 3.56818 0
M  V30 1792 C 172.45 0.795919 4.42702 0
M  V30 1793 C 173.769 -1.28003 4.21074 0
M  V30 1794 H 170.888 -0.0736607 0.73331 0
M  V30 1795 H 173.53 0.506581 1.83122 0
M  V30 1796 H 171.68 -1.09272 3.72816 0
M  V30 1797 H 173.352 1.43307 4.38476 0
M  V30 1798 H 171.595 1.41344 4.10127 0
M  V30 1799 H 172.266 0.555947 5.49193 0
M  V30 1800 H 174.742 -0.765867 4.08991 0
M  V30 1801 H 173.618 -1.44352 5.29579 0
M  V30 1802 H 173.879 -2.29236 3.78026 0
M  V30 1803 N 172.938 -1.57226 0.108567 0
M  V30 1804 C 174.187 -1.94008 -0.551703 0
M  V30 1805 C 174.5 -0.993442 -1.68494 0
M  V30 1806 O 175.706 -1.25551 -2.40726 0
M  V30 1807 C 174.162 -3.44763 -1.03279 0
M  V30 1808 C 173.77 -4.47943 0.0714193 0
M  V30 1809 C 175.514 -3.90483 -1.66503 0
M  V30 1810 C 173.421 -5.89865 -0.425779 0
M  V30 1811 H 172.351 -0.724206 -0.209863 0
M  V30 1812 H 175.002 -1.82547 0.186741 0
M  V30 1813 H 173.384 -3.51422 -1.82533 0
M  V30 1814 H 174.558 -4.52942 0.847365 0
M  V30 1815 H 172.873 -4.11913 0.609669 0
M  V30 1816 H 175.47 -4.93925 -2.04798 0
M  V30 1817 H 175.813 -3.29877 -2.53942 0
M  V30 1818 H 176.346 -3.86581 -0.938074 0
M  V30 1819 H 173.085 -6.54202 0.412316 0
M  V30 1820 H 172.605 -5.88309 -1.16843 0
M  V30 1821 H 174.284 -6.40844 -0.890397 0
M  V30 1822 N 174.416 0.165178 -1.56732 0
M  V30 1823 C 175.644 0.896218 -1.86482 0
M  V30 1824 C 176.059 1.75555 -0.694675 0
M  V30 1825 O 175.416 1.79379 0.33607 0
M  V30 1826 C 175.467 1.76792 -3.1532 0
M  V30 1827 O 175.188 0.943239 -4.27825 0
M  V30 1828 C 176.689 2.6081 -3.58459 0
M  V30 1829 H 173.909 0.260064 -0.618553 0
M  V30 1830 H 176.453 0.163428 -2.03846 0
M  V30 1831 H 174.608 2.45398 -2.99764 0
M  V30 1832 H 175.022 1.53998 -5.01383 0
M  V30 1833 H 176.496 3.17579 -4.51495 0
M  V30 1834 H 176.973 3.35977 -2.82872 0
M  V30 1835 H 177.579 1.97526 -3.76648 0
M  V30 1836 N 175.894 1.51508 0.433938 0
M  V30 1837 C 177.305 1.56784 1.01369 0
M  V30 1838 C 177.656 0.393349 1.92217 0
M  V30 1839 O 176.781 -0.489441 2.10792 0
M  V30 1840 C 177.376 2.84144 1.8452 0
M  V30 1841 C 175.935 2.9198 2.37539 0
M  V30 1842 C 175.082 2.51482 1.16843 0
M  V30 1843 H 178.033 1.57236 0.215081 0
M  V30 1844 H 178.054 2.68098 2.70007 0
M  V30 1845 H 177.566 3.69607 1.18373 0
M  V30 1846 H 175.667 2.10955 3.0713 0
M  V30 1847 H 175.78 3.95704 2.70103 0
M  V30 1848 H 174.144 2.04758 1.51481 0
M  V30 1849 H 174.927 3.39293 0.523015 0
M  V30 1850 N 177.372 -0.689602 1.41712 0
M  V30 1851 C 178.612 -1.46184 1.42862 0
M  V30 1852 C 178.976 -1.91962 0.0382204 0
M  V30 1853 O 180.177 -2.68694 -0.0755019 0
M  V30 1854 C 178.448 -2.6371 2.4123 0
M  V30 1855 S 180.007 -3.52768 2.6096 0
M  V30 1856 H 176.825 -0.49947 0.506015 0
M  V30 1857 H 179.427 -0.804107 1.78198 0
M  V30 1858 H 178.131 -2.28293 3.41044 0
M  V30 1859 H 177.662 -3.3437 2.07269 0
M  V30 1860 H 179.677 -4.59146 1.88148 0
M  V30 1861 N 178.85 -1.27639 -0.924453 0
M  V30 1862 C 180.266 -1.05113 -1.20097 0
M  V30 1863 C 180.466 0.213262 -2.00368 0
M  V30 1864 O 179.522 0.91787 -2.35226 0
M  V30 1865 C 180.835 -2.29244 -1.94596 0
M  V30 1866 C 182.383 -2.34315 -2.07522 0
M  V30 1867 C 182.858 -3.58183 -2.85427 0
M  V30 1868 N 184.349 -3.5876 -2.92994 0
M  V30 1869 C 185.084 -4.51277 -3.53746 0
M  V30 1870 N 184.58 -5.54102 -4.15863 0
M  V30 1871 N 186.373 -4.38894 -3.51181 0
M  V30 1872 H 178.524 -2.08821 -0.388264 0
M  V30 1873 H 180.787 -0.918568 -0.234385 0
M  V30 1874 H 180.493 -3.21301 -1.43034 0
M  V30 1875 H 180.367 -2.34816 -2.95197 0
M  V30 1876 H 182.754 -1.42762 -2.58269 0
M  V30 1877 H 182.835 -2.32744 -1.06131 0
M  V30 1878 H 182.479 -4.50074 -2.35363 0
M  V30 1879 H 182.409 -3.57006 -3.8711 0
M  V30 1880 H 184.9 -2.84398 -2.4885 0
M  V30 1881 H 185.213 -6.20859 -4.60168 0
M  V30 1882 H 183.558 -5.57941 -4.144 0
M  V30 1883 H 186.749 -3.57772 -3.01856 0
M  V30 1884 H 186.922 -5.11186 -3.98237 0
M  V30 1885 N 180.328 1.1314 -1.09713 0
M  V30 1886 C 181.275 2.18642 -0.739196 0
M  V30 1887 C 182.245 1.63706 0.280978 0
M  V30 1888 O 183.43 1.90111 0.161946 0
M  V30 1889 C 180.57 3.44685 -0.169102 0
M  V30 1890 C 179.683 4.13711 -1.24367 0
M  V30 1891 C 178.818 5.27379 -0.636019 0
M  V30 1892 C 177.857 5.88259 -1.69169 0
M  V30 1893 N 176.994 6.93352 -1.10485 0
M  V30 1894 H 181.834 2.48607 -1.64312 0
M  V30 1895 H 179.371 1.22066 -0.820875 0
M  V30 1896 H 181.329 4.16815 0.179256 0
M  V30 1897 H 179.959 3.15161 0.698079 0
M  V30 1898 H 179.011 3.39835 -1.70927 0
M  V30 1899 H 180.323 4.55037 -2.04311 0
M  V30 1900 H 179.477 6.06238 -0.236677 0
M  V30 1901 H 178.216 4.8731 0.194928 0
M  V30 1902 H 177.221 5.08092 -2.10055 0
M  V30 1903 H 178.446 6.30399 -2.52536 0
M  V30 1904 H 176.392 6.55335 -0.295234 0
M  V30 1905 H 176.309 7.33236 -1.84121 0
M  V30 1906 H 177.577 7.76057 -0.73181 0
M  V30 1907 N 181.806 0.884767 1.30421 0
M  V30 1908 C 182.736 0.367574 2.30589 0
M  V30 1909 C 183.717 -0.549464 1.60981 0
M  V30 1910 O 184.902 -0.46336 1.88591 0
M  V30 1911 C 182.032 -0.418944 3.44764 0
M  V30 1912 C 180.986 0.406316 4.26067 0
M  V30 1913 C 180.312 -0.506793 5.32293 0
M  V30 1914 C 181.612 1.64832 4.95608 0
M  V30 1915 H 183.306 1.20462 2.74097 0
M  V30 1916 H 180.852 0.580695 1.31772 0
M  V30 1917 H 182.805 -0.791395 4.13902 0
M  V30 1918 H 181.529 -1.28964 3.0006 0
M  V30 1919 H 180.188 0.760903 3.58617 0
M  V30 1920 H 179.836 -1.37519 4.83836 0
M  V30 1921 H 179.536 0.0415828 5.87585 0
M  V30 1922 H 181.06 -0.875764 6.04287 0
M  V30 1923 H 182.474 1.34646 5.57264 0
M  V30 1924 H 180.871 2.13688 5.60765 0
M  V30 1925 H 181.941 2.39284 4.21748 0
M  V30 1926 N 183.284 -1.43765 0.645699 0
M  V30 1927 C 184.533 -2.01116 0.153412 0
M  V30 1928 C 184.846 -1.51493 -1.23731 0
M  V30 1929 O 186.052 -2.01067 -1.8244 0
M  V30 1930 C 184.508 -3.59206 0.223473 0
M  V30 1931 C 184.116 -4.17823 1.61642 0
M  V30 1932 C 185.86 -4.23972 -0.211597 0
M  V30 1933 C 183.767 -5.68183 1.64081 0
M  V30 1934 H 182.697 -0.752093 0.0535891 0
M  V30 1935 H 185.348 -1.6482 0.806633 0
M  V30 1936 H 183.73 -3.92867 -0.497118 0
M  V30 1937 H 184.904 -3.95674 2.36176 0
M  V30 1938 H 183.219 -3.65399 1.99681 0
M  V30 1939 H 185.816 -5.34275 -0.213112 0
M  V30 1940 H 186.159 -3.97352 -1.24165 0
M  V30 1941 H 186.692 -3.95166 0.456988 0
M  V30 1942 H 183.431 -5.99559 2.64971 0
M  V30 1943 H 182.951 -5.9241 0.938611 0
M  V30 1944 H 184.63 -6.32085 1.3812 0
M  V30 1945 N 184.763 -0.387143 -1.52771 0
M  V30 1946 C 185.693 0.440551 -2.29306 0
M  V30 1947 C 186.674 1.06535 -1.32606 0
M  V30 1948 O 187.859 1.07853 -1.61497 0
M  V30 1949 C 184.989 1.56919 -3.09829 0
M  V30 1950 C 183.943 1.07054 -4.14395 0
M  V30 1951 C 183.269 2.29109 -4.83129 0
M  V30 1952 C 184.569 0.140015 -5.22112 0
M  V30 1953 H 186.263 -0.198026 -2.98744 0
M  V30 1954 H 183.809 -0.09668 -1.43675 0
M  V30 1955 H 185.762 2.15503 -3.62128 0
M  V30 1956 H 184.486 2.23532 -2.3812 0
M  V30 1957 H 183.145 0.507247 -3.63074 0
M  V30 1958 H 182.793 2.94227 -4.0797 0
M  V30 1959 H 182.493 1.96406 -5.53804 0
M  V30 1960 H 184.017 2.88339 -5.38231 0
M  V30 1961 H 185.431 0.633978 -5.69784 0
M  V30 1962 H 183.828 -0.0971485 -6.00021 0
M  V30 1963 H 184.898 -0.811711 -4.78058 0
M  V30 1964 N 186.241 1.57166 -0.116904 0
M  V30 1965 C 187.481 1.97008 0.544715 0
M  V30 1966 C 187.845 0.998713 1.63981 0
M  V30 1967 O 189.046 1.28644 2.36018 0
M  V30 1968 C 187.317 3.41145 1.06559 0
M  V30 1969 S 188.876 4.02998 1.73603 0
M  V30 1970 H 185.694 0.688587 0.177112 0
M  V30 1971 H 188.296 1.94459 -0.201487 0
M  V30 1972 H 187 4.09592 0.257374 0
M  V30 1973 H 186.531 3.4734 1.84712 0
M  V30 1974 H 188.546 3.93585 3.02168 0
M  V30 1975 N 187.719 -0.156864 1.56817 0
M  V30 1976 C 188.682 -1.17781 1.96622 0
M  V30 1977 C 189.682 -1.36401 0.851555 0
M  V30 1978 O 190.872 -1.33561 1.11836 0
M  V30 1979 C 188.004 -2.54008 2.27361 0
M  V30 1980 H 189.197 -0.836564 2.87996 0
M  V30 1981 H 186.75 -0.39985 1.51099 0
M  V30 1982 H 187.485 -2.9312 1.38748 0
M  V30 1983 H 187.27 -2.41856 3.08623 0
M  V30 1984 H 188.76 -3.27558 2.59029 0
M  V30 1985 N 189.197 -1.51736 -0.425897 0
M  V30 1986 C 190.474 -1.55519 -1.1863 0
M  V30 1987 C 190.854 -0.326219 -2.08564 0
M  V30 1988 O 190.202 0.688012 -2.17896 0
M  V30 1989 C 190.412 -2.87521 -1.9782 0
M  V30 1990 C 191.76 -3.39899 -2.54468 0
M  V30 1991 O 192.784 -2.89148 -2.08019 0
M  V30 1992 O 191.643 -4.2848 -3.39215 0
M  V30 1993 H 188.737 -0.625739 -0.540721 0
M  V30 1994 H 191.283 -1.64055 -0.434038 0
M  V30 1995 H 190.055 -3.68422 -1.31836 0
M  V30 1996 H 189.678 -2.822 -2.80088 0
M  V30 1997 N 190.675 0.682077 -1.42076 0
M  V30 1998 C 191.623 1.81707 -1.45208 0
M  V30 1999 C 192.617 1.66183 -0.328591 0
M  V30 2000 O 193.823 1.7288 -0.501264 0
M  V30 2001 H 190.198 0.599014 -0.454628 0
M  V30 2002 H 192.169 1.76183 -2.40836 0
M  V30 2003 C 190.918 3.19816 -1.36428 0
M  V30 2004 H 190.241 3.32385 -2.22171 0
M  V30 2005 H 191.681 3.99272 -1.42681 0
M  V30 2006 C 190.14 3.36809 -0.078191 0
M  V30 2007 O 190.67 3.92124 0.87188 0
M  V30 2008 N 188.876 2.906 0.00229266 0
M  V30 2009 H 188.423 2.45772 -0.771616 0
M  V30 2010 H 188.381 3.02347 0.862179 0
M  V30 2011 N 192.153 1.28127 0.917671 0
M  V30 2012 C 193.569 1.05749 1.19538 0
M  V30 2013 C 193.769 -0.202633 2.00479 0
M  V30 2014 O 192.825 -0.905382 2.3571 0
M  V30 2015 C 194.138 2.30273 1.93378 0
M  V30 2016 C 195.686 2.35412 2.06277 0
M  V30 2017 C 196.161 3.59692 2.83524 0
M  V30 2018 N 197.652 3.60309 2.91087 0
M  V30 2019 C 198.387 4.53147 3.51348 0
M  V30 2020 N 197.883 5.563 4.12919 0
M  V30 2021 N 199.676 4.40751 3.48849 0
M  V30 2022 H 191.827 2.09024 0.377184 0
M  V30 2023 H 194.09 0.919798 0.22951 0
M  V30 2024 H 193.796 3.22055 1.41328 0
M  V30 2025 H 193.67 2.36378 2.93947 0
M  V30 2026 H 196.057 1.4413 2.57508 0
M  V30 2027 H 196.138 2.33304 1.04895 0
M  V30 2028 H 195.782 4.51316 2.32973 0
M  V30 2029 H 195.712 3.59054 3.85211 0
M  V30 2030 H 198.203 2.85714 2.47338 0
M  V30 2031 H 198.516 6.2329 4.56869 0
M  V30 2032 H 196.861 5.60131 4.11435 0
M  V30 2033 H 200.052 3.59367 2.99955 0
M  V30 2034 H 200.225 5.13291 3.9552 0
M  V30 2035 N 193.631 -1.12557 1.10312 0
M  V30 2036 C 194.578 -2.18247 0.750781 0
M  V30 2037 C 195.548 -1.63853 -0.272293 0
M  V30 2038 O 196.733 -1.90195 -0.151862 0
M  V30 2039 C 193.873 -3.44591 0.187379 0
M  V30 2040 C 192.986 -4.13046 1.2656 0
M  V30 2041 C 192.121 -5.27034 0.663978 0
M  V30 2042 C 191.16 -5.87353 1.72287 0
M  V30 2043 N 190.297 -6.92757 1.1416 0
M  V30 2044 H 195.137 -2.47732 1.65628 0
M  V30 2045 H 192.674 -1.21629 0.827337 0
M  V30 2046 H 194.632 -4.16904 -0.157148 0
M  V30 2047 H 193.262 -3.15527 -0.681355 0
M  V30 2048 H 192.314 -3.38924 1.72727 0
M  V30 2049 H 193.626 -4.53947 2.06721 0
M  V30 2050 H 192.78 -6.06104 0.268824 0
M  V30 2051 H 191.519 -4.87407 -0.169082 0
M  V30 2052 H 190.524 -5.06971 2.12746 0
M  V30 2053 H 191.749 -6.29051 2.55875 0
M  V30 2054 H 189.695 -6.5517 0.329984 0
M  V30 2055 H 189.612 -7.3225 1.88007 0
M  V30 2056 H 190.88 -7.75658 0.772956 0
M  V30 2057 N 195.109 -0.891671 -1.2995 0
M  V30 2058 C 196.019 -0.367691 -2.31701 0
M  V30 2059 C 197.035 0.533486 -1.6562 0
M  V30 2060 O 198.211 0.424997 -1.96865 0
M  V30 2061 C 195.276 0.403406 -3.44345 0
M  V30 2062 C 194.337 -0.528328 -4.26037 0
M  V30 2063 C 193.57 0.206063 -5.33302 0
M  V30 2064 O 193.793 1.43119 -5.52153 0
M  V30 2065 O 192.727 -0.447281 -6.00236 0
M  V30 2066 H 196.553 -1.21163 -2.78484 0
M  V30 2067 H 194.138 -0.655725 -1.34241 0
M  V30 2068 H 196.02 0.839753 -4.12948 0
M  V30 2069 H 194.695 1.22354 -2.99685 0
M  V30 2070 H 193.602 -1.01362 -3.60106 0
M  V30 2071 H 194.935 -1.31465 -4.74318 0
M  V30 2072 N 196.587 1.43421 -0.653314 0
M  V30 2073 C 197.52 2.2803 0.0879804 0
M  V30 2074 C 198.498 1.39833 0.82979 0
M  V30 2075 O 199.682 1.69275 0.829341 0
M  V30 2076 C 196.809 3.19247 1.13132 0
M  V30 2077 C 195.855 4.23704 0.487546 0
M  V30 2078 S 196.688 5.30377 -0.738961 0
M  V30 2079 C 197.844 6.25162 0.30384 0
M  V30 2080 H 198.077 2.90554 -0.629739 0
M  V30 2081 H 195.61 1.47934 -0.442156 0
M  V30 2082 H 197.568 3.72346 1.72827 0
M  V30 2083 H 196.229 2.55901 1.82136 0
M  V30 2084 H 195.422 4.87631 1.27407 0
M  V30 2085 H 195.024 3.73983 -0.0352915 0
M  V30 2086 H 197.316 6.67321 1.17 0
M  V30 2087 H 198.259 7.07463 -0.300402 0
M  V30 2088 H 198.667 5.60864 0.63969 0
M  V30 2089 N 198.065 0.39524 1.52563 0
M  V30 2090 C 198.975 -0.444232 2.30356 0
M  V30 2091 C 199.991 -1.06615 1.37511 0
M  V30 2092 O 201.167 -1.07067 1.70583 0
M  V30 2093 C 198.232 -1.55315 3.09964 0
M  V30 2094 C 197.293 -0.955734 4.18526 0
M  V30 2095 C 196.526 -2.01181 4.9433 0
M  V30 2096 O 196.749 -3.22781 4.70285 0
M  V30 2097 O 195.683 -1.62579 5.79527 0
M  V30 2098 H 199.509 0.189667 3.03107 0
M  V30 2099 H 197.094 0.1588 1.48554 0
M  V30 2100 H 198.976 -2.19724 3.59582 0
M  V30 2101 H 197.651 -2.17191 2.4002 0
M  V30 2102 H 196.558 -0.274743 3.7309 0
M  V30 2103 H 197.891 -0.381109 4.90722 0
M  V30 2104 N 199.544 -1.57102 0.125237 0
M  V30 2105 C 200.821 -1.86953 -0.575142 0
M  V30 2106 C 201.201 -1.02749 -1.84407 0
M  V30 2107 O 200.549 -0.108144 -2.28244 0
M  V30 2108 C 200.759 -3.38198 -0.861583 0
M  V30 2109 C 202.107 -4.06937 -1.21192 0
M  V30 2110 O 203.131 -3.43252 -0.951645 0
M  V30 2111 O 201.99 -5.19364 -1.70068 0
M  V30 2112 H 199.084 -0.774147 -0.290906 0
M  V30 2113 H 201.63 -1.68942 0.160211 0
M  V30 2114 H 200.402 -3.91282 0.0373647 0
M  V30 2115 H 200.025 -3.61661 -1.65188 0
M  V30 2116 N 201.022 0.148545 -1.56898 0
M  V30 2117 C 202.268 0.857877 -1.84424 0
M  V30 2118 C 202.623 1.7886 -0.709006 0
M  V30 2119 O 201.916 1.89344 0.293139 0
M  V30 2120 C 202.11 1.67064 -3.1595 0
M  V30 2121 C 201.939 0.82011 -4.42159 0
M  V30 2122 C 200.709 0.486328 -5.02954 0
M  V30 2123 C 202.907 0.151155 -5.14078 0
M  V30 2124 N 200.889 -0.377956 -6.12735 0
M  V30 2125 C 202.26 -0.573333 -6.17343 0
M  V30 2126 C 204.315 0.0716685 -4.97848 0
M  V30 2127 C 203.018 -1.3698 -7.06137 0
M  V30 2128 C 205.044 -0.711532 -5.87104 0
M  V30 2129 C 204.406 -1.42431 -6.8985 0
M  V30 2130 H 200.505 0.291798 -0.725519 0
M  V30 2131 H 203.089 0.123347 -1.94309 0
M  V30 2132 H 201.26 2.37642 -3.07215 0
M  V30 2133 H 202.992 2.32302 -3.31388 0
M  V30 2134 H 199.747 0.821753 -4.66416 0
M  V30 2135 H 200.171 -0.801077 -6.72244 0
M  V30 2136 H 204.813 0.608381 -4.184 0
M  V30 2137 H 202.531 -1.91778 -7.85014 0
M  V30 2138 H 206.117 -0.775005 -5.76615 0
M  V30 2139 H 204.997 -2.02061 -7.57721 0
M  V30 2140 N 202.5 1.5196 0.417844 0
M  V30 2141 C 203.749 1.6482 1.16264 0
M  V30 2142 C 204.062 0.379886 1.91876 0
M  V30 2143 O 205.268 0.388154 2.68711 0
M  V30 2144 C 203.724 2.91161 2.1155 0
M  V30 2145 C 203.332 4.25068 1.41495 0
M  V30 2146 C 205.076 3.13383 2.86341 0
M  V30 2147 C 202.983 5.42541 2.35379 0
M  V30 2148 H 201.913 0.613954 0.437694 0
M  V30 2149 H 204.564 1.78442 0.427871 0
M  V30 2150 H 202.946 2.71218 2.88543 0
M  V30 2151 H 204.12 4.55463 0.699263 0
M  V30 2152 H 202.435 4.0888 0.787792 0
M  V30 2153 H 205.032 3.98324 3.5671 0
M  V30 2154 H 205.375 2.27256 3.48798 0
M  V30 2155 H 205.908 3.33757 2.1645 0
M  V30 2156 H 202.647 6.30987 1.77582 0
M  V30 2157 H 202.167 5.16497 3.04945 0
M  V30 2158 H 203.846 5.75272 2.96093 0
M  V30 2159 N 203.978 -0.674533 1.42435 0
M  V30 2160 C 204.941 -1.76986 1.45632 0
M  V30 2161 C 205.941 -1.5708 0.343871 0
M  V30 2162 O 207.131 -1.63367 0.604709 0
M  V30 2163 C 204.263 -3.15623 1.28822 0
M  V30 2164 H 205.456 -1.75539 2.43158 0
M  V30 2165 H 203.009 -0.884189 1.28887 0
M  V30 2166 H 203.744 -3.22696 0.322193 0
M  V30 2167 H 203.529 -3.31475 2.09444 0
M  V30 2168 H 205.019 -3.95537 1.33942 0
M  V30 2169 N 205.456 -1.28612 -0.910864 0
M  V30 2170 C 206.419 -1.12803 -1.9952 0
M  V30 2171 C 207.419 -0.0668264 -1.60661 0
M  V30 2172 O 208.609 -0.312847 -1.71368 0
M  V30 2173 C 205.741 -0.72254 -3.33155 0
M  V30 2174 H 206.934 -2.09109 -2.14973 0
M  V30 2175 H 204.487 -1.11639 -1.09391 0
M  V30 2176 H 205.222 0.241152 -3.23402 0
M  V30 2177 H 205.007 -1.48916 -3.62721 0
M  V30 2178 H 206.497 -0.634666 -4.12749 0
M  V30 2179 N 206.934 1.1197 -1.10907 0
M  V30 2180 C 207.864 2.19928 -0.784473 0
M  V30 2181 C 208.845 1.6833 0.244726 0
M  V30 2182 O 210.03 1.93892 0.109418 0
M  V30 2183 C 207.16 3.46597 -0.220827 0
M  V30 2184 C 206.114 4.11376 -1.18127 0
M  V30 2185 C 205.44 5.32554 -0.478594 0
M  V30 2186 C 206.74 4.56945 -2.52979 0
M  V30 2187 H 208.434 2.47337 -1.68715 0
M  V30 2188 H 205.98 1.18879 -0.812642 0
M  V30 2189 H 207.933 4.21396 0.0184278 0
M  V30 2190 H 206.657 3.1863 0.717113 0
M  V30 2191 H 205.316 3.38564 -1.40606 0
M  V30 2192 H 204.964 5.00856 0.463976 0
M  V30 2193 H 204.664 5.76844 -1.11912 0
M  V30 2194 H 206.188 6.10096 -0.248 0
M  V30 2195 H 207.602 5.23093 -2.3462 0
M  V30 2196 H 205.999 5.1203 -3.12962 0
M  V30 2197 H 207.069 3.70676 -3.12614 0
M  V30 2198 N 208.412 0.89855 1.29475 0
M  V30 2199 C 209.359 0.373819 2.27753 0
M  V30 2200 C 210.329 -0.543444 1.56958 0
M  V30 2201 O 211.514 -0.468934 1.84948 0
M  V30 2202 C 208.654 -0.393648 3.42848 0
M  V30 2203 C 207.767 0.554379 4.28428 0
M  V30 2204 C 206.902 -0.230026 5.30702 0
M  V30 2205 C 205.941 0.712599 6.07938 0
M  V30 2206 N 205.078 -0.0373283 7.0209 0
M  V30 2207 H 209.918 1.21699 2.72017 0
M  V30 2208 H 207.455 0.611456 1.33789 0
M  V30 2209 H 209.413 -0.85466 4.08352 0
M  V30 2210 H 208.043 -1.20128 2.99615 0
M  V30 2211 H 207.095 1.13391 3.63107 0
M  V30 2212 H 208.407 1.27597 4.82204 0
M  V30 2213 H 207.561 -0.752288 6.02018 0
M  V30 2214 H 206.3 -0.984758 4.77654 0
M  V30 2215 H 205.305 1.24637 5.35486 0
M  V30 2216 H 206.53 1.46664 6.63074 0
M  V30 2217 H 204.476 -0.774348 6.51414 0
M  V30 2218 H 204.393 0.624374 7.53417 0
M  V30 2219 H 205.661 -0.539891 7.77628 0
M  V30 2220 N 209.89 -1.43072 0.660911 0
M  V30 2221 C 211.118 -2.06067 0.185422 0
M  V30 2222 C 211.533 -1.49582 -1.15198 0
M  V30 2223 O 210.89 -0.630134 -1.71276 0
M  V30 2224 C 210.941 -3.61371 0.0966523 0
M  V30 2225 O 210.662 -4.15758 1.38119 0
M  V30 2226 C 212.163 -4.41455 -0.403996 0
M  V30 2227 H 209.383 -0.664459 0.0934604 0
M  V30 2228 H 211.927 -1.83447 0.90373 0
M  V30 2229 H 210.082 -3.8315 -0.572259 0
M  V30 2230 H 210.496 -5.09499 1.24542 0
M  V30 2231 H 211.97 -5.50437 -0.415045 0
M  V30 2232 H 212.447 -4.15036 -1.43674 0
M  V30 2233 H 213.053 -4.24663 0.232691 0
M  V30 2234 N 211.368 -0.403325 -1.52352 0
M  V30 2235 C 212.614 0.174605 -2.02047 0
M  V30 2236 C 212.947 1.45282 -1.28867 0
M  V30 2237 O 212.222 1.90483 -0.393257 0
M  V30 2238 C 212.505 0.428238 -3.57545 0
M  V30 2239 C 212.358 -0.866248 -4.4138 0
M  V30 2240 C 213.677 1.21287 -4.23057 0
M  V30 2241 H 210.796 0.0619851 -0.734389 0
M  V30 2242 H 213.438 -0.53565 -1.82293 0
M  V30 2243 H 211.588 1.03327 -3.74507 0
M  V30 2244 H 213.26 -1.50265 -4.3614 0
M  V30 2245 H 211.503 -1.47851 -4.07827 0
M  V30 2246 H 212.174 -0.643249 -5.48239 0
M  V30 2247 H 214.65 0.700703 -4.10158 0
M  V30 2248 H 213.526 1.35909 -5.31808 0
M  V30 2249 H 213.787 2.23193 -3.81625 0
M  V30 2250 N 212.846 1.57033 -0.133567 0
M  V30 2251 C 213.778 2.13176 0.841944 0
M  V30 2252 C 214.791 1.07794 1.22001 0
M  V30 2253 O 215.98 1.35117 1.16643 0
M  V30 2254 C 213.08 2.62847 2.13926 0
M  V30 2255 C 212.253 3.92486 1.93064 0
M  V30 2256 C 211.312 4.27605 3.0666 0
M  V30 2257 O 210.338 4.96168 2.78937 0
M  V30 2258 N 211.54 3.861 4.33483 0
M  V30 2259 H 214.305 2.97503 0.362192 0
M  V30 2260 H 211.866 1.61821 0.05042 0
M  V30 2261 H 213.858 2.83363 2.88942 0
M  V30 2262 H 212.428 1.83319 2.53205 0
M  V30 2263 H 211.648 3.80732 1.02159 0
M  V30 2264 H 212.936 4.77225 1.76447 0
M  V30 2265 H 212.334 3.30828 4.58878 0
M  V30 2266 H 210.891 4.11694 5.05323 0
M  V30 2267 N 214.325 -0.140222 1.56975 0
M  V30 2268 C 215.273 -1.19207 1.99731 0
M  V30 2269 C 216.267 -1.44089 0.890777 0
M  V30 2270 O 217.473 -1.44301 1.07597 0
M  V30 2271 H 213.848 -0.40142 0.635898 0
M  V30 2272 H 215.819 -0.804813 2.87342 0
M  V30 2273 C 214.568 -2.51617 2.39967 0
M  V30 2274 H 213.891 -2.33303 3.24669 0
M  V30 2275 H 215.331 -3.23827 2.73701 0
M  V30 2276 C 213.79 -3.12654 1.25496 0
M  V30 2277 O 214.32 -3.97786 0.559371 0
M  V30 2278 N 212.526 -2.72206 1.01746 0
M  V30 2279 H 212.073 -2.03074 1.58489 0
M  V30 2280 H 212.031 -3.13377 0.253461 0
M  V30 2281 N 215.803 -1.52179 -0.40978 0
M  V30 2282 C 217.219 -1.40968 -0.74835 0
M  V30 2283 C 217.419 -0.513657 -1.94843 0
M  V30 2284 O 216.475 0.0208026 -2.52491 0
M  V30 2285 C 217.788 -2.83483 -1.0029 0
M  V30 2286 C 219.336 -2.92821 -1.10565 0
M  V30 2287 C 219.811 -4.36303 -1.39296 0
M  V30 2288 N 221.302 -4.39535 -1.46162 0
M  V30 2289 C 222.037 -5.47614 -1.70018 0
M  V30 2290 N 221.533 -6.65812 -1.91483 0
M  V30 2291 N 223.326 -5.35129 -1.72027 0
M  V30 2292 H 215.477 -2.0897 0.380186 0
M  V30 2293 H 217.74 -0.94185 0.107805 0
M  V30 2294 H 217.446 -3.51168 -0.193461 0
M  V30 2295 H 217.32 -3.24487 -1.92323 0
M  V30 2296 H 219.707 -2.25318 -1.90568 0
M  V30 2297 H 219.788 -2.55276 -0.16369 0
M  V30 2298 H 219.432 -5.04366 -0.598109 0
M  V30 2299 H 219.362 -4.71385 -2.34743 0
M  V30 2300 H 221.853 -3.54332 -1.31367 0
M  V30 2301 H 222.166 -7.43964 -2.09134 0
M  V30 2302 H 220.511 -6.68879 -1.88749 0
M  V30 2303 H 223.702 -4.41764 -1.54796 0
M  V30 2304 H 223.875 -6.19433 -1.9028 0
M  V30 2305 N 217.281 0.66697 -1.42791 0
M  V30 2306 C 218.191 1.80962 -1.49299 0
M  V30 2307 C 219.207 1.69775 -0.381108 0
M  V30 2308 O 220.383 1.91188 -0.633188 0
M  V30 2309 C 217.448 3.17156 -1.40045 0
M  V30 2310 C 216.509 3.40242 -2.6179 0
M  V30 2311 C 215.742 4.69939 -2.52969 0
M  V30 2312 O 215.965 5.48372 -1.56985 0
M  V30 2313 O 214.899 4.94441 -3.43237 0
M  V30 2314 H 218.725 1.78427 -2.45759 0
M  V30 2315 H 216.31 0.823713 -1.24641 0
M  V30 2316 H 218.192 3.98413 -1.37276 0
M  V30 2317 H 216.867 3.20312 -0.467138 0
M  V30 2318 H 215.774 2.58802 -2.70134 0
M  V30 2319 H 217.107 3.41923 -3.54047 0
M  V30 2320 N 218.759 1.29093 0.90403 0
M  V30 2321 C 219.709 1.10482 1.99443 0
M  V30 2322 C 220.693 0.0255401 1.6088 0
M  V30 2323 O 221.885 0.24677 1.75271 0
M  V30 2324 C 219.014 0.778882 3.34348 0
M  V30 2325 C 218.1 1.89749 3.79284 0
M  V30 2326 N 218.491 3.14045 3.96497 0
M  V30 2327 C 216.789 1.78955 4.08523 0
M  V30 2328 C 217.49 3.86996 4.34292 0
M  V30 2329 N 216.466 3.14909 4.43095 0
M  V30 2330 H 220.268 2.04778 2.10815 0
M  V30 2331 H 217.782 1.20155 1.09255 0
M  V30 2332 H 219.779 0.62661 4.12164 0
M  V30 2333 H 218.439 -0.156205 3.24324 0
M  V30 2334 H 219.45 3.49548 3.82148 0
M  V30 2335 H 216.127 0.926886 4.07081 0
M  V30 2336 H 217.517 4.93941 4.55491 0
M  V30 2337 N 220.237 -1.11381 1.11499 0
M  V30 2338 C 221.484 -1.83132 0.864231 0
M  V30 2339 C 221.812 -1.84683 -0.610114 0
M  V30 2340 O 221.067 -1.29589 -1.46646 0
M  V30 2341 C 221.366 -3.30026 1.37177 0
M  V30 2342 C 221.032 -3.48634 2.85946 0
M  V30 2343 C 219.694 -3.53421 3.26569 0
M  V30 2344 C 222.046 -3.54837 3.81759 0
M  V30 2345 C 219.374 -3.61967 4.61733 0
M  V30 2346 C 221.726 -3.64915 5.1674 0
M  V30 2347 C 220.39 -3.67962 5.5692 0
M  V30 2348 H 219.66 -0.670127 0.316245 0
M  V30 2349 H 222.307 -1.31354 1.3935 0
M  V30 2350 H 220.612 -3.84304 0.762753 0
M  V30 2351 H 222.309 -3.84034 1.15408 0
M  V30 2352 H 218.899 -3.45579 2.53521 0
M  V30 2353 H 223.083 -3.50399 3.51474 0
M  V30 2354 H 218.339 -3.62603 4.92269 0
M  V30 2355 H 222.513 -3.68658 5.90816 0
M  V30 2356 H 220.14 -3.74336 6.61647 0
M  V30 2357 N 221.715 -0.905404 -1.28997 0
M  V30 2358 C 222.625 -0.392246 -2.31298 0
M  V30 2359 C 223.641 0.515889 -1.66176 0
M  V30 2360 O 224.817 0.404093 -1.97304 0
M  V30 2361 C 221.882 0.36686 -3.44754 0
M  V30 2362 C 220.943 -0.573485 -4.25452 0
M  V30 2363 C 220.176 0.149488 -5.33491 0
M  V30 2364 O 220.399 1.37255 -5.5364 0
M  V30 2365 O 219.333 -0.510919 -5.99728 0
M  V30 2366 H 223.159 -1.2411 -2.77183 0
M  V30 2367 H 220.744 -0.669926 -1.33538 0
M  V30 2368 H 222.626 0.795907 -4.13816 0
M  V30 2369 H 221.301 1.19169 -3.00966 0
M  V30 2370 H 220.208 -1.05176 -3.59011 0
M  V30 2371 H 221.541 -1.36489 -4.72897 0
M  V30 2372 N 223.193 1.4272 -0.668489 0
M  V30 2373 C 224.604 1.84793 -0.266151 0
M  V30 2374 C 224.955 1.55959 1.19043 0
M  V30 2375 O 224.08 1.01622 1.91055 0
M  V30 2376 C 224.675 3.35436 -0.476271 0
M  V30 2377 C 223.234 3.76182 -0.128113 0
M  V30 2378 C 222.381 2.66344 -0.771777 0
M  V30 2379 H 225.332 1.32656 -0.871098 0
M  V30 2380 H 225.353 3.79515 0.273561 0
M  V30 2381 H 224.865 3.5639 -1.53647 0
M  V30 2382 H 222.966 3.60836 0.928891 0
M  V30 2383 H 223.079 4.75766 -0.564231 0
M  V30 2384 H 221.443 2.53885 -0.203652 0
M  V30 2385 H 222.226 2.90123 -1.83531 0
M  V30 2386 N 224.671 0.411399 1.52136 0
M  V30 2387 C 225.899 -0.163076 2.06256 0
M  V30 2388 C 226.314 -1.3867 1.28125 0
M  V30 2389 O 225.671 -1.79423 0.333721 0
M  V30 2390 C 225.722 -0.511252 3.57867 0
M  V30 2391 O 225.443 0.66378 4.33042 0
M  V30 2392 C 226.944 -1.13921 4.28412 0
M  V30 2393 H 224.164 -0.0193897 0.67072 0
M  V30 2394 H 226.708 0.583007 1.96013 0
M  V30 2395 H 224.863 -1.20723 3.6811 0
M  V30 2396 H 225.277 0.372601 5.23175 0
M  V30 2397 H 226.751 -1.33302 5.35663 0
M  V30 2398 H 227.228 -2.11296 3.85033 0
M  V30 2399 H 227.834 -0.483373 4.22544 0
M  V30 2400 N 226.149 -1.5696 0.141893 0
M  V30 2401 C 227.081 -2.13619 -0.830627 0
M  V30 2402 C 228.094 -1.08439 -1.21428 0
M  V30 2403 O 229.283 -1.35734 -1.15925 0
M  V30 2404 C 226.383 -2.63978 -2.12529 0
M  V30 2405 C 225.556 -3.93504 -1.9098 0
M  V30 2406 C 224.615 -4.29225 -3.04388 0
M  V30 2407 O 223.641 -4.97641 -2.76302 0
M  V30 2408 N 224.843 -3.88393 -4.31429 0
M  V30 2409 H 227.608 -2.97691 -0.34641 0
M  V30 2410 H 225.169 -1.61846 -0.0418375 0
M  V30 2411 H 227.161 -2.84891 -2.87436 0
M  V30 2412 H 225.731 -1.84659 -2.52229 0
M  V30 2413 H 224.951 -3.81269 -1.00139 0
M  V30 2414 H 226.239 -4.78154 -1.73914 0
M  V30 2415 H 225.637 -3.33257 -4.57117 0
M  V30 2416 H 224.194 -4.14368 -5.03133 0
M  V30 2417 N 227.627 0.131896 -1.57047 0
M  V30 2418 C 228.857 0.855219 -1.88068 0
M  V30 2419 C 229.265 1.74557 -0.729817 0
M  V30 2420 O 228.608 1.81083 0.308962 0
M  V30 2421 C 228.67 1.75119 -3.13964 0
M  V30 2422 C 228.334 1.03646 -4.45091 0
M  V30 2423 C 229.331 0.383276 -5.18485 0
M  V30 2424 C 227.016 1.02148 -4.91804 0
M  V30 2425 C 229.01 -0.275347 -6.36805 0
M  V30 2426 C 226.697 0.359047 -6.10044 0
M  V30 2427 C 227.695 -0.288222 -6.82392 0
M  V30 2428 O 227.383 -0.94011 -7.98384 0
M  V30 2429 H 227.115 0.251864 -0.627328 0
M  V30 2430 H 229.669 0.124782 -2.05021 0
M  V30 2431 H 227.899 2.52295 -2.9306 0
M  V30 2432 H 229.588 2.3478 -3.31109 0
M  V30 2433 H 230.354 0.386562 -4.83457 0
M  V30 2434 H 226.233 1.5147 -4.35405 0
M  V30 2435 H 229.777 -0.781148 -6.93213 0
M  V30 2436 H 225.674 0.35348 -6.44531 0
M  V30 2437 H 226.442 -0.84329 -8.14144 0
M  V30 2438 N 229.106 1.52395 0.401703 0
M  V30 2439 C 230.331 1.70972 1.17403 0
M  V30 2440 C 230.756 0.421615 1.83314 0
M  V30 2441 O 230.114 -0.621564 1.70312 0
M  V30 2442 C 230.162 2.85151 2.20728 0
M  V30 2443 O 229.266 2.51238 3.27037 0
M  V30 2444 H 228.607 0.568927 0.342372 0
M  V30 2445 H 231.137 1.99131 0.469891 0
M  V30 2446 H 231.147 3.10279 2.64936 0
M  V30 2447 H 229.822 3.78603 1.7214 0
M  V30 2448 H 228.399 2.36808 2.88057 0
M  V30 2449 N 230.584 -0.659388 1.43143 0
M  V30 2450 C 231.517 -1.78425 1.42267 0
M  V30 2451 C 232.495 -1.60085 0.284894 0
M  V30 2452 O 233.679 -1.82351 0.477527 0
M  V30 2453 C 230.806 -3.15642 1.22833 0
M  V30 2454 C 229.852 -3.52698 2.39806 0
M  V30 2455 S 230.685 -3.53372 4.02353 0
M  V30 2456 C 231.841 -4.93256 3.85291 0
M  V30 2457 H 232.074 -1.78897 2.37452 0
M  V30 2458 H 229.607 -0.831469 1.301 0
M  V30 2459 H 231.565 -3.94838 1.12308 0
M  V30 2460 H 230.226 -3.12739 0.29207 0
M  V30 2461 H 229.419 -4.52475 2.21996 0
M  V30 2462 H 229.021 -2.80899 2.46925 0
M  V30 2463 H 231.313 -5.81751 3.47235 0
M  V30 2464 H 232.256 -5.16115 4.84799 0
M  V30 2465 H 232.664 -4.665 3.17865 0
M  V30 2466 N 232.062 -1.29571 -0.897171 0
M  V30 2467 C 233.339 -1.08365 -1.62839 0
M  V30 2468 C 233.719 0.371331 -2.07808 0
M  V30 2469 O 233.067 1.3606 -1.83576 0
M  V30 2470 C 233.277 -2.0735 -2.80726 0
M  V30 2471 C 234.625 -2.38406 -3.51351 0
M  V30 2472 O 235.649 -2.05564 -2.90898 0
M  V30 2473 O 234.508 -2.9453 -4.60341 0
M  V30 2474 H 231.602 -0.415345 -0.715134 0
M  V30 2475 H 234.148 -1.40952 -0.945018 0
M  V30 2476 H 232.92 -3.05339 -2.44711 0
M  V30 2477 H 232.543 -1.75507 -3.56767 0
M  V30 2478 N 233.54 1.10788 -1.12088 0
M  V30 2479 C 234.49 2.15158 -0.754401 0
M  V30 2480 C 235.474 1.59026 0.244846 0
M  V30 2481 O 236.666 1.76927 0.0509097 0
M  V30 2482 C 233.795 3.42677 -0.206657 0
M  V30 2483 C 232.881 4.05751 -1.23398 0
M  V30 2484 N 233.272 4.43582 -2.43041 0
M  V30 2485 C 231.57 4.32764 -1.07848 0
M  V30 2486 C 232.271 4.93085 -3.08613 0
M  V30 2487 N 231.247 4.89664 -2.36072 0
M  V30 2488 H 235.049 2.42195 -1.6649 0
M  V30 2489 H 232.563 1.27872 -1.00112 0
M  V30 2490 H 234.56 4.16834 0.0740646 0
M  V30 2491 H 233.22 3.17101 0.698342 0
M  V30 2492 H 234.231 4.35395 -2.80449 0
M  V30 2493 H 230.908 4.16863 -0.230483 0
M  V30 2494 H 232.298 5.31933 -4.10483 0
M  V30 2495 N 235.018 0.912232 1.28515 0
M  V30 2496 C 236.265 0.544599 1.95039 0
M  V30 2497 C 236.593 -0.911435 1.71823 0
M  V30 2498 O 235.848 -1.66317 1.03137 0
M  V30 2499 C 236.147 0.798392 3.48368 0
M  V30 2500 C 235.813 2.23374 3.91682 0
M  V30 2501 C 234.475 2.62617 4.03219 0
M  V30 2502 C 236.827 3.16786 4.13879 0
M  V30 2503 C 234.155 3.94429 4.3433 0
M  V30 2504 C 236.507 4.48161 4.46469 0
M  V30 2505 C 235.171 4.8726 4.56217 0
M  V30 2506 H 234.441 0.199283 0.7137 0
M  V30 2507 H 237.088 1.15327 1.52879 0
M  V30 2508 H 235.393 0.106908 3.91654 0
M  V30 2509 H 237.09 0.493141 3.97956 0
M  V30 2510 H 233.68 1.91922 3.83228 0
M  V30 2511 H 237.864 2.87677 4.0442 0
M  V30 2512 H 233.12 4.24426 4.40082 0
M  V30 2513 H 237.294 5.20559 4.62592 0
M  V30 2514 H 234.921 5.89431 4.80078 0
M  V30 2515 N 236.496 -1.42363 0.676048 0
M  V30 2516 C 237.721 -2.06377 0.205705 0
M  V30 2517 C 238.146 -1.50463 -1.12883 0
M  V30 2518 O 237.504 -0.623619 -1.70237 0
M  V30 2519 C 237.552 -3.60277 0.152655 0
M  V30 2520 O 236.656 -4.02935 -0.87845 0
M  V30 2521 H 235.997 -0.655588 0.105359 0
M  V30 2522 H 238.527 -1.82475 0.925412 0
M  V30 2523 H 238.537 -4.07993 -0.0230675 0
M  V30 2524 H 237.212 -4.00346 1.12675 0
M  V30 2525 H 235.789 -3.66764 -0.673668 0
M  V30 2526 N 237.974 -0.419461 -1.51915 0
M  V30 2527 C 239.222 0.152637 -2.01523 0
M  V30 2528 C 239.543 1.44762 -1.30649 0
M  V30 2529 O 238.813 1.90997 -0.435535 0
M  V30 2530 H 237.393 0.0593966 -0.744635 0
M  V30 2531 H 240.055 -0.558073 -1.86739 0
M  V30 2532 H 239.151 0.341369 -3.10227 0
M  V30 2533 N 239.452 1.56882 -0.150215 0
M  V30 2534 C 240.385 2.12712 0.826358 0
M  V30 2535 C 241.363 1.05154 1.24022 0
M  V30 2536 O 242.547 1.33004 1.33575 0
M  V30 2537 C 239.674 2.64945 2.11002 0
M  V30 2538 C 238.72 3.8468 1.84183 0
M  V30 2539 S 239.553 5.25502 1.02995 0
M  V30 2540 C 240.709 5.81125 2.32474 0
M  V30 2541 H 240.942 2.95214 0.351598 0
M  V30 2542 H 238.475 1.54267 0.0641211 0
M  V30 2543 H 240.433 2.95689 2.84742 0
M  V30 2544 H 239.094 1.82568 2.55593 0
M  V30 2545 H 238.287 4.19482 2.79375 0
M  V30 2546 H 237.889 3.54714 1.1855 0
M  V30 2547 H 240.181 5.92753 3.281 0
M  V30 2548 H 241.124 6.78625 2.02171 0
M  V30 2549 H 241.532 5.09392 2.43269 0
M  V30 2550 N 240.93 -0.123565 1.57115 0
M  V30 2551 C 241.88 -1.1575 1.96433 0
M  V30 2552 C 242.864 -1.37313 0.838686 0
M  V30 2553 O 244.056 -1.38482 1.10235 0
M  V30 2554 C 241.185 -2.48526 2.36833 0
M  V30 2555 C 240.271 -2.30457 3.5602 0
M  V30 2556 N 240.662 -1.8219 4.71848 0
M  V30 2557 C 238.96 -2.61129 3.61563 0
M  V30 2558 C 239.661 -1.77721 5.53886 0
M  V30 2559 N 238.637 -2.21899 4.96248 0
M  V30 2560 H 242.439 -0.776797 2.83449 0
M  V30 2561 H 239.953 -0.331364 1.58983 0
M  V30 2562 H 241.95 -3.233 2.63216 0
M  V30 2563 H 240.61 -2.87358 1.5118 0
M  V30 2564 H 241.621 -1.51805 4.95152 0
M  V30 2565 H 238.298 -3.03678 2.86507 0
M  V30 2566 H 239.688 -1.41697 6.56789 0
M  V30 2567 N 242.408 -1.52605 -0.393616 0
M  V30 2568 C 243.356 -1.77688 -1.50099 0
M  V30 2569 C 244.35 -0.644615 -1.56656 0
M  V30 2570 O 245.556 -0.826997 -1.59877 0
M  V30 2571 H 241.931 -0.562159 -0.499481 0
M  V30 2572 H 243.902 -2.7043 -1.26135 0
M  V30 2573 C 242.651 -1.95858 -2.87289 0
M  V30 2574 H 241.974 -2.8241 -2.82992 0
M  V30 2575 H 243.414 -2.174 -3.64024 0
M  V30 2576 C 241.873 -0.729848 -3.28899 0
M  V30 2577 O 242.403 0.0949217 -4.01588 0
M  V30 2578 N 240.609 -0.561283 -2.85128 0
M  V30 2579 H 240.156 -1.23357 -2.26143 0
M  V30 2580 H 240.114 0.2595 -3.13327 0
M  V30 2581 N 243.887 0.651787 -1.4349 0
M  V30 2582 C 245.133 1.4121 -1.46395 0
M  V30 2583 C 245.488 1.92202 -0.087366 0
M  V30 2584 O 244.781 1.69452 0.894231 0
M  V30 2585 C 244.975 2.60914 -2.44251 0
M  V30 2586 C 244.804 2.21639 -3.91288 0
M  V30 2587 C 243.574 2.09897 -4.59643 0
M  V30 2588 C 245.772 1.81835 -4.81083 0
M  V30 2589 N 243.754 1.63967 -5.91598 0
M  V30 2590 C 245.125 1.46998 -6.02322 0
M  V30 2591 C 247.18 1.69031 -4.6833 0
M  V30 2592 C 245.883 1.00638 -7.12225 0
M  V30 2593 C 247.909 1.24077 -5.78238 0
M  V30 2594 C 247.271 0.901772 -6.98604 0
M  V30 2595 H 243.37 0.512322 -0.590805 0
M  V30 2596 H 245.954 0.74989 -1.7968 0
M  V30 2597 H 244.125 3.24792 -2.1299 0
M  V30 2598 H 245.857 3.27622 -2.37584 0
M  V30 2599 H 242.612 2.297 -4.14168 0
M  V30 2600 H 243.036 1.43359 -6.61647 0
M  V30 2601 H 247.678 1.93878 -3.75727 0
M  V30 2602 H 245.396 0.745399 -8.04655 0
M  V30 2603 H 248.982 1.14657 -5.7039 0
M  V30 2604 H 247.862 0.559226 -7.82203 0
M  V30 2605 N 245.365 1.30045 0.890287 0
M  V30 2606 C 246.595 1.21296 1.67245 0
M  V30 2607 C 247.003 -0.227471 1.87828 0
M  V30 2608 O 246.346 -1.16296 1.422 0
M  V30 2609 C 246.408 1.86519 3.07329 0
M  V30 2610 C 246.072 3.35837 3.09939 0
M  V30 2611 C 247.069 4.31915 2.89389 0
M  V30 2612 C 244.754 3.77196 3.31706 0
M  V30 2613 C 246.748 5.67325 2.90552 0
M  V30 2614 C 244.435 5.12725 3.32499 0
M  V30 2615 C 245.433 6.076 3.11947 0
M  V30 2616 O 245.121 7.40655 3.12547 0
M  V30 2617 H 244.853 0.4211 0.528821 0
M  V30 2618 H 247.407 1.72111 1.12103 0
M  V30 2619 H 245.637 1.30228 3.64112 0
M  V30 2620 H 247.326 1.71963 3.67673 0
M  V30 2621 H 248.092 4.01294 2.72375 0
M  V30 2622 H 243.971 3.03796 3.4674 0
M  V30 2623 H 247.515 6.41354 2.74429 0
M  V30 2624 H 243.412 5.42988 3.49047 0
M  V30 2625 H 244.18 7.49577 3.28749 0
M  V30 2626 N 246.843 -1.10192 1.12674 0
M  V30 2627 C 247.806 -2.14786 0.799979 0
M  V30 2628 C 248.806 -1.59711 -0.18685 0
M  V30 2629 O 249.996 -1.74156 0.0392558 0
M  V30 2630 C 247.128 -3.40374 0.189228 0
M  V30 2631 H 248.321 -2.45203 1.72671 0
M  V30 2632 H 245.874 -1.25597 0.930326 0
M  V30 2633 H 246.609 -3.15577 -0.747107 0
M  V30 2634 H 246.394 -3.81637 0.899766 0
M  V30 2635 H 247.884 -4.17594 -0.0228143 0
M  V30 2636 N 248.321 -0.919034 -1.28029 0
M  V30 2637 C 249.561 -0.562107 -1.96519 0
M  V30 2638 C 249.925 0.878784 -1.70708 0
M  V30 2639 O 251.126 1.34355 -2.32813 0
M  V30 2640 C 249.397 -0.868953 -3.46676 0
M  V30 2641 S 250.956 -0.619237 -4.34409 0
M  V30 2642 H 247.774 -0.2078 -0.679956 0
M  V30 2643 H 250.376 -1.18562 -1.55446 0
M  V30 2644 H 249.08 -1.91547 -3.62957 0
M  V30 2645 H 248.611 -0.234301 -3.92702 0
M  V30 2646 H 250.626 0.526995 -4.93394 0
M  V30 2647 N 249.799 1.42003 -0.683588 0
M  V30 2648 C 251.024 2.06265 -0.216647 0
M  V30 2649 C 251.449 1.51059 1.12083 0
M  V30 2650 O 250.807 0.632638 1.69904 0
M  V30 2651 C 250.855 3.60191 -0.171759 0
M  V30 2652 O 249.959 4.03396 0.857069 0
M  V30 2653 H 249.3 0.65502 -0.108834 0
M  V30 2654 H 251.83 1.81982 -0.935077 0
M  V30 2655 H 251.84 4.08 0.0014303 0
M  V30 2656 H 250.515 3.99743 -1.14796 0
M  V30 2657 H 249.092 3.67117 0.654208 0
M  V30 2658 N 251.277 0.427512 1.51691 0
M  V30 2659 C 252.227 -0.406604 2.24345 0
M  V30 2660 C 253.211 -0.998276 1.26187 0
M  V30 2661 O 254.403 -0.918045 1.51331 0
M  V30 2662 C 251.532 -1.51266 3.08177 0
M  V30 2663 C 250.618 -0.930868 4.13758 0
M  V30 2664 N 251.009 -0.0773552 5.05741 0
M  V30 2665 C 249.307 -1.19948 4.29568 0
M  V30 2666 C 250.008 0.248344 5.8117 0
M  V30 2667 N 248.984 -0.365535 5.4237 0
M  V30 2668 H 252.786 0.251581 2.92821 0
M  V30 2669 H 250.3 0.239003 1.60632 0
M  V30 2670 H 252.297 -2.123 3.58796 0
M  V30 2671 H 250.957 -2.17328 2.41244 0
M  V30 2672 H 251.968 0.288351 5.17097 0
M  V30 2673 H 248.645 -1.85832 3.73862 0
M  V30 2674 H 250.035 0.942286 6.6526 0
M  V30 2675 N 252.755 -1.56801 0.158532 0
M  V30 2676 C 253.718 -2.16138 -0.762705 0
M  V30 2677 C 254.718 -1.1061 -1.16713 0
M  V30 2678 O 255.908 -1.36191 -1.08617 0
M  V30 2679 C 253.04 -2.73386 -2.03649 0
M  V30 2680 H 254.233 -2.98886 -0.246354 0
M  V30 2681 H 251.786 -1.56035 -0.0909744 0
M  V30 2682 H 252.521 -1.94335 -2.59623 0
M  V30 2683 H 252.306 -3.50601 -1.75559 0
M  V30 2684 H 253.796 -3.19065 -2.6942 0
M  V30 2685 N 254.233 0.115231 -1.57178 0
M  V30 2686 C 255.649 0.468877 -1.52557 0
M  V30 2687 C 255.849 1.81649 -0.872125 0
M  V30 2688 O 254.905 2.48347 -0.45606 0
M  V30 2689 C 256.218 0.4499 -2.97315 0
M  V30 2690 C 257.766 0.533185 -3.08425 0
M  V30 2691 C 258.241 0.54456 -4.54751 0
M  V30 2692 N 259.732 0.605892 -4.5922 0
M  V30 2693 C 260.467 0.636203 -5.6986 0
M  V30 2694 N 259.963 0.623931 -6.89985 0
M  V30 2695 N 261.756 0.679496 -5.57978 0
M  V30 2696 H 253.907 -0.767712 -1.9804 0
M  V30 2697 H 256.17 -0.283609 -0.904583 0
M  V30 2698 H 255.876 -0.472721 -3.48509 0
M  V30 2699 H 255.75 1.27632 -3.5495 0
M  V30 2700 H 258.137 1.44623 -2.57232 0
M  V30 2701 H 258.218 -0.320995 -2.53778 0
M  V30 2702 H 257.862 -0.364452 -5.06591 0
M  V30 2703 H 257.792 1.41568 -5.07214 0
M  V30 2704 H 260.283 0.621386 -3.72756 0
M  V30 2705 H 260.596 0.649787 -7.70063 0
M  V30 2706 H 258.941 0.591296 -6.9248 0
M  V30 2707 H 262.132 0.686472 -4.63039 0
M  V30 2708 H 262.305 0.69965 -6.44212 0
M  V30 2709 N 255.711 1.52812 0.385517 0
M  V30 2710 C 257.122 1.5993 0.963293 0
M  V30 2711 C 257.473 0.454302 1.90868 0
M  V30 2712 O 256.598 -0.422132 2.12243 0
M  V30 2713 C 257.193 2.89871 1.75387 0
M  V30 2714 C 255.752 2.99389 2.28129 0
M  V30 2715 C 254.899 2.55071 1.08783 0
M  V30 2716 H 257.85 1.5784 0.164948 0
M  V30 2717 H 257.871 2.76553 2.61341 0
M  V30 2718 H 257.383 3.73186 1.06554 0
M  V30 2719 H 255.484 2.20619 3.00263 0
M  V30 2720 H 255.597 4.04096 2.57377 0
M  V30 2721 H 253.961 2.09473 1.4489 0
M  V30 2722 H 254.744 3.40785 0.414807 0
M  V30 2723 N 257.189 -0.644168 1.43834 0
M  V30 2724 C 258.417 -1.43147 1.49387 0
M  V30 2725 C 258.832 -1.88452 0.114583 0
M  V30 2726 O 258.189 -1.60047 -0.876989 0
M  V30 2727 C 258.24 -2.66046 2.44748 0
M  V30 2728 O 257.961 -2.22633 3.77314 0
M  V30 2729 C 259.462 -3.59311 2.59635 0
M  V30 2730 H 256.682 -0.439447 0.507077 0
M  V30 2731 H 259.226 -0.78895 1.88669 0
M  V30 2732 H 257.381 -3.26418 2.08638 0
M  V30 2733 H 257.795 -3.02216 4.28679 0
M  V30 2734 H 259.269 -4.42187 3.30416 0
M  V30 2735 H 259.746 -4.07259 1.64427 0
M  V30 2736 H 260.352 -3.04816 2.96593 0
M  V30 2737 N 258.668 -1.30515 -0.883378 0
M  V30 2738 C 259.898 -1.22182 -1.66599 0
M  V30 2739 C 260.306 0.217507 -1.87946 0
M  V30 2740 O 259.649 1.1554 -1.42815 0
M  V30 2741 C 259.711 -1.88146 -3.06335 0
M  V30 2742 C 259.375 -3.37476 -3.08154 0
M  V30 2743 C 260.372 -4.33443 -2.87094 0
M  V30 2744 C 258.057 -3.7895 -3.29701 0
M  V30 2745 C 260.051 -5.68858 -2.8754 0
M  V30 2746 C 257.738 -5.14482 -3.29776 0
M  V30 2747 C 258.736 -6.09246 -3.0872 0
M  V30 2748 O 258.424 -7.42302 -3.08615 0
M  V30 2749 H 258.156 -0.423898 -0.52658 0
M  V30 2750 H 260.71 -1.72703 -1.11188 0
M  V30 2751 H 258.94 -1.32157 -3.63416 0
M  V30 2752 H 260.629 -1.7391 -3.66756 0
M  V30 2753 H 261.395 -4.02733 -2.70243 0
M  V30 2754 H 257.274 -3.05631 -3.45124 0
M  V30 2755 H 260.818 -6.428 -2.71024 0
M  V30 2756 H 256.715 -5.44832 -3.46163 0
M  V30 2757 H 257.483 -7.5131 -3.24769 0
M  V30 2758 N 260.146 1.09593 -1.13257 0
M  V30 2759 C 261.386 1.83349 -0.903472 0
M  V30 2760 C 261.75 1.83641 0.560351 0
M  V30 2761 O 262.951 2.53037 0.906947 0
M  V30 2762 C 261.222 3.25629 -1.47311 0
M  V30 2763 S 262.781 4.16408 -1.38382 0
M  V30 2764 H 259.599 0.632014 -0.325699 0
M  V30 2765 H 262.201 1.31817 -1.44376 0
M  V30 2766 H 260.905 3.22991 -2.53189 0
M  V30 2767 H 260.436 3.82233 -0.930689 0
M  V30 2768 H 262.451 4.94884 -0.361113 0
M  V30 2769 N 261.624 0.925811 1.2754 0
M  V30 2770 C 262.572 0.413897 2.28888 0
M  V30 2771 C 263.566 -0.500779 1.61829 0
M  V30 2772 O 264.772 -0.38069 1.75928 0
M  V30 2773 H 261.147 0.115274 0.743112 0
M  V30 2774 H 263.118 1.28151 2.69481 0
M  V30 2775 C 261.867 -0.319792 3.46226 0
M  V30 2776 H 261.19 0.374846 3.98039 0
M  V30 2777 H 262.63 -0.642435 4.19105 0
M  V30 2778 C 261.089 -1.53209 3.00048 0
M  V30 2779 O 261.619 -2.6309 3.03557 0
M  V30 2780 N 259.825 -1.38326 2.55566 0
M  V30 2781 H 259.372 -0.489292 2.5291 0
M  V30 2782 H 259.33 -2.19564 2.25031 0
M  V30 2783 N 263.102 -1.41638 0.69111 0
M  V30 2784 C 264.348 -2.01598 0.220519 0
M  V30 2785 C 264.681 -1.54594 -1.17535 0
M  V30 2786 O 263.956 -0.755177 -1.79241 0
M  V30 2787 C 264.239 -3.59062 0.273243 0
M  V30 2788 C 264.092 -4.16203 1.70573 0
M  V30 2789 C 265.411 -4.38546 -0.369457 0
M  V30 2790 H 262.53 -0.732468 0.0816045 0
M  V30 2791 H 265.172 -1.68445 0.878986 0
M  V30 2792 H 263.322 -3.87435 -0.287411 0
M  V30 2793 H 264.994 -3.98722 2.31989 0
M  V30 2794 H 263.237 -3.71414 2.2413 0
M  V30 2795 H 263.908 -5.25358 1.69419 0
M  V30 2796 H 266.384 -4.1596 0.107977 0
M  V30 2797 H 265.26 -5.48069 -0.302002 0
M  V30 2798 H 265.521 -4.17662 -1.44951 0
M  V30 2799 N 264.58 -0.43555 -1.51462 0
M  V30 2800 C 265.82 0.130708 -2.03982 0
M  V30 2801 C 266.184 1.40117 -1.31268 0
M  V30 2802 O 267.385 2.04755 -1.74152 0
M  V30 2803 C 265.656 0.346102 -3.5572 0
M  V30 2804 S 267.215 0.876022 -4.29967 0
M  V30 2805 H 264.033 0.0326881 -0.710248 0
M  V30 2806 H 266.635 -0.594544 -1.8624 0
M  V30 2807 H 265.339 -0.584911 -4.0621 0
M  V30 2808 H 264.87 1.09849 -3.77752 0
M  V30 2809 H 266.885 2.15379 -4.47019 0
M  V30 2810 N 266.058 1.56714 -0.166846 0
M  V30 2811 C 267.474 1.58473 0.189372 0
M  V30 2812 C 267.674 1.18201 1.63189 0
M  V30 2813 O 266.73 0.891528 2.36237 0
M  V30 2814 C 268.043 3.00573 -0.0873872 0
M  V30 2815 C 269.591 3.1299 -0.0252443 0
M  V30 2816 C 270.066 4.57174 -0.274934 0
M  V30 2817 N 271.557 4.62665 -0.222553 0
M  V30 2818 C 272.292 5.72072 -0.389985 0
M  V30 2819 N 271.788 6.90054 -0.616229 0
M  V30 2820 N 273.581 5.61153 -0.326202 0
M  V30 2821 H 265.732 1.8118 -1.10849 0
M  V30 2822 H 267.995 0.839525 -0.440342 0
M  V30 2823 H 267.701 3.34497 -1.0865 0
M  V30 2824 H 267.575 3.72019 0.623037 0
M  V30 2825 H 269.962 2.78895 0.96444 0
M  V30 2826 H 270.043 2.43989 -0.768309 0
M  V30 2827 H 269.687 4.91976 -1.26181 0
M  V30 2828 H 269.617 5.24328 0.48869 0
M  V30 2829 H 272.108 3.77863 -0.0531512 0
M  V30 2830 H 272.421 7.69311 -0.733559 0
M  V30 2831 H 270.766 6.91927 -0.652791 0
M  V30 2832 H 273.957 4.67859 -0.150072 0
M  V30 2833 H 274.13 6.46364 -0.460116 0
M  V30 2834 N 267.536 -0.106894 1.57237 0
M  V30 2835 C 268.446 -1.14911 2.0453 0
M  V30 2836 C 269.462 -1.44592 0.96795 0
M  V30 2837 O 270.638 -1.55468 1.2803 0
M  V30 2838 C 267.703 -2.45272 2.45036 0
M  V30 2839 C 266.764 -2.22879 3.66911 0
M  V30 2840 C 265.997 -3.47024 4.05475 0
M  V30 2841 O 266.22 -4.54804 3.44252 0
M  V30 2842 O 265.154 -3.3731 4.98504 0
M  V30 2843 H 268.98 -0.777461 2.9358 0
M  V30 2844 H 266.565 -0.318563 1.45964 0
M  V30 2845 H 268.447 -3.22055 2.71769 0
M  V30 2846 H 267.122 -2.81886 1.59129 0
M  V30 2847 H 266.029 -1.43915 3.45311 0
M  V30 2848 H 267.362 -1.91163 4.53561 0
M  V30 2849 N 269.014 -1.53014 -0.377408 0
M  V30 2850 C 269.977 -1.77957 -1.44444 0
M  V30 2851 C 270.977 -0.649763 -1.47087 0
M  V30 2852 O 272.167 -0.917897 -1.48055 0
M  V30 2853 C 269.299 -1.89089 -2.83651 0
M  V30 2854 H 270.492 -2.73243 -1.23606 0
M  V30 2855 H 268.045 -1.43912 -0.609844 0
M  V30 2856 H 268.78 -0.958293 -3.09818 0
M  V30 2857 H 268.565 -2.71254 -2.83132 0
M  V30 2858 H 270.055 -2.1002 -3.60945 0
M  V30 2859 N 270.492 0.636531 -1.44174 0
M  V30 2860 C 271.422 1.76003 -1.53444 0
M  V30 2861 C 272.403 1.65619 -0.387841 0
M  V30 2862 O 273.588 1.84461 -0.607257 0
M  V30 2863 C 270.718 3.14511 -1.4731 0
M  V30 2864 C 269.672 3.39677 -2.60391 0
M  V30 2865 C 268.998 4.78159 -2.39308 0
M  V30 2866 C 270.298 3.32772 -4.02567 0
M  V30 2867 H 271.992 1.68501 -2.47483 0
M  V30 2868 H 269.538 0.809237 -1.19111 0
M  V30 2869 H 271.491 3.92878 -1.52397 0
M  V30 2870 H 270.215 3.22783 -0.49785 0
M  V30 2871 H 268.874 2.63688 -2.54684 0
M  V30 2872 H 268.522 4.83128 -1.39988 0
M  V30 2873 H 268.222 4.95956 -3.15122 0
M  V30 2874 H 269.746 5.58762 -2.46205 0
M  V30 2875 H 271.16 4.01051 -4.09672 0
M  V30 2876 H 269.557 3.62104 -4.7854 0
M  V30 2877 H 270.627 2.30669 -4.2652 0
M  V30 2878 N 271.97 1.30982 0.876444 0
M  V30 2879 C 273.195 1.23373 1.66715 0
M  V30 2880 C 273.62 -0.19885 1.87046 0
M  V30 2881 O 272.978 -1.1427 1.40756 0
M  V30 2882 C 273.026 1.97644 3.01611 0
M  V30 2883 O 272.13 1.30935 3.91062 0
M  V30 2884 H 271.471 0.426279 0.509099 0
M  V30 2885 H 274.001 1.72944 1.09323 0
M  V30 2886 H 274.011 2.06992 3.51594 0
M  V30 2887 H 272.686 3.01829 2.86133 0
M  V30 2888 H 271.263 1.29996 3.49507 0
M  V30 2889 N 273.449 -1.08991 1.13837 0
M  V30 2890 C 274.697 -1.80899 0.901098 0
M  V30 2891 C 275.018 -1.86356 -0.574134 0
M  V30 2892 O 274.288 -1.35235 -1.41733 0
M  V30 2893 H 272.868 -0.669966 0.330386 0
M  V30 2894 H 275.53 -1.318 1.43578 0
M  V30 2895 H 274.626 -2.83929 1.29578 0
M  V30 2896 N 274.927 -0.932562 -1.27047 0
M  V30 2897 C 276.173 -0.576412 -1.94436 0
M  V30 2898 C 276.506 0.880891 -1.73072 0
M  V30 2899 O 275.781 1.62905 -1.06264 0
M  V30 2900 C 276.064 -0.909031 -3.48437 0
M  V30 2901 C 275.917 -2.42044 -3.79123 0
M  V30 2902 C 277.236 -0.418341 -4.38107 0
M  V30 2903 H 274.355 -0.210888 -0.706184 0
M  V30 2904 H 276.997 -1.16522 -1.50075 0
M  V30 2905 H 275.147 -0.407947 -3.86352 0
M  V30 2906 H 276.819 -2.99359 -3.50973 0
M  V30 2907 H 275.062 -2.86758 -3.25503 0
M  V30 2908 H 275.733 -2.6037 -4.86736 0
M  V30 2909 H 278.209 -0.847856 -4.0737 0
M  V30 2910 H 277.085 -0.679981 -5.44672 0
M  V30 2911 H 277.346 0.681642 -4.36814 0
M  V30 2912 N 276.405 1.4127 -0.698611 0
M  V30 2913 C 277.633 2.05503 -0.239992 0
M  V30 2914 C 278.048 1.52584 1.11191 0
M  V30 2915 O 277.405 0.675323 1.69545 0
M  V30 2916 C 277.456 3.60987 -0.192429 0
M  V30 2917 O 277.177 4.1195 -1.49094 0
M  V30 2918 C 278.678 4.42371 0.28681 0
M  V30 2919 H 275.898 0.661748 -0.111045 0
M  V30 2920 H 278.442 1.80987 -0.95205 0
M  V30 2921 H 276.597 3.84533 0.470472 0
M  V30 2922 H 277.011 5.06018 -1.38007 0
M  V30 2923 H 278.485 5.51344 0.26896 0
M  V30 2924 H 278.962 4.18699 1.32619 0
M  V30 2925 H 279.568 4.23897 -0.345201 0
M  V30 2926 N 277.883 0.443576 1.51229 0
M  V30 2927 C 279.108 -0.121648 2.07043 0
M  V30 2928 C 279.533 -1.35156 1.30823 0
M  V30 2929 O 278.891 -1.7793 0.347934 0
M  V30 2930 C 278.939 -0.41624 3.5819 0
M  V30 2931 O 278.043 -1.50163 3.8409 0
M  V30 2932 H 277.384 0.000871367 0.663999 0
M  V30 2933 H 279.914 0.626706 1.94765 0
M  V30 2934 H 279.924 -0.664867 4.02546 0
M  V30 2935 H 278.599 0.482653 4.1309 0
M  V30 2936 H 277.176 -1.24248 3.51592 0
M  V30 2937 N 279.361 -1.56624 0.175154 0
M  V30 2938 C 280.311 -2.14747 -0.766004 0
M  V30 2939 C 281.295 -1.08275 -1.19018 0
M  V30 2940 O 282.487 -1.34388 -1.15191 0
M  V30 2941 C 279.616 -2.79478 -1.99366 0
M  V30 2942 C 278.702 -3.93114 -1.5913 0
M  V30 2943 N 279.093 -4.97752 -0.89872 0
M  V30 2944 C 277.391 -4.04345 -1.88204 0
M  V30 2945 C 278.092 -5.77473 -0.700012 0
M  V30 2946 N 277.068 -5.29207 -1.24263 0
M  V30 2947 H 280.87 -2.93015 -0.22793 0
M  V30 2948 H 278.384 -1.6238 -0.0253843 0
M  V30 2949 H 280.381 -3.19498 -2.67818 0
M  V30 2950 H 279.041 -2.02692 -2.53665 0
M  V30 2951 H 280.052 -5.14903 -0.556347 0
M  V30 2952 H 276.729 -3.38667 -2.44153 0
M  V30 2953 H 278.119 -6.71728 -0.152047 0
M  V30 2954 N 280.839 0.0985539 -1.57292 0
M  V30 2955 C 282.087 0.801092 -1.85545 0
M  V30 2956 C 282.408 1.79438 -0.763353 0
M  V30 2957 O 281.678 1.94763 0.21073 0
M  V30 2958 H 280.258 0.29884 -0.684619 0
M  V30 2959 H 282.92 0.0810064 -1.94732 0
M  V30 2960 H 282.016 1.3338 -2.82163 0
M  V30 2961 N 282.317 1.53212 0.369288 0
M  V30 2962 C 283.247 1.82365 1.45826 0
M  V30 2963 C 284.228 0.676907 1.56051 0
M  V30 2964 O 285.413 0.926401 1.70679 0
M  V30 2965 C 282.543 2.01023 2.83208 0
M  V30 2966 C 281.497 3.1678 2.8781 0
M  V30 2967 C 280.823 3.20724 4.27832 0
M  V30 2968 C 282.123 4.55447 2.55667 0
M  V30 2969 H 283.817 2.73559 1.21678 0
M  V30 2970 H 281.363 1.3163 0.583911 0
M  V30 2971 H 283.316 2.20001 3.59413 0
M  V30 2972 H 282.04 1.06536 3.08736 0
M  V30 2973 H 280.699 2.97616 2.14056 0
M  V30 2974 H 280.347 2.23882 4.50429 0
M  V30 2975 H 280.047 3.98496 4.31827 0
M  V30 2976 H 281.571 3.41881 5.05915 0
M  V30 2977 H 282.985 4.74611 3.21586 0
M  V30 2978 H 281.382 5.35432 2.70984 0
M  V30 2979 H 282.452 4.60812 1.5093 0
M  V30 2980 N 283.795 -0.628877 1.44509 0
M  V30 2981 C 285.02 -1.42048 1.5112 0
M  V30 2982 C 285.445 -1.87594 0.137818 0
M  V30 2983 O 284.803 -1.58873 -0.873437 0
M  V30 2984 C 284.851 -2.61541 2.48251 0
M  V30 2985 O 283.955 -3.61453 1.98559 0
M  V30 2986 H 283.296 -0.424942 0.510216 0
M  V30 2987 H 285.826 -0.767374 1.89664 0
M  V30 2988 H 285.836 -3.09057 2.66361 0
M  V30 2989 H 284.511 -2.27736 3.48007 0
M  V30 2990 H 283.088 -3.20731 1.90227 0
M  V30 2991 N 285.273 -1.31445 -0.869486 0
M  V30 2992 C 286.513 -1.22458 -1.63656 0
M  V30 2993 C 286.877 0.213846 -1.90805 0
M  V30 2994 O 288.078 0.427212 -2.65383 0
M  V30 2995 C 286.349 -2.04564 -2.93067 0
M  V30 2996 S 287.908 -2.12445 -3.83944 0
M  V30 2997 H 284.726 -0.436145 -0.561514 0
M  V30 2998 H 287.328 -1.66114 -1.03085 0
M  V30 2999 H 286.032 -3.0816 -2.71045 0
M  V30 3000 H 285.563 -1.6163 -3.58663 0
M  V30 3001 H 287.578 -1.26312 -4.79854 0
M  V30 3002 N 286.751 1.08385 -1.14413 0
M  V30 3003 C 287.661 2.18856 -0.844951 0
M  V30 3004 C 288.677 1.73121 0.174668 0
M  V30 3005 O 289.853 2.014 0.00312857 0
M  V30 3006 C 286.918 3.45155 -0.32696 0
M  V30 3007 C 285.979 4.05513 -1.40916 0
M  V30 3008 C 285.212 5.25784 -0.915793 0
M  V30 3009 O 285.435 5.69884 0.242651 0
M  V30 3010 O 284.369 5.77545 -1.69487 0
M  V30 3011 H 288.195 2.46919 -1.76818 0
M  V30 3012 H 285.78 1.17524 -0.922411 0
M  V30 3013 H 287.662 4.21377 -0.0440211 0
M  V30 3014 H 286.337 3.18668 0.568539 0
M  V30 3015 H 285.244 3.30879 -1.74556 0
M  V30 3016 H 286.577 4.3625 -2.27919 0
M  V30 3017 N 288.23 0.939286 1.26551 0
M  V30 3018 C 289.476 0.586715 1.94128 0
M  V30 3019 C 289.809 -0.8717 1.73537 0
M  V30 3020 O 289.084 -1.62339 1.07127 0
M  V30 3021 C 289.367 0.927497 3.4795 0
M  V30 3022 C 289.22 2.44052 3.77834 0
M  V30 3023 C 290.539 0.441569 4.37879 0
M  V30 3024 H 287.658 0.21463 0.705055 0
M  V30 3025 H 290.3 1.17316 1.49455 0
M  V30 3026 H 288.45 0.428431 3.8613 0
M  V30 3027 H 290.122 3.01216 3.4938 0
M  V30 3028 H 288.365 2.8848 3.23978 0
M  V30 3029 H 289.036 2.62947 4.85348 0
M  V30 3030 H 291.512 0.869448 4.06915 0
M  V30 3031 H 290.388 0.708856 5.44304 0
M  V30 3032 H 290.649 -0.658467 4.37169 0
M  V30 3033 N 289.708 -1.40897 0.706093 0
M  V30 3034 C 290.948 -2.02916 0.245827 0
M  V30 3035 C 291.312 -1.54751 -1.13649 0
M  V30 3036 O 292.513 -2.08768 -1.69321 0
M  V30 3037 C 290.784 -3.56031 0.312537 0
M  V30 3038 S 292.343 -4.38741 -0.0721388 0
M  V30 3039 H 289.161 -0.704186 0.0982007 0
M  V30 3040 H 291.763 -1.72168 0.926207 0
M  V30 3041 H 290.467 -3.88579 1.32039 0
M  V30 3042 H 289.998 -3.91495 -0.386641 0
M  V30 3043 H 292.013 -4.78952 -1.29692 0
M  V30 3044 N 291.186 -0.45159 -1.50991 0
M  V30 3045 C 292.133 0.352625 -2.2809 0
M  V30 3046 C 293.103 1.0044 -1.32291 0
M  V30 3047 O 294.288 1.02058 -1.6121 0
M  V30 3048 C 291.428 1.43983 -3.13629 0
M  V30 3049 C 290.541 0.804772 -4.24438 0
M  V30 3050 C 289.676 1.86822 -4.97263 0
M  V30 3051 C 288.715 1.21236 -5.99973 0
M  V30 3052 N 287.852 2.2178 -6.66152 0
M  V30 3053 H 292.692 -0.311186 -2.96371 0
M  V30 3054 H 290.229 -0.165308 -1.46168 0
M  V30 3055 H 292.187 2.08161 -3.61559 0
M  V30 3056 H 290.817 2.07307 -2.47434 0
M  V30 3057 H 289.869 0.0509129 -3.80366 0
M  V30 3058 H 291.181 0.286076 -4.97979 0
M  V30 3059 H 290.335 2.58628 -5.48813 0
M  V30 3060 H 289.074 2.42068 -4.23385 0
M  V30 3061 H 288.079 0.479828 -5.47702 0
M  V30 3062 H 289.304 0.667051 -6.75816 0
M  V30 3063 H 287.25 2.76079 -5.95077 0
M  V30 3064 H 287.167 1.74841 -7.35504 0
M  V30 3065 H 288.435 2.93026 -7.22327 0
M  V30 3066 N 292.664 1.56529 -0.183458 0
M  V30 3067 C 293.911 1.97244 0.458357 0
M  V30 3068 C 294.239 1.06992 1.62428 0
M  V30 3069 O 293.494 0.106542 1.9541 0
M  V30 3070 C 293.793 3.43939 0.971637 0
M  V30 3071 C 293.459 4.5083 -0.0796784 0
M  V30 3072 C 292.121 4.79786 -0.368584 0
M  V30 3073 C 294.473 5.15138 -0.792638 0
M  V30 3074 C 291.801 5.70345 -1.37563 0
M  V30 3075 C 294.153 6.06784 -1.78875 0
M  V30 3076 C 292.817 6.34102 -2.08497 0
M  V30 3077 H 292.087 0.721768 0.167725 0
M  V30 3078 H 294.734 1.89472 -0.277976 0
M  V30 3079 H 293.039 3.48724 1.78602 0
M  V30 3080 H 294.736 3.72791 1.47744 0
M  V30 3081 H 291.326 4.28317 0.155668 0
M  V30 3082 H 295.51 4.92868 -0.582659 0
M  V30 3083 H 290.766 5.89789 -1.61118 0
M  V30 3084 H 294.94 6.55677 -2.3465 0
M  V30 3085 H 292.567 7.04074 -2.86678 0
M  V30 3086 N 294.142 -0.090211 1.57342 0
M  V30 3087 C 295.089 -1.10909 2.02405 0
M  V30 3088 C 296.059 -1.39523 0.901252 0
M  V30 3089 O 297.244 -1.50903 1.1676 0
M  V30 3090 C 294.384 -2.42277 2.45755 0
M  V30 3091 C 293.497 -2.20352 3.71576 0
M  V30 3092 C 292.632 -3.45154 4.03785 0
M  V30 3093 C 291.671 -3.18512 5.22701 0
M  V30 3094 N 290.808 -4.35593 5.50639 0
M  V30 3095 H 295.648 -0.71782 2.89225 0
M  V30 3096 H 293.185 -0.342901 1.43048 0
M  V30 3097 H 295.143 -3.18951 2.68935 0
M  V30 3098 H 293.773 -2.79242 1.61938 0
M  V30 3099 H 292.825 -1.34458 3.55844 0
M  V30 3100 H 294.137 -1.96661 4.58395 0
M  V30 3101 H 293.291 -4.30233 4.27767 0
M  V30 3102 H 292.03 -3.71904 3.15498 0
M  V30 3103 H 291.035 -2.31827 4.98534 0
M  V30 3104 H 292.26 -2.93103 6.12591 0
M  V30 3105 H 290.206 -4.6241 4.6531 0
M  V30 3106 H 290.123 -4.1511 6.31838 0
M  V30 3107 H 291.391 -5.21723 5.7916 0
M  V30 3108 N 295.62 -1.53406 -0.361157 0
M  V30 3109 C 296.583 -1.79479 -1.42548 0
M  V30 3110 C 297.583 -0.665327 -1.4639 0
M  V30 3111 O 298.773 -0.933549 -1.47073 0
M  V30 3112 C 295.905 -1.92087 -2.8163 0
M  V30 3113 H 297.098 -2.74538 -1.20701 0
M  V30 3114 H 294.651 -1.4455 -0.594546 0
M  V30 3115 H 295.386 -0.991099 -3.08784 0
M  V30 3116 H 295.171 -2.74241 -2.80239 0
M  V30 3117 H 296.661 -2.13836 -3.58697 0
M  V30 3118 N 297.098 0.621204 -1.44841 0
M  V30 3119 C 298.048 1.72663 -1.48901 0
M  V30 3120 C 299.032 1.56964 -0.353702 0
M  V30 3121 O 300.224 1.66532 -0.599669 0
M  V30 3122 C 297.353 3.11381 -1.44557 0
M  V30 3123 C 296.439 3.32514 -2.6324 0
M  V30 3124 N 296.83 3.23969 -3.8843 0
M  V30 3125 C 295.128 3.63343 -2.58647 0
M  V30 3126 C 295.829 3.46062 -4.67564 0
M  V30 3127 N 294.805 3.69407 -3.98797 0
M  V30 3128 H 298.607 1.64529 -2.43531 0
M  V30 3129 H 296.121 0.82401 -1.39942 0
M  V30 3130 H 298.118 3.90667 -1.4555 0
M  V30 3131 H 296.778 3.20674 -0.509731 0
M  V30 3132 H 297.789 3.02669 -4.20252 0
M  V30 3133 H 294.466 3.79556 -1.73906 0
M  V30 3134 H 295.856 3.44963 -5.76585 0
M  V30 3135 N 298.576 1.31904 0.862503 0
M  V30 3136 C 299.523 1.20182 1.9704 0
M  V30 3137 C 300.493 0.0858247 1.65878 0
M  V30 3138 O 301.678 0.26 1.8902 0
M  V30 3139 C 298.818 0.922797 3.32533 0
M  V30 3140 C 297.931 2.12284 3.76244 0
M  V30 3141 C 297.066 1.77996 5.00491 0
M  V30 3142 C 296.105 2.94366 5.36671 0
M  V30 3143 N 295.242 2.60223 6.52095 0
M  V30 3144 H 300.082 2.14951 2.06398 0
M  V30 3145 H 297.619 1.06917 1.01031 0
M  V30 3146 H 299.577 0.741548 4.10557 0
M  V30 3147 H 298.207 0.0119227 3.22798 0
M  V30 3148 H 297.259 2.41461 2.9394 0
M  V30 3149 H 298.571 2.99357 3.98982 0
M  V30 3150 H 297.725 1.56377 5.862 0
M  V30 3151 H 296.464 0.881252 4.79672 0
M  V30 3152 H 295.469 3.16625 4.49476 0
M  V30 3153 H 296.694 3.84957 5.59451 0
M  V30 3154 H 294.64 1.72884 6.32809 0
M  V30 3155 H 294.557 3.40827 6.74814 0
M  V30 3156 H 295.825 2.42016 7.40978 0
M  V30 3157 N 300.054 -1.07777 1.14986 0
M  V30 3158 C 301.47 -1.32373 0.891596 0
M  V30 3159 C 301.67 -1.9609 -0.463788 0
M  V30 3160 O 300.726 -2.21801 -1.20667 0
M  V30 3161 C 302.039 -2.21905 2.02925 0
M  V30 3162 C 303.587 -2.35367 2.06329 0
M  V30 3163 C 304.062 -3.28245 3.19405 0
M  V30 3164 N 305.553 -3.35824 3.19024 0
M  V30 3165 C 306.288 -4.07739 4.03158 0
M  V30 3166 N 305.784 -4.82306 4.97346 0
M  V30 3167 N 307.577 -4.03635 3.91197 0
M  V30 3168 H 299.728 -0.648039 2.02273 0
M  V30 3169 H 301.991 -0.348149 0.881757 0
M  V30 3170 H 301.697 -1.82342 3.0074 0
M  V30 3171 H 301.571 -3.22407 1.95789 0
M  V30 3172 H 303.958 -2.74186 1.09116 0
M  V30 3173 H 304.039 -1.34585 2.17533 0
M  V30 3174 H 303.683 -2.90146 4.16867 0
M  V30 3175 H 303.613 -4.28971 3.05437 0
M  V30 3176 H 306.104 -2.8267 2.50811 0
M  V30 3177 H 306.417 -5.34661 5.57994 0
M  V30 3178 H 304.762 -4.81337 5.01338 0
M  V30 3179 H 307.953 -3.44491 3.16928 0
M  V30 3180 H 308.126 -4.59417 4.5699 0
M  V30 3181 N 301.532 -0.945985 -1.26051 0
M  V30 3182 C 302.772 -0.603665 -1.95282 0
M  V30 3183 C 303.136 0.842377 -1.72534 0
M  V30 3184 O 304.337 1.29387 -2.35611 0
M  V30 3185 C 302.608 -0.942292 -3.44754 0
M  V30 3186 S 304.167 -0.711242 -4.32997 0
M  V30 3187 H 300.985 -0.222176 -0.675395 0
M  V30 3188 H 303.587 -1.21832 -1.52896 0
M  V30 3189 H 302.291 -1.99203 -3.58812 0
M  V30 3190 H 301.822 -0.317546 -3.92116 0
M  V30 3191 H 303.837 0.422221 -4.944 0
M  V30 3192 N 303.011 1.40521 -0.713556 0
M  V30 3193 C 303.974 2.29098 -0.0684347 0
M  V30 3194 C 304.974 1.45268 0.689472 0
M  V30 3195 O 306.164 1.66205 0.521677 0
M  V30 3196 C 303.296 3.28446 0.913024 0
M  V30 3197 H 304.489 2.87645 -0.84855 0
M  V30 3198 H 302.042 1.48809 -0.47809 0
M  V30 3199 H 302.777 2.74913 1.72027 0
M  V30 3200 H 302.562 3.90327 0.372472 0
M  V30 3201 H 304.052 3.94777 1.36165 0
M  V30 3202 N 304.489 0.459591 1.5075 0
M  V30 3203 C 305.735 -0.0994966 2.02556 0
M  V30 3204 C 306.068 -1.40399 1.3417 0
M  V30 3205 O 305.343 -1.88892 0.463683 0
M  V30 3206 C 305.626 -0.295242 3.58888 0
M  V30 3207 C 305.479 1.02947 4.37861 0
M  V30 3208 C 306.798 -1.05502 4.27267 0
M  V30 3209 H 303.917 -0.034686 0.736183 0
M  V30 3210 H 306.559 0.602938 1.8018 0
M  V30 3211 H 304.709 -0.893563 3.78084 0
M  V30 3212 H 306.381 1.66348 4.30263 0
M  V30 3213 H 304.624 1.62885 4.02058 0
M  V30 3214 H 305.295 0.846281 5.45474 0
M  V30 3215 H 307.771 -0.547993 4.12476 0
M  V30 3216 H 306.647 -1.16077 5.36486 0
M  V30 3217 H 306.908 -2.08875 3.89645 0
M  V30 3218 N 305.967 -1.56429 0.191757 0
M  V30 3219 C 307.383 -1.58754 -0.164137 0
M  V30 3220 C 307.583 -1.20782 -1.61288 0
M  V30 3221 O 306.639 -0.928999 -2.34789 0
M  V30 3222 C 307.952 -3.00396 0.135195 0
M  V30 3223 C 309.5 -3.1291 0.0750351 0
M  V30 3224 C 309.975 -4.56679 0.347632 0
M  V30 3225 N 311.466 -4.62252 0.296131 0
M  V30 3226 C 312.201 -5.71379 0.480948 0
M  V30 3227 N 311.697 -6.88986 0.725933 0
M  V30 3228 N 313.49 -5.60563 0.415435 0
M  V30 3229 H 305.641 -1.79393 1.13718 0
M  V30 3230 H 307.904 -0.832414 0.453643 0
M  V30 3231 H 307.61 -3.32726 1.13958 0
M  V30 3232 H 307.484 -3.72963 -0.563773 0
M  V30 3233 H 309.871 -2.80394 -0.919948 0
M  V30 3234 H 309.952 -2.42736 0.807029 0
M  V30 3235 H 309.596 -4.89907 1.33992 0
M  V30 3236 H 309.526 -5.25039 -0.405212 0
M  V30 3237 H 312.017 -3.7773 0.113259 0
M  V30 3238 H 312.33 -7.68046 0.855857 0
M  V30 3239 H 310.675 -6.90801 0.762788 0
M  V30 3240 H 313.866 -4.67561 0.224486 0
M  V30 3241 H 314.039 -6.45551 0.562889 0
M  V30 3242 N 307.445 0.0818655 -1.57387 0
M  V30 3243 C 308.408 1.08265 -2.02018 0
M  V30 3244 C 309.408 1.32183 -0.915664 0
M  V30 3245 O 310.598 1.28073 -1.18081 0
M  V30 3246 C 307.73 2.42871 -2.39221 0
M  V30 3247 H 308.923 0.698204 -2.91659 0
M  V30 3248 H 306.476 0.327303 -1.52835 0
M  V30 3249 H 307.211 2.86167 -1.52575 0
M  V30 3250 H 306.996 2.26855 -3.19811 0
M  V30 3251 H 308.486 3.14826 -2.74362 0
M  V30 3252 N 308.923 1.53595 0.353017 0
M  V30 3253 C 310.151 1.74311 1.1146 0
M  V30 3254 C 310.566 0.477854 1.82653 0
M  V30 3255 O 309.923 -0.549977 1.74016 0
M  V30 3256 C 309.974 2.91694 2.13534 0
M  V30 3257 O 309.695 4.13325 1.45238 0
M  V30 3258 C 311.196 3.24384 3.02142 0
M  V30 3259 H 308.416 0.582669 0.332773 0
M  V30 3260 H 310.96 2.00386 0.408107 0
M  V30 3261 H 309.115 2.67977 2.79763 0
M  V30 3262 H 309.529 4.79148 2.13349 0
M  V30 3263 H 311.003 4.09893 3.69718 0
M  V30 3264 H 311.48 2.40282 3.67643 0
M  V30 3265 H 312.086 3.50073 2.41514 0
M  V30 3266 N 310.401 -0.613514 1.45168 0
M  V30 3267 C 311.349 -1.74572 1.53712 0
M  V30 3268 C 312.343 -1.64426 0.407505 0
M  V30 3269 O 313.549 -1.70291 0.583176 0
M  V30 3270 H 309.924 -0.576641 0.48269 0
M  V30 3271 H 311.895 -1.64492 2.48968 0
M  V30 3272 C 310.644 -3.12943 1.51532 0
M  V30 3273 H 309.967 -3.21407 2.37776 0
M  V30 3274 H 311.407 -3.9201 1.61569 0
M  V30 3275 C 309.866 -3.36053 0.238798 0
M  V30 3276 O 310.396 -3.95837 -0.6838 0
M  V30 3277 N 308.602 -2.9028 0.136359 0
M  V30 3278 H 308.149 -2.41811 0.887999 0
M  V30 3279 H 308.107 -3.06116 -0.716944 0
M  V30 3280 N 311.879 -1.3236 -0.855495 0
M  V30 3281 C 312.827 -1.2118 -1.9854 0
M  V30 3282 C 313.821 -0.116788 -1.68997 0
M  V30 3283 O 315.027 -0.279657 -1.77814 0
M  V30 3284 H 311.402 -0.375608 -0.651477 0
M  V30 3285 H 313.373 -2.16743 -2.05098 0
M  V30 3286 C 312.122 -0.950849 -3.34446 0
M  V30 3287 H 311.445 -1.78563 -3.57708 0
M  V30 3288 H 312.885 -0.912863 -4.14057 0
M  V30 3289 C 311.344 0.346404 -3.35114 0
M  V30 3290 O 311.874 1.35855 -3.7803 0
M  V30 3291 N 310.08 0.36808 -2.88259 0
M  V30 3292 H 309.627 -0.456102 -2.5353 0
M  V30 3293 H 309.585 1.23591 -2.89089 0
M  V30 3294 N 313.357 1.07166 -1.15556 0
M  V30 3295 C 314.597 1.81391 -0.94216 0
M  V30 3296 C 314.961 1.84788 0.521272 0
M  V30 3297 O 316.162 2.54904 0.85307 0
M  V30 3298 C 314.433 3.22431 -1.54185 0
M  V30 3299 S 315.992 4.13379 -1.47183 0
M  V30 3300 H 312.81 0.624963 -0.339031 0
M  V30 3301 H 315.412 1.28725 -1.4714 0
M  V30 3302 H 314.116 3.17548 -2.59984 0
M  V30 3303 H 313.647 3.80172 -1.01156 0
M  V30 3304 H 315.662 4.94007 -0.466004 0
M  V30 3305 N 314.835 0.952656 1.25548 0
M  V30 3306 C 315.782 0.47008 2.25962 0
M  V30 3307 C 316.752 -0.476384 1.59122 0
M  V30 3308 O 317.937 -0.39007 1.8677 0
M  V30 3309 C 315.077 -0.247881 3.44209 0
M  V30 3310 C 314.19 0.735591 4.25691 0
M  V30 3311 C 313.325 -0.0047306 5.312 0
M  V30 3312 C 312.364 0.969805 6.04368 0
M  V30 3313 N 311.501 0.260486 7.01617 0
M  V30 3314 H 316.341 1.33126 2.66611 0
M  V30 3315 H 313.878 0.66765 1.31076 0
M  V30 3316 H 315.836 -0.680695 4.1161 0
M  V30 3317 H 314.466 -1.07312 3.0444 0
M  V30 3318 H 313.518 1.28689 3.57971 0
M  V30 3319 H 314.83 1.47934 4.76358 0
M  V30 3320 H 313.984 -0.496275 6.04667 0
M  V30 3321 H 312.723 -0.781282 4.81401 0
M  V30 3322 H 311.728 1.47237 5.29718 0
M  V30 3323 H 312.953 1.74655 6.56256 0
M  V30 3324 H 310.899 -0.497364 6.54112 0
M  V30 3325 H 310.816 0.943362 7.50091 0
M  V30 3326 H 312.084 -0.209587 7.79218 0
M  V30 3327 N 316.313 -1.40141 0.720998 0
M  V30 3328 C 317.559 -2.01572 0.272075 0
M  V30 3329 C 317.914 -1.5616 -1.12391 0
M  V30 3330 O 317.207 -0.774198 -1.75262 0
M  V30 3331 C 317.401 -3.56165 0.296892 0
M  V30 3332 C 317.23 -4.16584 1.69375 0
M  V30 3333 C 316 -4.49783 2.30269 0
M  V30 3334 C 318.198 -4.41076 2.64493 0
M  V30 3335 N 316.18 -4.95626 3.62254 0
M  V30 3336 C 317.551 -4.88971 3.81192 0
M  V30 3337 C 319.606 -4.23122 2.62435 0
M  V30 3338 C 318.309 -5.20796 4.96149 0
M  V30 3339 C 320.335 -4.56052 3.76524 0
M  V30 3340 C 319.697 -5.04141 4.91956 0
M  V30 3341 H 315.796 -0.768343 0.145511 0
M  V30 3342 H 318.38 -1.70287 0.943959 0
M  V30 3343 H 316.551 -3.86868 -0.344578 0
M  V30 3344 H 318.283 -4.04346 -0.169254 0
M  V30 3345 H 315.038 -4.37101 1.82318 0
M  V30 3346 H 315.462 -5.22923 4.29977 0
M  V30 3347 H 320.104 -3.85158 1.74393 0
M  V30 3348 H 317.822 -5.57672 5.84831 0
M  V30 3349 H 321.408 -4.43796 3.76213 0
M  V30 3350 H 320.288 -5.29142 5.78774 0
M  V30 3351 N 317.792 -0.46758 -1.50504 0
M  V30 3352 C 319.02 0.0864133 -2.06719 0
M  V30 3353 C 319.435 1.33819 -1.33184 0
M  V30 3354 O 318.792 1.78061 -0.400083 0
M  V30 3355 C 318.843 0.378079 -3.59517 0
M  V30 3356 O 318.564 -0.824044 -4.3028 0
M  V30 3357 C 320.065 0.979426 -4.32345 0
M  V30 3358 H 317.285 -0.00551697 -0.670977 0
M  V30 3359 H 319.829 -0.655354 -1.93715 0
M  V30 3360 H 317.984 1.06977 -3.72337 0
M  V30 3361 H 318.398 -0.566518 -5.21432 0
M  V30 3362 H 319.872 1.1333 -5.40241 0
M  V30 3363 H 320.349 1.9686 -3.9261 0
M  V30 3364 H 320.955 0.326216 -4.24047 0
M  V30 3365 N 319.27 1.56325 -0.20005 0
M  V30 3366 C 320.498 2.02105 0.442874 0
M  V30 3367 C 320.913 1.08014 1.5485 0
M  V30 3368 O 320.27 0.0858797 1.82298 0
M  V30 3369 C 320.321 3.47549 0.994583 0
M  V30 3370 O 320.042 4.38049 -0.0669322 0
M  V30 3371 C 321.543 4.0887 1.7129 0
M  V30 3372 H 318.763 0.661807 0.110691 0
M  V30 3373 H 321.307 2.02134 -0.310207 0
M  V30 3374 H 319.462 3.48204 1.69803 0
M  V30 3375 H 319.876 5.23368 0.344462 0
M  V30 3376 H 321.35 5.12475 2.05118 0
M  V30 3377 H 321.827 3.52615 2.61838 0
M  V30 3378 H 322.433 4.12002 1.05518 0
M  V30 3379 N 320.748 -0.0735177 1.57428 0
M  V30 3380 C 321.678 -1.0879 2.06608 0
M  V30 3381 C 322.659 -1.40473 0.959237 0
M  V30 3382 O 323.844 -1.5013 1.23185 0
M  V30 3383 C 320.974 -2.40183 2.50857 0
M  V30 3384 C 319.928 -2.22858 3.65402 0
M  V30 3385 C 319.254 -3.59619 3.957 0
M  V30 3386 C 320.554 -1.65123 4.95511 0
M  V30 3387 H 322.248 -0.678673 2.91607 0
M  V30 3388 H 319.794 -0.325013 1.40284 0
M  V30 3389 H 321.747 -3.11437 2.83874 0
M  V30 3390 H 320.471 -2.83083 1.62885 0
M  V30 3391 H 319.13 -1.54045 3.32664 0
M  V30 3392 H 318.778 -4.00086 3.04861 0
M  V30 3393 H 318.478 -3.48866 4.72828 0
M  V30 3394 H 320.002 -4.32306 4.31212 0
M  V30 3395 H 321.416 -2.26241 5.26771 0
M  V30 3396 H 319.813 -1.65071 5.7695 0
M  V30 3397 H 320.883 -0.612559 4.81015 0
M  V30 3398 N 322.226 -1.5378 -0.344866 0
M  V30 3399 C 323.189 -1.80981 -1.40637 0
M  V30 3400 C 324.189 -0.680816 -1.45676 0
M  V30 3401 O 325.379 -0.949095 -1.46075 0
M  V30 3402 C 322.511 -1.95063 -2.79577 0
M  V30 3403 H 323.704 -2.75803 -1.17783 0
M  V30 3404 H 321.257 -1.45173 -0.579181 0
M  V30 3405 H 321.992 -1.02379 -3.07716 0
M  V30 3406 H 321.777 -2.77198 -2.77315 0
M  V30 3407 H 323.267 -2.17629 -3.56409 0
M  V30 3408 N 323.704 0.605807 -1.45491 0
M  V30 3409 C 324.929 1.39625 -1.53361 0
M  V30 3410 C 325.354 1.87351 -0.167645 0
M  V30 3411 O 324.712 1.60243 0.848051 0
M  V30 3412 C 324.76 2.57559 -2.5238 0
M  V30 3413 O 323.864 3.58248 -2.04285 0
M  V30 3414 H 323.205 0.416771 -0.516912 0
M  V30 3415 H 325.735 0.737103 -1.90861 0
M  V30 3416 H 325.745 3.0478 -2.71244 0
M  V30 3417 H 324.42 2.22171 -3.51586 0
M  V30 3418 H 322.997 3.17664 -1.95305 0
M  V30 3419 N 325.182 1.32811 0.848464 0
M  V30 3420 C 326.431 1.23075 1.59798 0
M  V30 3421 C 326.744 -0.204419 1.94529 0
M  V30 3422 O 327.95 -0.423701 2.68173 0
M  V30 3423 C 326.406 2.15594 2.88179 0
M  V30 3424 C 326.014 3.64228 2.60849 0
M  V30 3425 C 327.758 2.14709 3.66197 0
M  V30 3426 C 325.665 4.48689 3.85269 0
M  V30 3427 H 324.595 0.457091 0.599653 0
M  V30 3428 H 327.246 1.57813 0.936342 0
M  V30 3429 H 325.628 1.73778 3.55833 0
M  V30 3430 H 326.802 4.14424 2.01467 0
M  V30 3431 H 325.117 3.67306 1.96151 0
M  V30 3432 H 327.714 2.75046 4.58534 0
M  V30 3433 H 328.057 1.13966 4.00397 0
M  V30 3434 H 328.59 2.54837 3.05455 0
M  V30 3435 H 325.329 5.5027 3.56207 0
M  V30 3436 H 324.849 4.03241 4.44024 0
M  V30 3437 H 326.528 4.62006 4.52946 0
M  V30 3438 N 326.66 -1.06551 1.16123 0
M  V30 3439 C 327.908 -1.78947 0.939267 0
M  V30 3440 C 328.229 -1.87532 -0.534476 0
M  V30 3441 O 327.499 -1.38211 -1.38833 0
M  V30 3442 H 326.079 -0.662807 0.344523 0
M  V30 3443 H 328.741 -1.28725 1.46342 0
M  V30 3444 H 327.837 -2.81117 1.35572 0
M  V30 3445 N 328.138 -0.959301 -1.25041 0
M  V30 3446 C 329.085 -0.482057 -2.2571 0
M  V30 3447 C 330.055 0.467939 -1.59372 0
M  V30 3448 O 331.24 0.380159 -1.86974 0
M  V30 3449 C 328.38 0.229623 -3.44335 0
M  V30 3450 C 327.493 -0.758156 -4.25295 0
M  V30 3451 C 326.628 -0.0234403 -5.31195 0
M  V30 3452 C 325.667 -1.00184 -6.03846 0
M  V30 3453 N 324.804 -0.29769 -7.01469 0
M  V30 3454 H 329.644 -1.34538 -2.65901 0
M  V30 3455 H 327.181 -0.674592 -1.3072 0
M  V30 3456 H 329.139 0.658856 -4.11965 0
M  V30 3457 H 327.769 1.05696 -3.05005 0
M  V30 3458 H 326.821 -1.30586 -3.57284 0
M  V30 3459 H 328.133 -1.50458 -4.75567 0
M  V30 3460 H 327.287 0.464201 -6.04922 0
M  V30 3461 H 326.026 0.755741 -4.81809 0
M  V30 3462 H 325.031 -1.50044 -5.2893 0
M  V30 3463 H 326.256 -1.78133 -6.55321 0
M  V30 3464 H 324.202 0.462668 -6.54366 0
M  V30 3465 H 324.119 -0.983128 -7.4958 0
M  V30 3466 H 325.387 0.16826 -7.79318 0
M  V30 3467 N 329.616 1.39756 -0.72842 0
M  V30 3468 C 330.893 1.94574 -0.200079 0
M  V30 3469 C 331.273 1.66569 1.29684 0
M  V30 3470 O 330.621 0.990326 2.05924 0
M  V30 3471 C 330.831 3.45004 -0.526608 0
M  V30 3472 C 332.179 4.21965 -0.472318 0
M  V30 3473 O 333.203 3.53173 -0.463413 0
M  V30 3474 O 332.062 5.44552 -0.461075 0
M  V30 3475 H 329.156 0.826289 -0.0342851 0
M  V30 3476 H 331.702 1.49293 -0.806829 0
M  V30 3477 H 330.474 3.58796 -1.56144 0
M  V30 3478 H 330.097 3.97449 0.109449 0
M  V30 3479 N 331.094 0.475555 1.50254 0
M  V30 3480 C 332.343 -0.0795996 2.01543 0
M  V30 3481 C 332.656 -1.4038 1.36209 0
M  V30 3482 O 333.862 -2.04415 1.7868 0
M  V30 3483 C 332.318 -0.192363 3.59386 0
M  V30 3484 C 331.926 1.12367 4.33679 0
M  V30 3485 C 333.67 -0.699238 4.18701 0
M  V30 3486 C 331.577 0.974453 5.83317 0
M  V30 3487 H 330.507 -0.0335228 0.753254 0
M  V30 3488 H 333.158 0.611128 1.73025 0
M  V30 3489 H 331.54 -0.946974 3.84511 0
M  V30 3490 H 332.714 1.88958 4.20276 0
M  V30 3491 H 331.029 1.562 3.85993 0
M  V30 3492 H 333.626 -0.827978 5.28251 0
M  V30 3493 H 333.969 -1.69171 3.80377 0
M  V30 3494 H 334.502 -0.00188807 3.978 0
M  V30 3495 H 331.241 1.94042 6.26121 0
M  V30 3496 H 330.761 0.248998 5.99283 0
M  V30 3497 H 332.44 0.642867 6.43798 0
M  V30 3498 N 332.573 -1.56217 0.208337 0
M  V30 3499 C 333.822 -1.97124 -0.427204 0
M  V30 3500 C 334.135 -1.09859 -1.61835 0
M  V30 3501 O 335.341 -1.40606 -2.32255 0
M  V30 3502 C 333.797 -3.50633 -0.811442 0
M  V30 3503 C 333.405 -4.46582 0.35615 0
M  V30 3504 C 335.149 -4.00282 -1.41332 0
M  V30 3505 C 333.056 -5.91379 -0.0497852 0
M  V30 3506 H 331.986 -0.736086 -0.163381 0
M  V30 3507 H 334.637 -1.8099 0.302456 0
M  V30 3508 H 333.019 -3.62319 -1.59815 0
M  V30 3509 H 334.193 -4.46636 1.1337 0
M  V30 3510 H 332.508 -4.07202 0.870396 0
M  V30 3511 H 335.105 -5.0595 -1.72972 0
M  V30 3512 H 335.448 -3.45359 -2.32449 0
M  V30 3513 H 335.981 -3.91764 -0.690323 0
M  V30 3514 H 332.72 -6.50255 0.827529 0
M  V30 3515 H 332.24 -5.94549 -0.791926 0
M  V30 3516 H 333.919 -6.45209 -0.481042 0
M  V30 3517 N 334.051 0.0651679 -1.57465 0
M  V30 3518 C 334.961 1.09448 -2.07505 0
M  V30 3519 C 335.977 1.41974 -1.00595 0
M  V30 3520 O 337.153 1.52018 -1.32107 0
M  V30 3521 C 334.218 2.38689 -2.51453 0
M  V30 3522 C 333.279 2.13073 -3.72691 0
M  V30 3523 C 332.512 3.36152 -4.14533 0
M  V30 3524 O 332.735 4.45517 -3.56189 0
M  V30 3525 O 331.669 3.23974 -5.07272 0
M  V30 3526 H 335.495 0.69935 -2.95538 0
M  V30 3527 H 333.08 0.279752 -1.46757 0
M  V30 3528 H 334.962 3.14736 -2.80212 0
M  V30 3529 H 333.637 2.77568 -1.66546 0
M  V30 3530 H 332.544 1.34709 -3.49005 0
M  V30 3531 H 333.877 1.79071 -4.5847 0
M  V30 3532 N 335.529 1.53961 0.336706 0
M  V30 3533 C 336.806 1.62171 1.09361 0
M  V30 3534 C 337.186 0.447263 2.06307 0
M  V30 3535 O 336.534 -0.559802 2.21537 0
M  V30 3536 C 336.744 2.98565 1.80721 0
M  V30 3537 C 338.092 3.54157 2.34218 0
M  V30 3538 O 339.116 3.00784 1.90807 0
M  V30 3539 O 337.975 4.47528 3.13657 0
M  V30 3540 H 335.069 0.6562 0.503319 0
M  V30 3541 H 337.615 1.66307 0.33765 0
M  V30 3542 H 336.387 3.75482 1.10132 0
M  V30 3543 H 336.01 2.9805 2.63158 0
M  V30 3544 N 337.007 -0.598083 1.45811 0
M  V30 3545 C 337.97 -1.69018 1.54808 0
M  V30 3546 C 338.97 -1.55037 0.426652 0
M  V30 3547 O 340.16 -1.59932 0.690456 0
M  V30 3548 C 337.292 -3.0835 1.45371 0
M  V30 3549 H 338.485 -1.62403 2.52121 0
M  V30 3550 H 336.038 -0.814626 1.33392 0
M  V30 3551 H 336.773 -3.20534 0.492793 0
M  V30 3552 H 336.558 -3.19907 2.26721 0
M  V30 3553 H 338.048 -3.8788 1.54721 0
M  V30 3554 N 338.485 -1.33259 -0.841409 0
M  V30 3555 C 339.762 -1.15174 -1.58096 0
M  V30 3556 C 340.142 0.282858 -2.09196 0
M  V30 3557 O 339.49 1.28151 -1.89181 0
M  V30 3558 C 339.7 -2.1907 -2.71679 0
M  V30 3559 C 341.048 -2.53093 -3.40924 0
M  V30 3560 O 342.072 -2.17717 -2.81918 0
M  V30 3561 O 340.931 -3.1379 -4.47435 0
M  V30 3562 H 338.025 -0.445303 -0.696875 0
M  V30 3563 H 340.571 -1.44833 -0.884385 0
M  V30 3564 H 339.343 -3.15443 -2.31541 0
M  V30 3565 H 338.966 -1.90481 -3.49002 0
M  V30 3566 N 339.963 1.05934 -1.16686 0
M  V30 3567 C 341.211 1.78447 -0.948744 0
M  V30 3568 C 341.532 1.87813 0.524523 0
M  V30 3569 O 340.802 1.38945 1.38098 0
M  V30 3570 H 339.382 0.660971 -0.348033 0
M  V30 3571 H 342.044 1.27947 -1.47022 0
M  V30 3572 H 341.14 2.80394 -1.37061 0
M  V30 3573 N 341.441 0.965919 1.2453 0
M  V30 3574 C 342.69 0.622437 1.91856 0
M  V30 3575 C 343.003 -0.846006 1.76358 0
M  V30 3576 O 344.209 -1.29993 2.38357 0
M  V30 3577 C 342.665 1.0626 3.43856 0
M  V30 3578 C 342.273 2.55437 3.68043 0
M  V30 3579 C 344.017 0.792183 4.17043 0
M  V30 3580 C 341.924 2.93196 5.13605 0
M  V30 3581 H 340.854 0.229092 0.718354 0
M  V30 3582 H 343.505 1.17189 1.41206 0
M  V30 3583 H 341.887 0.441476 3.93531 0
M  V30 3584 H 343.061 3.22665 3.28974 0
M  V30 3585 H 341.376 2.8007 3.08139 0
M  V30 3586 H 343.973 1.05031 5.24283 0
M  V30 3587 H 344.316 -0.271584 4.15413 0
M  V30 3588 H 344.849 1.37419 3.73311 0
M  V30 3589 H 341.588 3.98636 5.20355 0
M  V30 3590 H 341.108 2.30651 5.53679 0
M  V30 3591 H 342.787 2.83004 5.81823 0
M  V30 3592 N 342.919 -1.39368 0.735821 0
M  V30 3593 C 343.882 -2.2896 0.104874 0
M  V30 3594 C 344.882 -1.46347 -0.666274 0
M  V30 3595 O 346.072 -1.67014 -0.49517 0
M  V30 3596 C 343.204 -3.29857 -0.860656 0
M  V30 3597 H 344.397 -2.86259 0.894205 0
M  V30 3598 H 341.95 -1.48029 0.501704 0
M  V30 3599 H 342.685 -2.77615 -1.67631 0
M  V30 3600 H 342.47 -3.9087 -0.310327 0
M  V30 3601 H 343.96 -3.96893 -1.29867 0
M  V30 3602 N 344.397 -0.483516 -1.5 0
M  V30 3603 C 345.33 0.350427 -2.25493 0
M  V30 3604 C 346.308 0.985549 -1.29328 0
M  V30 3605 O 347.492 1.01906 -1.58579 0
M  V30 3606 C 344.619 1.49202 -3.04066 0
M  V30 3607 C 343.665 0.973036 -4.15252 0
M  V30 3608 S 344.498 -0.122237 -5.3536 0
M  V30 3609 C 345.654 1.02294 -6.17484 0
M  V30 3610 H 345.887 -0.290381 -2.95878 0
M  V30 3611 H 343.42 -0.268562 -1.52046 0
M  V30 3612 H 345.378 2.14623 -3.49925 0
M  V30 3613 H 344.039 2.10438 -2.33183 0
M  V30 3614 H 343.232 1.82804 -4.69679 0
M  V30 3615 H 342.834 0.396335 -3.71894 0
M  V30 3616 H 345.126 1.93195 -6.49371 0
M  V30 3617 H 346.069 0.517664 -7.06205 0
M  V30 3618 H 346.477 1.28238 -5.49741 0
M  V30 3619 N 345.875 1.56104 -0.216619 0
M  V30 3620 C 347.286 1.844 0.292128 0
M  V30 3621 C 347.637 1.13788 1.59833 0
M  V30 3622 O 346.762 0.405888 2.12559 0
M  V30 3623 C 347.357 3.3452 0.53681 0
M  V30 3624 C 345.916 3.63151 0.989876 0
M  V30 3625 C 345.063 2.77255 0.0502302 0
M  V30 3626 H 348.014 1.52481 -0.439926 0
M  V30 3627 H 348.035 3.54459 1.38345 0
M  V30 3628 H 347.547 3.85885 -0.414031 0
M  V30 3629 H 345.648 3.17238 1.95425 0
M  V30 3630 H 345.761 4.71177 0.867698 0
M  V30 3631 H 344.125 2.48555 0.556117 0
M  V30 3632 H 344.908 3.31416 -0.89544 0
M  V30 3633 N 347.353 -0.0568162 1.57498 0
M  V30 3634 C 348.303 -1.07315 2.01166 0
M  V30 3635 C 349.287 -1.33632 0.896171 0
M  V30 3636 O 350.479 -1.33682 1.16009 0
M  V30 3637 C 347.608 -2.38257 2.47161 0
M  V30 3638 C 346.694 -2.1515 3.65474 0
M  V30 3639 N 347.085 -1.62014 4.7915 0
M  V30 3640 C 345.383 -2.45559 3.72313 0
M  V30 3641 C 346.084 -1.54069 5.60926 0
M  V30 3642 N 345.06 -2.00652 5.05213 0
M  V30 3643 H 348.862 -0.655878 2.86488 0
M  V30 3644 H 346.376 -0.263635 1.60246 0
M  V30 3645 H 348.373 -3.11845 2.76691 0
M  V30 3646 H 347.033 -2.80687 1.63232 0
M  V30 3647 H 348.044 -1.30667 5.01145 0
M  V30 3648 H 344.721 -2.91253 2.99129 0
M  V30 3649 H 346.111 -1.13712 6.62208 0
M  V30 3650 N 348.832 -1.54138 -0.328536 0
M  V30 3651 C 349.764 -1.79509 -1.4251 0
M  V30 3652 C 350.777 -0.67688 -1.48061 0
M  V30 3653 O 351.966 -0.953898 -1.50874 0
M  V30 3654 C 349.066 -1.89337 -2.81078 0
M  V30 3655 C 348.239 -3.19443 -2.98789 0
M  V30 3656 C 347.298 -3.20036 -4.17688 0
M  V30 3657 O 346.324 -3.93697 -4.11086 0
M  V30 3658 N 347.526 -2.43467 -5.26976 0
M  V30 3659 H 350.291 -2.74139 -1.21111 0
M  V30 3660 H 347.852 -1.53373 -0.518499 0
M  V30 3661 H 349.844 -1.87167 -3.58818 0
M  V30 3662 H 348.414 -1.01826 -2.95551 0
M  V30 3663 H 347.634 -3.34614 -2.08391 0
M  V30 3664 H 348.922 -4.05354 -3.07515 0
M  V30 3665 H 348.32 -1.83201 -5.35214 0
M  V30 3666 H 346.877 -2.4708 -6.03154 0
M  V30 3667 N 350.31 0.590341 -1.46126 0
M  V30 3668 C 351.556 1.34874 -1.52252 0
M  V30 3669 C 351.911 1.91658 -0.168807 0
M  V30 3670 O 351.204 1.73093 0.821556 0
M  V30 3671 C 351.398 2.5032 -2.55097 0
M  V30 3672 C 351.227 2.04843 -4.00337 0
M  V30 3673 C 349.997 1.90213 -4.68132 0
M  V30 3674 C 352.195 1.61267 -4.88362 0
M  V30 3675 N 350.177 1.38727 -5.9802 0
M  V30 3676 C 351.548 1.21319 -6.08015 0
M  V30 3677 C 353.603 1.49015 -4.75078 0
M  V30 3678 C 352.306 0.7034 -7.15852 0
M  V30 3679 C 354.332 0.994401 -5.8298 0
M  V30 3680 C 353.694 0.604659 -7.018 0
M  V30 3681 H 349.793 0.486803 -0.612002 0
M  V30 3682 H 352.377 0.673007 -1.82698 0
M  V30 3683 H 350.548 3.15466 -2.26574 0
M  V30 3684 H 352.28 3.1725 -2.51266 0
M  V30 3685 H 349.035 2.11927 -4.23537 0
M  V30 3686 H 349.459 1.15168 -6.67132 0
M  V30 3687 H 354.101 1.77768 -3.83612 0
M  V30 3688 H 351.819 0.403446 -8.07092 0
M  V30 3689 H 355.405 0.903621 -5.7474 0
M  V30 3690 H 354.285 0.226963 -7.83871 0
M  V30 3691 N 351.788 1.33704 0.83433 0
M  V30 3692 C 352.718 1.26967 1.95963 0
M  V30 3693 C 353.699 0.149337 1.69443 0
M  V30 3694 O 354.884 0.339852 1.91203 0
M  V30 3695 C 352.014 1.01275 3.32206 0
M  V30 3696 C 350.968 2.09652 3.73136 0
M  V30 3697 C 350.294 1.69166 5.07235 0
M  V30 3698 C 351.594 3.51372 3.86439 0
M  V30 3699 H 353.288 2.2112 2.01857 0
M  V30 3700 H 350.834 1.06447 0.969793 0
M  V30 3701 H 352.787 0.952106 4.10503 0
M  V30 3702 H 351.511 0.0356203 3.26581 0
M  V30 3703 H 350.17 2.14766 2.97104 0
M  V30 3704 H 349.818 0.701437 4.98085 0
M  V30 3705 H 349.518 2.41694 5.35591 0
M  V30 3706 H 351.042 1.64576 5.88003 0
M  V30 3707 H 352.456 3.48734 4.55036 0
M  V30 3708 H 350.853 4.22425 4.26236 0
M  V30 3709 H 351.923 3.89546 2.88759 0
M  V30 3710 N 353.266 -1.05314 1.17247 0
M  V30 3711 C 354.176 -2.16538 0.90268 0
M  V30 3712 C 355.192 -1.73523 -0.128707 0
M  V30 3713 O 356.368 -2.01337 0.0502701 0
M  V30 3714 C 353.433 -3.44167 0.418356 0
M  V30 3715 C 352.494 -4.01635 1.51618 0
M  V30 3716 C 351.727 -5.23171 1.05487 0
M  V30 3717 O 351.95 -5.70327 -0.0914715 0
M  V30 3718 O 350.884 -5.72848 1.8474 0
M  V30 3719 H 354.71 -2.42145 1.83302 0
M  V30 3720 H 352.295 -1.15037 0.953246 0
M  V30 3721 H 354.177 -4.21112 0.155726 0
M  V30 3722 H 352.852 -3.20063 -0.48385 0
M  V30 3723 H 351.759 -3.26135 1.83268 0
M  V30 3724 H 353.092 -4.30053 2.39405 0
M  V30 3725 N 354.744 -0.972509 -1.24016 0
M  V30 3726 C 355.992 -0.635776 -1.91839 0
M  V30 3727 C 356.313 0.832312 -1.76345 0
M  V30 3728 O 355.583 1.5946 -1.13795 0
M  V30 3729 H 354.163 -0.232157 -0.710009 0
M  V30 3730 H 356.825 -1.23462 -1.50809 0
M  V30 3731 H 355.921 -0.880545 -2.99421 0
M  V30 3732 N 356.222 1.38976 -0.743202 0
M  V30 3733 C 357.17 2.32394 -0.0978389 0
M  V30 3734 C 358.164 1.53486 0.716824 0
M  V30 3735 O 359.37 1.69092 0.617088 0
M  V30 3736 H 355.745 0.75189 -0.0128402 0
M  V30 3737 H 357.716 2.84441 -0.901981 0
M  V30 3738 C 356.465 3.38629 0.789036 0
M  V30 3739 H 355.788 3.99432 0.171559 0
M  V30 3740 H 357.228 4.06426 1.20807 0
M  V30 3741 C 355.687 2.76347 1.92702 0
M  V30 3742 O 356.217 2.64836 3.02034 0
M  V30 3743 N 354.423 2.34311 1.71891 0
M  V30 3744 H 353.97 2.43873 0.829675 0
M  V30 3745 H 353.928 1.9298 2.48205 0
M  V30 3746 N 357.7 0.491464 1.49741 0
M  V30 3747 C 358.63 -0.28154 2.31796 0
M  V30 3748 C 359.611 -0.971473 1.3963 0
M  V30 3749 O 360.796 -0.964719 1.68543 0
M  V30 3750 C 357.926 -1.35203 3.19902 0
M  V30 3751 C 356.88 -0.782529 4.20786 0
M  V30 3752 C 356.206 -1.95283 4.97764 0
M  V30 3753 C 357.506 0.21999 5.21837 0
M  V30 3754 H 359.2 0.403355 2.96671 0
M  V30 3755 H 356.746 0.195425 1.42668 0
M  V30 3756 H 358.699 -1.90045 3.76113 0
M  V30 3757 H 357.423 -2.06598 2.52953 0
M  V30 3758 H 356.082 -0.255928 3.65706 0
M  V30 3759 H 355.73 -2.65423 4.2727 0
M  V30 3760 H 355.43 -1.57789 5.66018 0
M  V30 3761 H 356.954 -2.50577 5.56816 0
M  V30 3762 H 358.368 -0.23996 5.72798 0
M  V30 3763 H 356.765 0.51026 5.97927 0
M  V30 3764 H 357.835 1.13911 4.7133 0
M  V30 3765 N 359.178 -1.55987 0.224894 0
M  V30 3766 C 360.589 -1.84553 -0.282345 0
M  V30 3767 C 360.94 -1.14634 -1.59227 0
M  V30 3768 O 360.065 -0.417155 -2.12341 0
M  V30 3769 C 360.66 -3.348 -0.519062 0
M  V30 3770 C 359.219 -3.63671 -0.970604 0
M  V30 3771 C 358.366 -2.77277 -0.0355261 0
M  V30 3772 H 361.317 -1.52245 0.448006 0
M  V30 3773 H 361.338 -3.55187 -1.36463 0
M  V30 3774 H 360.85 -3.8566 0.43449 0
M  V30 3775 H 358.951 -3.1827 -1.9374 0
M  V30 3776 H 359.064 -4.71631 -0.842698 0
M  V30 3777 H 357.428 -2.48846 -0.542927 0
M  V30 3778 H 358.211 -3.30937 0.913003 0
M  V30 3779 N 360.656 0.0484629 -1.57525 0
M  V30 3780 C 361.902 0.744226 -1.88651 0
M  V30 3781 C 362.235 1.76029 -0.820212 0
M  V30 3782 O 361.51 1.93782 0.166985 0
M  V30 3783 C 361.793 1.43128 -3.30434 0
M  V30 3784 C 361.646 0.43005 -4.47739 0
M  V30 3785 C 362.965 2.37031 -3.70816 0
M  V30 3786 H 360.084 0.269089 -0.68612 0
M  V30 3787 H 362.726 0.00713532 -1.89999 0
M  V30 3788 H 360.876 2.05956 -3.29415 0
M  V30 3789 H 362.548 -0.194816 -4.60888 0
M  V30 3790 H 360.791 -0.252522 -4.33064 0
M  V30 3791 H 361.462 0.948874 -5.43783 0
M  V30 3792 H 363.938 1.84263 -3.73077 0
M  V30 3793 H 362.814 2.82094 -4.70865 0
M  V30 3794 H 363.075 3.22864 -3.02012 0
M  V30 3795 N 362.134 1.5431 0.320358 0
M  V30 3796 C 363.359 1.76954 1.08175 0
M  V30 3797 C 363.784 0.518193 1.80821 0
M  V30 3798 O 363.142 -0.530411 1.73368 0
M  V30 3799 C 363.19 2.96451 2.05303 0
M  V30 3800 O 362.294 2.68221 3.13259 0
M  V30 3801 H 361.635 0.586275 0.311733 0
M  V30 3802 H 364.165 2.01342 0.363676 0
M  V30 3803 H 364.175 3.23887 2.48116 0
M  V30 3804 H 362.85 3.87196 1.51829 0
M  V30 3805 H 361.427 2.51744 2.75099 0
M  V30 3806 N 363.613 -0.582584 1.46437 0
M  V30 3807 C 364.576 -1.67366 1.56592 0
M  V30 3808 C 365.576 -1.54575 0.443072 0
M  V30 3809 O 366.766 -1.59191 0.707381 0
M  V30 3810 C 363.898 -3.06791 1.48634 0
M  V30 3811 H 365.091 -1.5972 2.5383 0
M  V30 3812 H 362.644 -0.800432 1.34249 0
M  V30 3813 H 363.379 -3.19993 0.526763 0
M  V30 3814 H 363.164 -3.17484 2.30101 0
M  V30 3815 H 364.654 -3.86218 1.58826 0
M  V30 3816 N 365.091 -1.34144 -0.827227 0
M  V30 3817 C 366.038 -1.25364 -1.93785 0
M  V30 3818 C 367.008 -0.129774 -1.65592 0
M  V30 3819 O 368.193 -0.310024 -1.88264 0
M  V30 3820 C 365.333 -1.01064 -3.2997 0
M  V30 3821 C 364.446 -2.22185 -3.70484 0
M  V30 3822 C 363.581 -1.91203 -4.95595 0
M  V30 3823 C 362.62 -3.08491 -5.28677 0
M  V30 3824 N 361.757 -2.77421 -6.44967 0
M  V30 3825 H 366.597 -2.20347 -2.00627 0
M  V30 3826 H 364.134 -1.09558 -0.981608 0
M  V30 3827 H 366.092 -0.850139 -4.08446 0
M  V30 3828 H 364.722 -0.0975026 -3.22653 0
M  V30 3829 H 363.774 -2.4917 -2.87434 0
M  V30 3830 H 365.086 -3.0983 -3.90905 0
M  V30 3831 H 364.24 -1.71864 -5.81848 0
M  V30 3832 H 362.979 -1.00812 -4.77167 0
M  V30 3833 H 361.984 -3.28431 -4.40923 0
M  V30 3834 H 363.209 -3.99655 -5.49047 0
M  V30 3835 H 361.155 -1.89601 -6.28003 0
M  V30 3836 H 361.072 -3.58598 -6.6554 0
M  V30 3837 H 362.34 -2.61577 -7.34301 0
M  V30 3838 N 366.569 1.04691 -1.17803 0
M  V30 3839 C 367.809 1.79352 -0.980423 0
M  V30 3840 C 368.173 1.85853 0.481958 0
M  V30 3841 O 369.374 2.56656 0.798809 0
M  V30 3842 C 367.645 3.19088 -1.6099 0
M  V30 3843 S 369.204 4.10164 -1.55918 0
M  V30 3844 H 366.022 0.617631 -0.352211 0
M  V30 3845 H 368.624 1.25575 -1.49837 0
M  V30 3846 H 367.328 3.11962 -2.66661 0
M  V30 3847 H 366.859 3.77941 -1.09197 0
M  V30 3848 H 368.874 4.92907 -0.570685 0
M  V30 3849 N 368.047 0.979072 1.23499 0
M  V30 3850 C 369.275 0.665202 1.95915 0
M  V30 3851 C 369.69 -0.767571 1.72493 0
M  V30 3852 O 369.047 -1.51635 1.01554 0
M  V30 3853 C 369.098 0.944438 3.48945 0
M  V30 3854 O 368.819 2.3209 3.71572 0
M  V30 3855 C 370.32 0.646336 4.38563 0
M  V30 3856 H 367.54 0.247218 0.623798 0
M  V30 3857 H 370.084 1.31009 1.57025 0
M  V30 3858 H 368.239 0.345575 3.85856 0
M  V30 3859 H 368.653 2.40957 4.65876 0
M  V30 3860 H 370.127 0.892091 5.44744 0
M  V30 3861 H 370.604 -0.419575 4.37191 0
M  V30 3862 H 371.21 1.22562 4.07258 0
M  V30 3863 N 369.525 -1.3858 0.750561 0
M  V30 3864 C 370.771 -2.00481 0.305825 0
M  V30 3865 C 371.104 -1.5944 -1.10872 0
M  V30 3866 O 370.379 -0.83052 -1.75877 0
M  V30 3867 C 370.662 -3.5758 0.425287 0
M  V30 3868 C 370.515 -4.08594 1.88072 0
M  V30 3869 C 371.834 -4.39719 -0.183122 0
M  V30 3870 H 368.953 -0.728348 0.112598 0
M  V30 3871 H 371.595 -1.64566 0.949638 0
M  V30 3872 H 369.745 -3.88306 -0.122828 0
M  V30 3873 H 371.417 -3.88523 2.48691 0
M  V30 3874 H 369.66 -3.61574 2.39681 0
M  V30 3875 H 370.331 -5.177 1.91548 0
M  V30 3876 H 372.807 -4.15128 0.284303 0
M  V30 3877 H 371.683 -5.48856 -0.0692757 0
M  V30 3878 H 371.944 -4.23434 -1.27106 0
M  V30 3879 N 371.003 -0.499398 -1.49478 0
M  V30 3880 C 372.243 0.0440751 -2.04352 0
M  V30 3881 C 372.607 1.34423 -1.37093 0
M  V30 3882 O 373.808 1.97184 -1.82679 0
M  V30 3883 C 372.079 0.194918 -3.56868 0
M  V30 3884 S 373.638 0.69287 -4.33295 0
M  V30 3885 H 370.456 0.00253458 -0.710995 0
M  V30 3886 H 373.058 -0.673 -1.83551 0
M  V30 3887 H 371.762 -0.756672 -4.03364 0
M  V30 3888 H 371.293 0.93728 -3.82071 0
M  V30 3889 H 373.308 1.96226 -4.55752 0
M  V30 3890 N 372.481 1.55866 -0.233164 0
M  V30 3891 C 373.758 1.90471 0.444988 0
M  V30 3892 C 374.138 1.15209 1.7689 0
M  V30 3893 O 373.486 0.265119 2.26957 0
M  V30 3894 C 373.696 3.4333 0.626559 0
M  V30 3895 C 375.044 4.14319 0.92871 0
M  V30 3896 O 376.068 3.48993 0.712926 0
M  V30 3897 O 374.927 5.29846 1.33887 0
M  V30 3898 H 372.021 0.792347 0.236885 0
M  V30 3899 H 374.567 1.67437 -0.276211 0
M  V30 3900 H 373.339 3.90095 -0.306822 0
M  V30 3901 H 372.962 3.72181 1.39881 0
M  V30 3902 N 373.959 -0.0401083 1.57549 0
M  V30 3903 C 374.906 -1.04413 2.05831 0
M  V30 3904 C 375.876 -1.36585 0.945184 0
M  V30 3905 O 377.061 -1.47112 1.21502 0
M  V30 3906 C 374.201 -2.34336 2.53339 0
M  V30 3907 C 373.314 -2.08419 3.78398 0
M  V30 3908 C 372.449 -3.32133 4.14561 0
M  V30 3909 C 371.488 -3.01721 5.3257 0
M  V30 3910 N 370.625 -4.17855 5.64218 0
M  V30 3911 H 375.465 -0.625442 2.91363 0
M  V30 3912 H 373.002 -0.297218 1.44066 0
M  V30 3913 H 374.96 -3.10234 2.78946 0
M  V30 3914 H 373.59 -2.73948 1.7074 0
M  V30 3915 H 372.642 -1.23069 3.59942 0
M  V30 3916 H 373.954 -1.81978 4.64419 0
M  V30 3917 H 373.108 -4.16406 4.41238 0
M  V30 3918 H 371.847 -3.61678 3.2717 0
M  V30 3919 H 370.852 -2.15849 5.05657 0
M  V30 3920 H 372.077 -2.73466 6.21605 0
M  V30 3921 H 370.023 -4.47372 4.79786 0
M  V30 3922 H 369.94 -3.94798 6.44725 0
M  V30 3923 H 371.208 -5.03033 5.95465 0
M  V30 3924 N 375.437 -1.54477 -0.31217 0
M  V30 3925 C 376.665 -1.77205 -1.068 0
M  V30 3926 C 377.08 -0.526114 -1.81321 0
M  V30 3927 O 376.437 0.503647 -1.75413 0
M  V30 3928 C 376.488 -2.97253 -2.05725 0
M  V30 3929 O 376.209 -4.1703 -1.34228 0
M  V30 3930 C 377.71 -3.32281 -2.93435 0
M  V30 3931 H 374.93 -0.591287 -0.317208 0
M  V30 3932 H 377.474 -2.01398 -0.354834 0
M  V30 3933 H 375.629 -2.753 -2.72559 0
M  V30 3934 H 376.043 -4.84636 -2.00571 0
M  V30 3935 H 377.517 -4.19551 -3.58721 0
M  V30 3936 H 377.994 -2.49945 -3.61143 0
M  V30 3937 H 378.6 -3.56353 -2.32147 0
M  V30 3938 N 376.915 0.57481 -1.46744 0
M  V30 3939 C 378.155 1.34369 -1.54027 0
M  V30 3940 C 378.519 1.91051 -0.190642 0
M  V30 3941 O 379.72 2.68444 -0.138255 0
M  V30 3942 C 377.991 2.43706 -2.61423 0
M  V30 3943 S 379.55 3.30915 -2.88167 0
M  V30 3944 H 376.368 0.45768 -0.544105 0
M  V30 3945 H 378.97 0.659959 -1.84024 0
M  V30 3946 H 377.674 2.0047 -3.58106 0
M  V30 3947 H 377.205 3.16842 -2.33184 0
M  V30 3948 H 379.22 4.42742 -2.24039 0
M  V30 3949 N 378.394 1.34581 0.820102 0
M  V30 3950 C 379.642 1.26845 1.57336 0
M  V30 3951 C 379.963 -0.160667 1.94337 0
M  V30 3952 O 379.233 -1.09396 1.6251 0
M  V30 3953 H 377.813 0.466514 0.583415 0
M  V30 3954 H 380.475 1.68526 0.979027 0
M  V30 3955 H 379.571 1.87513 2.4949 0
M  V30 3956 N 379.872 -1.04064 1.18357 0
M  V30 3957 C 381.097 -1.81454 1.00445 0
M  V30 3958 C 381.522 -1.82823 -0.442423 0
M  V30 3959 O 380.88 -1.24555 -1.31741 0
M  V30 3960 C 380.928 -3.24925 1.56384 0
M  V30 3961 O 380.032 -4.04856 0.785209 0
M  V30 3962 H 379.373 -0.560604 0.355835 0
M  V30 3963 H 381.903 -1.31059 1.57114 0
M  V30 3964 H 381.913 -3.75702 1.59097 0
M  V30 3965 H 380.588 -3.23244 2.61699 0
M  V30 3966 H 379.165 -3.63537 0.830399 0
M  V30 3967 N 381.35 -0.985608 -1.22978 0
M  V30 3968 C 382.596 -0.65836 -1.91816 0
M  V30 3969 C 382.929 0.806692 -1.76653 0
M  V30 3970 O 382.204 1.58252 -1.13078 0
M  V30 3971 C 382.487 -1.056 -3.44268 0
M  V30 3972 C 382.34 -2.57906 -3.68516 0
M  V30 3973 C 383.659 -0.603781 -4.35939 0
M  V30 3974 H 380.778 -0.24065 -0.696604 0
M  V30 3975 H 383.42 -1.22783 -1.44998 0
M  V30 3976 H 381.57 -0.571445 -3.84274 0
M  V30 3977 H 383.242 -3.13976 -3.3796 0
M  V30 3978 H 381.485 -3.00305 -3.13048 0
M  V30 3979 H 382.156 -2.80779 -4.75255 0
M  V30 3980 H 384.632 -1.01987 -4.03408 0
M  V30 3981 H 383.508 -0.910383 -5.41298 0
M  V30 3982 H 383.769 0.495761 -4.39312 0
M  V30 3983 N 382.828 1.3818 -0.7579 0
M  V30 3984 C 383.758 2.33027 -0.148597 0
M  V30 3985 C 384.739 1.55085 0.69875 0
M  V30 3986 O 385.924 1.83384 0.639053 0
M  V30 3987 C 383.054 3.3928 0.742034 0
M  V30 3988 C 382.008 4.28 -0.00291946 0
M  V30 3989 C 381.334 5.25146 1.00625 0
M  V30 3990 C 382.634 5.08938 -1.17385 0
M  V30 3991 H 384.328 2.84231 -0.940909 0
M  V30 3992 H 381.874 1.36659 -0.453908 0
M  V30 3993 H 383.827 4.046 1.17799 0
M  V30 3994 H 382.551 2.86569 1.56671 0
M  V30 3995 H 381.21 3.64192 -0.419504 0
M  V30 3996 H 380.858 4.68721 1.8251 0
M  V30 3997 H 380.558 5.85361 0.512428 0
M  V30 3998 H 382.082 5.93342 1.44143 0
M  V30 3999 H 383.496 5.67474 -0.815224 0
M  V30 4000 H 381.893 5.7841 -1.59882 0
M  V30 4001 H 382.963 4.42424 -1.98468 0
M  V30 4002 N 384.306 0.507319 1.49211 0
M  V30 4003 C 385.722 0.163682 1.58758 0
M  V30 4004 C 385.922 -1.33208 1.51188 0
M  V30 4005 O 384.978 -2.10855 1.38911 0
M  V30 4006 C 386.291 0.746095 2.91297 0
M  V30 4007 C 387.839 0.712773 3.04776 0
M  V30 4008 C 388.314 1.27336 4.39943 0
M  V30 4009 N 389.805 1.23433 4.46451 0
M  V30 4010 C 390.54 1.63821 5.495 0
M  V30 4011 N 390.036 2.11832 6.5962 0
M  V30 4012 N 391.829 1.55198 5.4025 0
M  V30 4013 H 383.98 1.47972 1.52375 0
M  V30 4014 H 386.243 0.614147 0.722168 0
M  V30 4015 H 385.949 1.79534 3.02424 0
M  V30 4016 H 385.823 0.210137 3.76614 0
M  V30 4017 H 388.21 -0.327656 2.93275 0
M  V30 4018 H 388.291 1.28595 2.21127 0
M  V30 4019 H 387.935 2.3126 4.52196 0
M  V30 4020 H 387.865 0.676066 5.22242 0
M  V30 4021 H 390.356 0.882627 3.67448 0
M  V30 4022 H 390.669 2.40703 7.34358 0
M  V30 4023 H 389.014 2.1581 6.60644 0
M  V30 4024 H 392.205 1.17505 4.53112 0
M  V30 4025 H 392.378 1.86997 6.20432 0
M  V30 4026 N 385.784 -1.5574 0.241426 0
M  V30 4027 C 386.714 -2.24133 -0.654722 0
M  V30 4028 C 387.695 -1.21974 -1.1856 0
M  V30 4029 O 388.88 -1.50612 -1.22595 0
M  V30 4030 C 386.01 -2.93659 -1.85423 0
M  V30 4031 C 384.964 -4.0246 -1.45636 0
M  V30 4032 C 384.29 -4.59383 -2.73626 0
M  V30 4033 C 385.59 -5.18468 -0.631506 0
M  V30 4034 H 387.284 -2.99281 -0.0844353 0
M  V30 4035 H 384.83 -1.43947 -0.0391707 0
M  V30 4036 H 386.783 -3.40203 -2.48676 0
M  V30 4037 H 385.507 -2.15991 -2.44981 0
M  V30 4038 H 384.166 -3.56676 -0.847202 0
M  V30 4039 H 383.814 -3.78422 -3.3137 0
M  V30 4040 H 383.514 -5.32826 -2.4773 0
M  V30 4041 H 385.038 -5.08658 -3.37786 0
M  V30 4042 H 386.452 -5.61272 -1.1682 0
M  V30 4043 H 384.849 -5.98266 -0.468831 0
M  V30 4044 H 385.919 -4.8358 0.357506 0
M  V30 4045 N 387.262 0.0317525 -1.57568 0
M  V30 4046 C 388.194 1.06073 -2.03178 0
M  V30 4047 C 389.207 1.32627 -0.944132 0
M  V30 4048 O 390.396 1.30162 -1.22148 0
M  V30 4049 C 387.496 2.40297 -2.38978 0
M  V30 4050 C 386.669 2.33137 -3.70089 0
M  V30 4051 C 385.728 3.49787 -3.9311 0
M  V30 4052 O 384.754 3.29403 -4.64201 0
M  V30 4053 N 385.956 4.71562 -3.38541 0
M  V30 4054 H 388.721 0.672006 -2.92069 0
M  V30 4055 H 386.282 0.219745 -1.60402 0
M  V30 4056 H 388.274 3.1705 -2.51518 0
M  V30 4057 H 386.844 2.71024 -1.55771 0
M  V30 4058 H 386.064 1.415 -3.67928 0
M  V30 4059 H 387.352 2.25493 -4.56104 0
M  V30 4060 H 386.75 4.91024 -2.80912 0
M  V30 4061 H 385.307 5.45689 -3.56464 0
M  V30 4062 N 388.74 1.54641 0.303973 0
M  V30 4063 C 390.017 1.64455 1.05896 0
M  V30 4064 C 390.397 0.490923 2.05312 0
M  V30 4065 O 389.745 -0.512685 2.22674 0
M  V30 4066 C 389.955 3.02331 1.74347 0
M  V30 4067 C 391.303 3.59045 2.26653 0
M  V30 4068 O 392.327 3.04764 1.84384 0
M  V30 4069 O 391.186 4.54081 3.04093 0
M  V30 4070 H 388.28 0.666729 0.489287 0
M  V30 4071 H 390.826 1.66986 0.302298 0
M  V30 4072 H 389.598 3.77734 1.02142 0
M  V30 4073 H 389.221 3.03565 2.56777 0
M  V30 4074 N 390.218 -0.567019 1.47046 0
M  V30 4075 C 391.464 -1.32434 1.54379 0
M  V30 4076 C 391.819 -1.91365 0.199276 0
M  V30 4077 O 391.112 -1.74378 -0.793915 0
M  V30 4078 C 391.306 -2.4623 2.59047 0
M  V30 4079 C 391.135 -1.98448 4.03545 0
M  V30 4080 C 389.905 -1.82741 4.71098 0
M  V30 4081 C 392.103 -1.53477 4.90866 0
M  V30 4082 N 390.085 -1.29196 6.00151 0
M  V30 4083 C 391.456 -1.1163 6.09868 0
M  V30 4084 C 393.511 -1.41438 4.77388 0
M  V30 4085 C 392.214 -0.589425 7.16881 0
M  V30 4086 C 394.24 -0.901528 5.84488 0
M  V30 4087 C 393.602 -0.492932 7.02673 0
M  V30 4088 H 389.701 -0.477005 0.61967 0
M  V30 4089 H 392.285 -0.643856 1.83746 0
M  V30 4090 H 390.456 -3.11821 2.31564 0
M  V30 4091 H 392.188 -3.13213 2.56281 0
M  V30 4092 H 388.943 -2.05162 4.26855 0
M  V30 4093 H 389.367 -1.0454 6.6888 0
M  V30 4094 H 394.009 -1.71643 3.86392 0
M  V30 4095 H 391.727 -0.274994 8.07632 0
M  V30 4096 H 395.313 -0.812071 5.76105 0
M  V30 4097 H 394.193 -0.102227 7.84133 0
M  V30 4098 N 391.696 -1.35014 -0.812953 0
M  V30 4099 C 393.112 -1.14914 -1.10757 0
M  V30 4100 C 393.312 0.0426818 -2.01455 0
M  V30 4101 O 392.368 0.715212 -2.42159 0
M  V30 4102 C 393.681 -2.44911 -1.74468 0
M  V30 4103 C 395.229 -2.5106 -1.86917 0
M  V30 4104 C 395.704 -3.81085 -2.54044 0
M  V30 4105 N 397.195 -3.82301 -2.61535 0
M  V30 4106 C 397.93 -4.79634 -3.14227 0
M  V30 4107 N 397.426 -5.87353 -3.67407 0
M  V30 4108 N 399.219 -4.67078 -3.12721 0
M  V30 4109 H 391.37 -2.1136 -0.20989 0
M  V30 4110 H 393.633 -0.935128 -0.155692 0
M  V30 4111 H 393.339 -3.32267 -1.15289 0
M  V30 4112 H 393.213 -2.58989 -2.74234 0
M  V30 4113 H 395.6 -1.64137 -2.45241 0
M  V30 4114 H 395.681 -2.40901 -0.860242 0
M  V30 4115 H 395.325 -4.68402 -1.96372 0
M  V30 4116 H 395.255 -3.88529 -3.55461 0
M  V30 4117 H 397.746 -3.04465 -2.23851 0
M  V30 4118 H 398.059 -6.57624 -4.05894 0
M  V30 4119 H 396.404 -5.91054 -3.65623 0
M  V30 4120 H 399.595 -3.82067 -2.70449 0
M  V30 4121 H 399.768 -5.43098 -3.53481 0
M  V30 4122 N 393.175 1.03435 -1.18907 0
M  V30 4123 C 394.415 1.78302 -0.999391 0
M  V30 4124 C 394.779 1.86353 0.462219 0
M  V30 4125 O 395.98 2.57489 0.771543 0
M  V30 4126 C 394.251 3.17362 -1.64365 0
M  V30 4127 S 395.81 4.08488 -1.6026 0
M  V30 4128 H 392.628 0.613861 -0.358742 0
M  V30 4129 H 395.23 1.23979 -1.51161 0
M  V30 4130 H 393.934 3.09116 -2.69955 0
M  V30 4131 H 393.465 3.76762 -1.13199 0
M  V30 4132 H 395.48 4.92274 -0.622932 0
M  V30 4133 N 394.653 0.992116 1.22453 0
M  V30 4134 C 395.583 0.561677 2.26644 0
M  V30 4135 C 396.564 -0.411055 1.65059 0
M  V30 4136 O 397.749 -0.301861 1.9184 0
M  V30 4137 C 394.879 -0.125247 3.47074 0
M  V30 4138 C 393.833 0.765948 4.21091 0
M  V30 4139 C 393.159 -0.0538484 5.34673 0
M  V30 4140 C 394.459 2.06242 4.79856 0
M  V30 4141 H 396.153 1.43259 2.62902 0
M  V30 4142 H 393.699 0.690283 1.26377 0
M  V30 4143 H 395.652 -0.437764 4.1912 0
M  V30 4144 H 394.376 -1.03069 3.0991 0
M  V30 4145 H 393.035 1.0621 3.50878 0
M  V30 4146 H 392.683 -0.960188 4.9375 0
M  V30 4147 H 392.383 0.539415 5.85119 0
M  V30 4148 H 393.907 -0.360477 6.09535 0
M  V30 4149 H 395.321 1.8139 5.43848 0
M  V30 4150 H 393.718 2.60444 5.40638 0
M  V30 4151 H 394.788 2.74167 3.99951 0
M  V30 4152 N 396.131 -1.37776 0.765217 0
M  V30 4153 C 397.377 -2.00604 0.336066 0
M  V30 4154 C 397.732 -1.59657 -1.07366 0
M  V30 4155 O 397.025 -0.829565 -1.7271 0
M  V30 4156 C 397.219 -3.5504 0.410053 0
M  V30 4157 C 397.048 -4.10985 1.82542 0
M  V30 4158 C 395.818 -4.42229 2.44461 0
M  V30 4159 C 398.016 -4.32438 2.78392 0
M  V30 4160 N 395.998 -4.8385 3.77839 0
M  V30 4161 C 397.369 -4.76596 3.96556 0
M  V30 4162 C 399.424 -4.14559 2.75764 0
M  V30 4163 C 398.127 -5.04748 5.12466 0
M  V30 4164 C 400.153 -4.43843 3.90842 0
M  V30 4165 C 399.515 -4.88235 5.07746 0
M  V30 4166 H 395.614 -0.763325 0.169881 0
M  V30 4167 H 398.198 -1.67197 0.997656 0
M  V30 4168 H 396.369 -3.87769 -0.221325 0
M  V30 4169 H 398.101 -4.0468 -0.0405285 0
M  V30 4170 H 394.856 -4.31079 1.96131 0
M  V30 4171 H 395.28 -5.08979 4.46396 0
M  V30 4172 H 399.922 -3.79415 1.86558 0
M  V30 4173 H 397.64 -5.38783 6.02277 0
M  V30 4174 H 401.226 -4.31603 3.90141 0
M  V30 4175 H 400.106 -5.10461 5.95315 0
M  V30 4176 N 397.609 -0.515225 -1.4894 0
M  V30 4177 C 398.849 0.0223983 -2.04388 0
M  V30 4178 C 399.213 1.32961 -1.38511 0
M  V30 4179 O 400.414 1.95236 -1.8476 0
M  V30 4180 C 398.685 0.157056 -3.57055 0
M  V30 4181 S 400.244 0.646875 -4.34006 0
M  V30 4182 H 397.062 -0.00500662 -0.710982 0
M  V30 4183 H 399.664 -0.69243 -1.82827 0
M  V30 4184 H 398.368 -0.799412 -4.02539 0
M  V30 4185 H 397.899 0.896704 -3.83044 0
M  V30 4186 H 399.914 1.91381 -4.57808 0
M  V30 4187 N 399.087 1.5561 -0.249682 0
M  V30 4188 C 400.034 2.21496 0.648694 0
M  V30 4189 C 401.004 1.17977 1.16921 0
M  V30 4190 O 402.189 1.46434 1.22318 0
M  V30 4191 C 399.329 2.92039 1.83868 0
M  V30 4192 C 398.442 4.10219 1.35442 0
M  V30 4193 C 397.577 4.6847 2.50419 0
M  V30 4194 C 396.616 5.78893 1.98869 0
M  V30 4195 N 395.753 6.31315 3.07223 0
M  V30 4196 H 400.593 2.97892 0.0801582 0
M  V30 4197 H 398.13 1.47074 0.0278031 0
M  V30 4198 H 400.088 3.31138 2.53778 0
M  V30 4199 H 398.718 2.18111 2.37965 0
M  V30 4200 H 397.77 3.76413 0.54928 0
M  V30 4201 H 399.082 4.89927 0.936649 0
M  V30 4202 H 398.236 5.10158 3.28366 0
M  V30 4203 H 396.975 3.87984 2.95499 0
M  V30 4204 H 395.98 5.3668 1.19393 0
M  V30 4205 H 397.205 6.61232 1.54755 0
M  V30 4206 H 395.151 5.53733 3.51732 0
M  V30 4207 H 395.068 7.06224 2.69784 0
M  V30 4208 H 396.336 6.77662 3.8522 0
M  V30 4209 N 400.565 -0.0233959 1.57583 0
M  V30 4210 C 401.528 -1.00693 2.05897 0
M  V30 4211 C 402.528 -1.28693 0.964092 0
M  V30 4212 O 403.718 -1.23602 1.22753 0
M  V30 4213 C 400.85 -2.33825 2.4807 0
M  V30 4214 H 402.043 -0.589476 2.9405 0
M  V30 4215 H 399.596 -0.270354 1.53944 0
M  V30 4216 H 400.331 -2.80307 1.6309 0
M  V30 4217 H 400.116 -2.1483 3.2801 0
M  V30 4218 H 401.606 -3.04426 2.85857 0
M  V30 4219 N 402.043 -1.548 -0.295768 0
M  V30 4220 C 402.976 -1.81003 -1.38972 0
M  V30 4221 C 403.954 -0.661544 -1.48534 0
M  V30 4222 O 405.138 -0.902074 -1.65514 0
M  V30 4223 C 402.265 -1.95141 -2.76835 0
M  V30 4224 C 401.311 -3.17592 -2.84671 0
M  V30 4225 S 402.144 -4.75531 -2.46232 0
M  V30 4226 C 403.3 -4.92613 -3.86114 0
M  V30 4227 H 403.533 -2.73507 -1.16537 0
M  V30 4228 H 401.066 -1.46278 -0.494168 0
M  V30 4229 H 403.024 -2.03972 -3.56238 0
M  V30 4230 H 401.685 -1.03565 -2.96535 0
M  V30 4231 H 400.878 -3.24303 -3.85803 0
M  V30 4232 H 400.48 -3.07235 -2.13267 0
M  V30 4233 H 402.772 -4.76957 -4.81164 0
M  V30 4234 H 403.715 -5.94698 -3.8437 0
M  V30 4235 H 404.123 -4.2073 -3.76359 0
M  V30 4236 N 403.521 0.559213 -1.47345 0
M  V30 4237 C 404.767 1.31843 -1.54095 0
M  V30 4238 C 405.1 1.93149 -0.201726 0
M  V30 4239 O 404.375 1.77759 0.789428 0
M  V30 4240 C 404.658 2.43006 -2.65744 0
M  V30 4241 C 404.511 1.86581 -4.09277 0
M  V30 4242 C 405.83 3.44943 -2.73318 0
M  V30 4243 H 402.949 0.478012 -0.560957 0
M  V30 4244 H 405.591 0.625977 -1.79392 0
M  V30 4245 H 403.741 3.02072 -2.44305 0
M  V30 4246 H 405.413 1.31792 -4.42073 0
M  V30 4247 H 403.656 1.17268 -4.17649 0
M  V30 4248 H 404.327 2.66933 -4.83168 0
M  V30 4249 H 406.803 2.95793 -2.92653 0
M  V30 4250 H 405.679 4.20153 -3.53218 0
M  V30 4251 H 405.94 4.03665 -1.80296 0
M  V30 4252 N 404.999 1.35443 0.805782 0
M  V30 4253 C 405.949 1.24972 1.90699 0
M  V30 4254 C 406.933 0.144806 1.60247 0
M  V30 4255 O 408.125 0.376102 1.72958 0
M  V30 4256 C 405.254 1.02475 3.27649 0
M  V30 4257 C 404.34 2.17361 3.64164 0
M  V30 4258 N 404.731 3.42591 3.72109 0
M  V30 4259 C 403.029 2.08765 3.94123 0
M  V30 4260 C 403.73 4.18144 4.04389 0
M  V30 4261 N 402.706 3.4691 4.18515 0
M  V30 4262 H 406.508 2.19852 1.95044 0
M  V30 4263 H 404.022 1.27928 1.00041 0
M  V30 4264 H 406.019 0.930617 4.06381 0
M  V30 4265 H 404.679 0.0848009 3.24589 0
M  V30 4266 H 405.69 3.76932 3.55166 0
M  V30 4267 H 402.367 1.22629 3.99084 0
M  V30 4268 H 403.757 5.26367 4.17597 0
M  V30 4269 N 406.477 -1.02803 1.19454 0
M  V30 4270 C 407.705 -1.79841 1.02297 0
M  V30 4271 C 408.12 -1.83879 -0.428259 0
M  V30 4272 O 407.477 -1.28345 -1.29745 0
M  V30 4273 C 407.528 -3.24852 1.58598 0
M  V30 4274 O 407.249 -3.21097 2.98041 0
M  V30 4275 C 408.75 -4.18485 1.46236 0
M  V30 4276 H 405.97 -0.565936 0.360496 0
M  V30 4277 H 408.514 -1.2948 1.58288 0
M  V30 4278 H 406.669 -3.72401 1.06753 0
M  V30 4279 H 407.083 -4.12033 3.24545 0
M  V30 4280 H 408.557 -5.18121 1.90407 0
M  V30 4281 H 409.034 -4.37254 0.41301 0
M  V30 4282 H 409.64 -3.76811 1.97215 0
M  V30 4283 N 407.956 -0.998596 -1.21925 0
M  V30 4284 C 409.181 -0.696015 -1.95372 0
M  V30 4285 C 409.606 0.733826 -1.73195 0
M  V30 4286 O 408.964 1.50242 -1.01474 0
M  V30 4287 C 409.012 -1.01466 -3.4603 0
M  V30 4288 O 408.116 -0.116415 -4.12236 0
M  V30 4289 H 407.457 -0.259938 -0.611006 0
M  V30 4290 H 409.987 -1.33711 -1.54863 0
M  V30 4291 H 409.997 -0.958855 -3.96573 0
M  V30 4292 H 408.672 -2.05653 -3.61497 0
M  V30 4293 H 407.249 -0.228193 -3.72201 0
M  V30 4294 N 409.434 1.37368 -0.772513 0
M  V30 4295 C 410.674 2.01512 -0.342361 0
M  V30 4296 C 411.038 1.59997 1.06136 0
M  V30 4297 O 412.239 2.16609 1.59167 0
M  V30 4298 C 410.51 3.54134 -0.482048 0
M  V30 4299 S 412.069 4.38585 -0.137272 0
M  V30 4300 H 408.887 0.698699 -0.131686 0
M  V30 4301 H 411.489 1.67552 -1.0073 0
M  V30 4302 H 410.193 3.81837 -1.50428 0
M  V30 4303 H 409.724 3.92894 0.199413 0
M  V30 4304 H 411.739 4.84594 1.06692 0
M  V30 4305 N 410.912 0.523116 1.48665 0
M  V30 4306 C 411.859 -0.243398 2.29513 0
M  V30 4307 C 412.829 -0.940139 1.36933 0
M  V30 4308 O 414.014 -0.942503 1.65896 0
M  V30 4309 C 411.154 -1.28855 3.20141 0
M  V30 4310 C 410.267 -0.60135 4.27794 0
M  V30 4311 C 409.402 -1.62884 5.05611 0
M  V30 4312 C 408.441 -0.924726 6.05075 0
M  V30 4313 N 407.578 -1.89744 6.75975 0
M  V30 4314 H 412.418 0.452234 2.94549 0
M  V30 4315 H 409.955 0.234858 1.45213 0
M  V30 4316 H 411.913 -1.90674 3.71079 0
M  V30 4317 H 410.543 -1.95266 2.57043 0
M  V30 4318 H 409.595 0.130623 3.80176 0
M  V30 4319 H 410.907 -0.0481585 4.98777 0
M  V30 4320 H 410.061 -2.32149 5.60528 0
M  V30 4321 H 408.8 -2.21592 4.34452 0
M  V30 4322 H 407.805 -0.217966 5.49368 0
M  V30 4323 H 409.03 -0.343851 6.78229 0
M  V30 4324 H 406.976 -2.47373 6.07571 0
M  V30 4325 H 406.893 -1.3955 7.43009 0
M  V30 4326 H 408.161 -2.58229 7.35485 0
M  V30 4327 N 412.39 -1.55475 0.257931 0
M  V30 4328 C 413.3 -2.2549 -0.647425 0
M  V30 4329 C 414.316 -1.2748 -1.18427 0
M  V30 4330 O 415.492 -1.6038 -1.2182 0
M  V30 4331 C 412.557 -2.94916 -1.82278 0
M  V30 4332 C 411.618 -4.08363 -1.32432 0
M  V30 4333 C 410.851 -4.74469 -2.44366 0
M  V30 4334 O 411.074 -4.39701 -3.63344 0
M  V30 4335 O 410.008 -5.62763 -2.13497 0
M  V30 4336 H 413.834 -3.03593 -0.0807707 0
M  V30 4337 H 411.419 -1.49377 0.0259962 0
M  V30 4338 H 413.301 -3.38606 -2.50846 0
M  V30 4339 H 411.976 -2.19744 -2.37685 0
M  V30 4340 H 410.883 -3.69166 -0.605605 0
M  V30 4341 H 412.216 -4.85385 -0.816211 0
M  V30 4342 N 413.868 0.0150385 -1.57593 0
M  V30 4343 C 415.093 0.718067 -1.94573 0
M  V30 4344 C 415.518 1.6734 -0.859005 0
M  V30 4345 O 414.876 1.80362 0.184147 0
M  V30 4346 C 414.924 1.43918 -3.30636 0
M  V30 4347 O 414.028 2.55299 -3.23876 0
M  V30 4348 H 413.369 0.192125 -0.635597 0
M  V30 4349 H 415.899 -0.0336708 -2.04572 0
M  V30 4350 H 415.909 1.80598 -3.65853 0
M  V30 4351 H 414.584 0.738619 -4.09289 0
M  V30 4352 H 413.161 2.21058 -3.00312 0
M  V30 4353 N 415.346 1.54954 0.287554 0
M  V30 4354 C 416.276 1.89839 1.35954 0
M  V30 4355 C 417.257 0.758675 1.52244 0
M  V30 4356 O 418.442 1.01557 1.65529 0
M  V30 4357 C 415.572 2.15753 2.72154 0
M  V30 4358 C 414.526 3.3159 2.70614 0
M  V30 4359 C 413.852 3.42952 4.10229 0
M  V30 4360 C 415.152 4.68359 2.31165 0
M  V30 4361 H 416.846 2.79625 1.07007 0
M  V30 4362 H 414.392 1.3454 0.513316 0
M  V30 4363 H 416.345 2.38743 3.47246 0
M  V30 4364 H 415.069 1.22752 3.02654 0
M  V30 4365 H 413.728 3.08545 1.97979 0
M  V30 4366 H 413.376 2.47443 4.37928 0
M  V30 4367 H 413.076 4.20826 4.10097 0
M  V30 4368 H 414.6 3.68218 4.87081 0
M  V30 4369 H 416.014 4.9099 2.95976 0
M  V30 4370 H 414.411 5.49044 2.42221 0
M  V30 4371 H 415.481 4.68165 1.26291 0
M  V30 4372 N 416.824 -0.551391 1.4764 0
M  V30 4373 C 417.754 -1.66757 1.63445 0
M  V30 4374 C 418.735 -1.63077 0.483742 0
M  V30 4375 O 419.92 -1.80607 0.71377 0
M  V30 4376 C 417.05 -3.05387 1.65396 0
M  V30 4377 C 416.004 -3.23918 2.79752 0
M  V30 4378 C 415.33 -4.63393 2.66779 0
M  V30 4379 C 416.63 -3.08735 4.21284 0
M  V30 4380 H 418.324 -1.53786 2.56886 0
M  V30 4381 H 415.87 -0.738415 1.23626 0
M  V30 4382 H 417.823 -3.83325 1.75043 0
M  V30 4383 H 416.547 -3.19332 0.685195 0
M  V30 4384 H 415.206 -2.48391 2.69625 0
M  V30 4385 H 414.854 -4.74144 1.67918 0
M  V30 4386 H 414.554 -4.7674 3.43501 0
M  V30 4387 H 416.078 -5.43458 2.78364 0
M  V30 4388 H 417.492 -3.76484 4.32357 0
M  V30 4389 H 415.889 -3.33588 4.98838 0
M  V30 4390 H 416.959 -2.0541 4.39243 0
M  V30 4391 N 418.302 -1.35869 -0.798587 0
M  V30 4392 C 419.53 -1.32722 -1.58722 0
M  V30 4393 C 419.945 0.0935631 -1.88568 0
M  V30 4394 O 419.302 1.04784 -1.49421 0
M  V30 4395 C 419.353 -2.13974 -2.91371 0
M  V30 4396 O 419.074 -3.50514 -2.62815 0
M  V30 4397 C 420.575 -2.18504 -3.85708 0
M  V30 4398 H 417.795 -0.45562 -0.492596 0
M  V30 4399 H 420.339 -1.78837 -0.991843 0
M  V30 4400 H 418.494 -1.71438 -3.47402 0
M  V30 4401 H 418.908 -3.92806 -3.47568 0
M  V30 4402 H 420.382 -2.79732 -4.75872 0
M  V30 4403 H 420.859 -1.18597 -4.22885 0
M  V30 4404 H 421.465 -2.61236 -3.35612 0
M  V30 4405 N 419.78 1.02168 -1.19998 0
M  V30 4406 C 420.727 2.10601 -0.944228 0
M  V30 4407 C 421.697 1.65639 0.123664 0
M  V30 4408 O 422.882 1.9079 -0.0199941 0
M  V30 4409 C 420.022 3.41504 -0.496865 0
M  V30 4410 C 419.135 3.99973 -1.63234 0
M  V30 4411 C 418.27 5.18915 -1.13579 0
M  V30 4412 C 417.309 5.69456 -2.24468 0
M  V30 4413 N 416.446 6.79665 -1.76068 0
M  V30 4414 H 421.286 2.31814 -1.8726 0
M  V30 4415 H 418.823 1.13686 -0.933483 0
M  V30 4416 H 420.781 4.16626 -0.218843 0
M  V30 4417 H 419.411 3.2038 0.394508 0
M  V30 4418 H 418.463 3.21997 -2.0254 0
M  V30 4419 H 419.775 4.33492 -2.46752 0
M  V30 4420 H 418.929 6.01222 -0.813429 0
M  V30 4421 H 417.668 4.8695 -0.270434 0
M  V30 4422 H 416.673 4.85757 -2.57526 0
M  V30 4423 H 417.898 6.03459 -3.11472 0
M  V30 4424 H 415.844 6.49538 -0.918516 0
M  V30 4425 H 415.761 7.12349 -2.5317 0
M  V30 4426 H 417.029 7.65549 -1.46817 0
M  V30 4427 N 421.258 1.00505 1.21394 0
M  V30 4428 C 422.498 0.696149 1.9218 0
M  V30 4429 C 422.862 -0.759099 1.76357 0
M  V30 4430 O 424.063 -1.17998 2.41516 0
M  V30 4431 C 422.334 1.10571 3.39866 0
M  V30 4432 S 423.893 0.91702 4.29111 0
M  V30 4433 H 420.711 0.254147 0.664026 0
M  V30 4434 H 423.313 1.28988 1.46909 0
M  V30 4435 H 422.017 2.16096 3.489 0
M  V30 4436 H 421.548 0.504268 3.90155 0
M  V30 4437 H 423.563 -0.185855 4.95852 0
M  V30 4438 N 422.737 -1.36956 0.779787 0
M  V30 4439 C 424.148 -1.82094 0.412156 0
M  V30 4440 C 424.499 -1.64926 -1.06273 0
M  V30 4441 O 423.624 -1.16483 -1.82375 0
M  V30 4442 C 424.219 -3.3059 0.741319 0
M  V30 4443 C 422.778 -3.73974 0.426641 0
M  V30 4444 C 421.925 -2.59368 0.980987 0
M  V30 4445 H 424.876 -1.25314 0.973758 0
M  V30 4446 H 424.897 -3.80489 0.028887 0
M  V30 4447 H 424.409 -3.43054 1.81482 0
M  V30 4448 H 422.51 -3.67076 -0.639215 0
M  V30 4449 H 422.623 -4.69778 0.940515 0
M  V30 4450 H 420.987 -2.51463 0.404757 0
M  V30 4451 H 421.77 -2.74621 2.06005 0
M  V30 4452 N 424.215 -0.530993 -1.48385 0
M  V30 4453 C 425.145 0.219985 -2.32461 0
M  V30 4454 C 426.126 0.934111 -1.42156 0
M  V30 4455 O 427.311 0.919694 -1.71042 0
M  V30 4456 C 424.441 1.26674 -3.23375 0
M  V30 4457 C 423.395 0.67069 -4.22712 0
M  V30 4458 C 422.721 1.82017 -5.02766 0
M  V30 4459 C 424.021 -0.358268 -5.2107 0
M  V30 4460 H 425.715 -0.48187 -2.95497 0
M  V30 4461 H 423.261 -0.233182 -1.42099 0
M  V30 4462 H 425.214 1.80006 -3.81019 0
M  V30 4463 H 423.938 1.99818 -2.58341 0
M  V30 4464 H 422.597 0.158878 -3.66256 0
M  V30 4465 H 422.245 2.54002 -4.34157 0
M  V30 4466 H 421.945 1.42727 -5.70003 0
M  V30 4467 H 423.469 2.35725 -5.63264 0
M  V30 4468 H 424.883 0.0880081 -5.73232 0
M  V30 4469 H 423.28 -0.66861 -5.96364 0
M  V30 4470 H 424.35 -1.26367 -4.68145 0
M  V30 4471 N 425.693 1.55336 -0.266172 0
M  V30 4472 C 426.941 1.99003 0.35246 0
M  V30 4473 C 427.262 1.15591 1.57047 0
M  V30 4474 O 426.532 0.243268 1.94384 0
M  V30 4475 H 425.112 0.735025 0.133217 0
M  V30 4476 H 427.774 1.91367 -0.369434 0
M  V30 4477 H 426.87 3.05289 0.648453 0
M  V30 4478 N 427.171 -0.0066808 1.57599 0
M  V30 4479 C 428.101 -0.999296 2.11036 0
M  V30 4480 C 429.082 -1.36278 1.01795 0
M  V30 4481 O 430.267 -1.4477 1.29442 0
M  V30 4482 C 427.397 -2.29328 2.60818 0
M  V30 4483 C 426.351 -2.07159 3.74525 0
M  V30 4484 C 425.677 -3.42512 4.10596 0
M  V30 4485 C 426.977 -1.43959 5.02069 0
M  V30 4486 H 428.671 -0.554382 2.94223 0
M  V30 4487 H 426.217 -0.265221 1.41536 0
M  V30 4488 H 428.17 -2.99117 2.96828 0
M  V30 4489 H 426.894 -2.7592 1.74745 0
M  V30 4490 H 425.553 -1.39797 3.38899 0
M  V30 4491 H 425.201 -3.86795 3.21556 0
M  V30 4492 H 424.901 -3.28498 4.87199 0
M  V30 4493 H 426.425 -4.13628 4.4916 0
M  V30 4494 H 427.839 -2.03696 5.35893 0
M  V30 4495 H 426.236 -1.40452 5.83432 0
M  V30 4496 H 427.306 -0.407992 4.83181 0
M  V30 4497 N 428.649 -1.55105 -0.279332 0
M  V30 4498 C 429.889 -1.7716 -1.01949 0
M  V30 4499 C 430.253 -0.557511 -1.83728 0
M  V30 4500 O 431.454 -0.656198 -2.60667 0
M  V30 4501 C 429.725 -3.0372 -1.88385 0
M  V30 4502 S 431.284 -3.46868 -2.68752 0
M  V30 4503 H 428.102 -0.62253 -0.343478 0
M  V30 4504 H 430.704 -1.93329 -0.290572 0
M  V30 4505 H 429.408 -3.90184 -1.2722 0
M  V30 4506 H 428.939 -2.902 -2.65608 0
M  V30 4507 H 430.954 -3.05643 -3.90892 0
M  V30 4508 N 430.127 0.543554 -1.4793 0
M  V30 4509 C 431.074 1.64942 -1.6144 0
M  V30 4510 C 432.044 1.59692 -0.456903 0
M  V30 4511 O 433.229 1.78321 -0.678688 0
M  V30 4512 C 430.369 3.03238 -1.64744 0
M  V30 4513 C 429.482 3.18823 -2.91506 0
M  V30 4514 C 428.617 4.47599 -2.86057 0
M  V30 4515 C 427.656 4.56664 -4.07584 0
M  V30 4516 N 426.793 5.76811 -4.00292 0
M  V30 4517 H 431.633 1.52733 -2.55884 0
M  V30 4518 H 429.17 0.7438 -1.2691 0
M  V30 4519 H 431.128 3.83339 -1.64641 0
M  V30 4520 H 429.758 3.1425 -0.738017 0
M  V30 4521 H 428.81 2.32064 -3.01414 0
M  V30 4522 H 430.122 3.21384 -3.81463 0
M  V30 4523 H 429.276 5.35975 -2.84281 0
M  V30 4524 H 428.015 4.47538 -1.93807 0
M  V30 4525 H 427.02 3.66697 -4.09651 0
M  V30 4526 H 428.245 4.58474 -5.00978 0
M  V30 4527 H 426.191 5.77673 -3.10853 0
M  V30 4528 H 426.108 5.80808 -4.8394 0
M  V30 4529 H 427.376 6.67512 -4.02553 0
M  V30 4530 N 431.605 1.3629 0.791371 0
M  V30 4531 C 432.851 1.30605 1.55146 0
M  V30 4532 C 433.184 -0.115042 1.93859 0
M  V30 4533 O 432.459 -1.06798 1.62556 0
M  V30 4534 C 432.742 2.22692 2.82985 0
M  V30 4535 C 432.595 3.73489 2.50651 0
M  V30 4536 C 433.914 2.13588 3.84796 0
M  V30 4537 H 431.033 0.475761 0.562868 0
M  V30 4538 H 433.675 1.66825 0.909358 0
M  V30 4539 H 431.825 1.91933 3.37778 0
M  V30 4540 H 433.497 4.14758 2.01924 0
M  V30 4541 H 431.74 3.93021 1.83622 0
M  V30 4542 H 432.411 4.3333 3.41949 0
M  V30 4543 H 434.887 2.40659 3.39445 0
M  V30 4544 H 433.763 2.80195 4.71998 0
M  V30 4545 H 434.024 1.12256 4.27611 0
M  V30 4546 N 433.083 -1.0153 1.20538 0
M  V30 4547 C 434.308 -1.79283 1.04271 0
M  V30 4548 C 434.733 -1.8372 -0.403544 0
M  V30 4549 O 434.091 -1.27321 -1.2907 0
M  V30 4550 C 434.139 -3.21535 1.63241 0
M  V30 4551 O 433.243 -4.03099 0.870908 0
M  V30 4552 H 432.584 -0.55293 0.367647 0
M  V30 4553 H 435.114 -1.27696 1.59859 0
M  V30 4554 H 435.124 -3.72243 1.6703 0
M  V30 4555 H 433.799 -3.1762 2.68497 0
M  V30 4556 H 432.376 -3.61693 0.907323 0
M  V30 4557 N 434.561 -1.01147 -1.20859 0
M  V30 4558 C 435.807 -0.698899 -1.90377 0
M  V30 4559 C 436.14 0.76904 -1.78324 0
M  V30 4560 O 435.415 1.55817 -1.16409 0
M  V30 4561 C 435.698 -1.12878 -3.41951 0
M  V30 4562 C 435.551 -2.65665 -3.62963 0
M  V30 4563 C 436.87 -0.696114 -4.3456 0
M  V30 4564 H 433.989 -0.255372 -0.691342 0
M  V30 4565 H 436.631 -1.25831 -1.42361 0
M  V30 4566 H 434.781 -0.652827 -3.82976 0
M  V30 4567 H 436.453 -3.21074 -3.31224 0
M  V30 4568 H 434.696 -3.06878 -3.06608 0
M  V30 4569 H 435.367 -2.90797 -4.69192 0
M  V30 4570 H 437.843 -1.10521 -4.01154 0
M  V30 4571 H 436.719 -1.025 -5.39245 0
M  V30 4572 H 436.98 0.402465 -4.40264 0
M  V30 4573 N 436.039 1.36541 -0.78704 0
M  V30 4574 C 437.288 1.98552 -0.35494 0
M  V30 4575 C 437.601 1.63171 1.07864 0
M  V30 4576 O 438.807 2.18399 1.61289 0
M  V30 4577 C 437.263 3.55136 -0.583671 0
M  V30 4578 C 436.871 3.99444 -2.02851 0
M  V30 4579 C 438.615 4.2395 -0.215957 0
M  V30 4580 C 436.522 5.48796 -2.20403 0
M  V30 4581 H 435.452 0.742888 -0.128972 0
M  V30 4582 H 438.103 1.5587 -0.968337 0
M  V30 4583 H 436.485 3.95875 0.0994046 0
M  V30 4584 H 437.659 3.6991 -2.74779 0
M  V30 4585 H 435.974 3.43459 -2.35425 0
M  V30 4586 H 438.571 5.33709 -0.325405 0
M  V30 4587 H 438.914 4.07827 0.835646 0
M  V30 4588 H 439.447 3.88565 -0.852175 0
M  V30 4589 H 436.186 5.69864 -3.23937 0
M  V30 4590 H 435.706 5.79964 -1.52977 0
M  V30 4591 H 437.385 6.14986 -2.01002 0
M  V30 4592 N 437.518 0.538854 1.48102 0
M  V30 4593 C 438.929 0.100679 1.86428 0
M  V30 4594 C 439.28 -1.32447 1.44749 0
M  V30 4595 O 438.405 -1.99339 0.842199 0
M  V30 4596 C 439 0.175933 3.38343 0
M  V30 4597 C 437.559 -0.207098 3.7583 0
M  V30 4598 C 436.706 0.531741 2.72154 0
M  V30 4599 H 439.657 0.749614 1.3988 0
M  V30 4600 H 439.678 -0.610144 3.75576 0
M  V30 4601 H 439.19 1.21328 3.68648 0
M  V30 4602 H 437.291 -1.24626 3.5114 0
M  V30 4603 H 437.404 0.138687 4.78899 0
M  V30 4604 H 435.768 -0.0230462 2.5469 0
M  V30 4605 H 436.551 1.56989 3.05302 0
M  V30 4606 N 438.996 -1.55193 0.274407 0
M  V30 4607 C 440.407 -1.85358 -0.223488 0
M  V30 4608 C 440.758 -1.19642 -1.555 0
M  V30 4609 O 439.883 -0.484498 -2.10907 0
M  V30 4610 C 440.478 -3.36282 -0.412285 0
M  V30 4611 C 439.037 -3.66574 -0.854413 0
M  V30 4612 C 438.184 -2.7725 0.0527056 0
M  V30 4613 H 441.135 -1.50743 0.496215 0
M  V30 4614 H 441.156 -3.59349 -1.25094 0
M  V30 4615 H 440.668 -3.84083 0.556965 0
M  V30 4616 H 438.769 -3.24273 -1.83516 0
M  V30 4617 H 438.882 -4.74073 -0.692226 0
M  V30 4618 H 437.246 -2.50447 -0.463484 0
M  V30 4619 H 438.029 -3.27865 1.01783 0
M  V30 4620 N 440.474 -0.00167713 -1.576 0
M  V30 4621 C 441.702 0.693759 -1.94922 0
M  V30 4622 C 442.117 1.67215 -0.876626 0
M  V30 4623 O 441.474 1.81929 0.144279 0
M  V30 4624 C 441.525 1.42416 -3.32265 0
M  V30 4625 O 441.246 0.485014 -4.35407 0
M  V30 4626 C 442.747 2.21395 -3.84056 0
M  V30 4627 H 439.967 0.193118 -0.642609 0
M  V30 4628 H 442.511 -0.0532952 -2.04431 0
M  V30 4629 H 440.666 2.12284 -3.24059 0
M  V30 4630 H 441.08 1.00053 -5.14868 0
M  V30 4631 H 442.554 2.67996 -4.82578 0
M  V30 4632 H 443.031 3.04142 -3.16851 0
M  V30 4633 H 443.637 1.56542 -3.95443 0
M  V30 4634 N 441.952 1.55251 0.271103 0
M  V30 4635 C 442.915 1.87484 1.31842 0
M  V30 4636 C 443.915 0.749545 1.42262 0
M  V30 4637 O 445.105 1.01771 1.4138 0
M  V30 4638 C 442.237 2.0818 2.69951 0
M  V30 4639 H 443.43 2.81108 1.0449 0
M  V30 4640 H 440.983 1.47771 0.509258 0
M  V30 4641 H 441.718 1.16944 3.02481 0
M  V30 4642 H 441.503 2.90114 2.63774 0
M  V30 4643 H 442.993 2.34385 3.4562 0
M  V30 4644 N 443.43 -0.535701 1.48216 0
M  V30 4645 C 444.36 -1.65014 1.65204 0
M  V30 4646 C 445.341 -1.62554 0.501011 0
M  V30 4647 O 446.526 -1.7984 0.732886 0
M  V30 4648 C 443.656 -3.03616 1.68626 0
M  V30 4649 C 442.61 -3.20932 2.83172 0
M  V30 4650 C 441.936 -4.60537 2.71679 0
M  V30 4651 C 443.236 -3.04249 4.24535 0
M  V30 4652 H 444.93 -1.51053 2.58502 0
M  V30 4653 H 442.476 -0.725262 1.24402 0
M  V30 4654 H 444.429 -3.81446 1.79099 0
M  V30 4655 H 443.153 -3.18587 0.719026 0
M  V30 4656 H 441.812 -2.45517 2.72244 0
M  V30 4657 H 441.46 -4.72336 1.72937 0
M  V30 4658 H 441.16 -4.73069 3.48538 0
M  V30 4659 H 442.684 -5.40475 2.84112 0
M  V30 4660 H 444.098 -3.71877 4.36326 0
M  V30 4661 H 442.495 -3.28278 5.02348 0
M  V30 4662 H 443.565 -2.00739 4.41397 0
M  V30 4663 N 444.908 -1.36708 -0.784132 0
M  V30 4664 C 445.856 -1.31533 -1.91838 0
M  V30 4665 C 446.85 -0.206205 -1.6814 0
M  V30 4666 O 448.056 -0.373519 -1.76082 0
M  V30 4667 H 444.431 -0.409613 -0.630651 0
M  V30 4668 H 446.402 -2.2731 -1.9332 0
M  V30 4669 C 445.151 -1.12679 -3.28936 0
M  V30 4670 H 444.474 -1.97274 -3.4774 0
M  V30 4671 H 445.914 -1.13106 -4.08636 0
M  V30 4672 C 444.373 0.168281 -3.36479 0
M  V30 4673 O 444.903 1.15625 -3.84699 0
M  V30 4674 N 443.109 0.214762 -2.89805 0
M  V30 4675 H 442.656 -0.589852 -2.50756 0
M  V30 4676 H 442.614 1.08094 -2.95234 0
M  V30 4677 N 446.386 1.0089 -1.21074 0
M  V30 4678 C 447.611 1.78727 -1.05221 0
M  V30 4679 C 448.036 1.83932 0.393795 0
M  V30 4680 O 447.394 1.28004 1.28393 0
M  V30 4681 C 447.442 3.20665 -1.64944 0
M  V30 4682 O 446.546 4.02632 -0.892273 0
M  V30 4683 H 445.887 0.550973 -0.370574 0
M  V30 4684 H 448.417 1.26847 -1.60534 0
M  V30 4685 H 448.427 3.71352 -1.69002 0
M  V30 4686 H 447.102 3.16191 -2.70177 0
M  V30 4687 H 445.679 3.61207 -0.926492 0
M  V30 4688 N 447.864 1.01787 1.20321 0
M  V30 4689 C 449.113 0.703249 1.89043 0
M  V30 4690 C 449.426 -0.770445 1.79787 0
M  V30 4691 O 450.632 -1.19767 2.43656 0
M  V30 4692 C 449.088 1.20749 3.3904 0
M  V30 4693 C 448.696 2.70817 3.56878 0
M  V30 4694 C 450.44 0.968352 4.13308 0
M  V30 4695 C 448.347 3.14716 5.00708 0
M  V30 4696 H 447.277 0.259354 0.707991 0
M  V30 4697 H 449.928 1.23072 1.36108 0
M  V30 4698 H 448.31 0.607989 3.91305 0
M  V30 4699 H 449.484 3.36327 3.14993 0
M  V30 4700 H 447.799 2.92888 2.95983 0
M  V30 4701 H 450.396 1.27173 5.19356 0
M  V30 4702 H 450.739 -0.095149 4.16191 0
M  V30 4703 H 451.272 1.53129 3.67146 0
M  V30 4704 H 448.011 4.20347 5.02979 0
M  V30 4705 H 447.531 2.53927 5.43398 0
M  V30 4706 H 449.21 3.07426 5.69296 0
M  V30 4707 N 449.342 -1.36122 0.79427 0
M  V30 4708 C 450.619 -1.93398 0.292685 0
M  V30 4709 C 450.999 -1.72567 -1.21589 0
M  V30 4710 O 450.347 -1.08745 -2.00965 0
M  V30 4711 C 450.557 -3.42099 0.690614 0
M  V30 4712 C 451.905 -4.19231 0.673105 0
M  V30 4713 O 452.929 -3.50559 0.631389 0
M  V30 4714 O 451.788 -5.41732 0.720362 0
M  V30 4715 H 448.882 -0.823712 0.0736693 0
M  V30 4716 H 451.428 -1.45273 0.87714 0
M  V30 4717 H 450.2 -3.50938 1.73085 0
M  V30 4718 H 449.823 -3.97519 0.0803036 0
M  V30 4719 N 450.82 -0.546701 -1.47814 0
M  V30 4720 C 452.045 -0.021268 -2.07389 0
M  V30 4721 C 452.47 1.25822 -1.39822 0
M  V30 4722 O 451.828 1.75111 -0.46968 0
M  V30 4723 C 451.876 0.168502 -3.60206 0
M  V30 4724 O 450.98 1.23347 -3.93522 0
M  V30 4725 H 450.321 -0.0466108 -0.662362 0
M  V30 4726 H 452.851 -0.759387 -1.89985 0
M  V30 4727 H 452.861 0.385982 -4.0617 0
M  V30 4728 H 451.536 -0.766075 -4.08784 0
M  V30 4729 H 450.113 0.997319 -3.59316 0
M  V30 4730 N 452.299 1.55045 -0.282633 0
M  V30 4731 C 453.576 1.9179 0.384166 0
M  V30 4732 C 453.956 1.20778 1.73136 0
M  V30 4733 O 453.304 0.33719 2.25998 0
M  V30 4734 C 453.514 3.45149 0.517014 0
M  V30 4735 C 454.862 4.17064 0.796427 0
M  V30 4736 O 455.886 3.51084 0.601535 0
M  V30 4737 O 454.745 5.33837 1.16962 0
M  V30 4738 H 451.839 0.799483 0.211558 0
M  V30 4739 H 454.385 1.66474 -0.32934 0
M  V30 4740 H 453.157 3.88922 -0.430772 0
M  V30 4741 H 452.78 3.76443 1.2797 0
M  V30 4742 N 453.777 0.010035 1.57597 0
M  V30 4743 C 455.025 -0.671371 1.90623 0
M  V30 4744 C 455.346 -1.73753 0.885151 0
M  V30 4745 O 454.616 -1.95752 -0.0760611 0
M  V30 4746 H 453.196 -0.250968 0.703579 0
M  V30 4747 H 455.858 0.0533325 1.94827 0
M  V30 4748 H 454.954 -1.13626 2.90681 0
M  V30 4749 N 455.255 -1.55392 -0.262866 0
M  V30 4750 C 456.502 -1.76476 -0.993109 0
M  V30 4751 C 456.83 -0.571479 -1.85915 0
M  V30 4752 O 456.085 0.445733 -1.90556 0
M  V30 4753 C 456.384 -3.02889 -1.89718 0
M  V30 4754 C 456.05 -4.34974 -1.18781 0
M  V30 4755 C 454.712 -4.7087 -0.991699 0
M  V30 4756 C 457.064 -5.16695 -0.683798 0
M  V30 4757 C 454.392 -5.86036 -0.279024 0
M  V30 4758 C 456.744 -6.32598 0.0153327 0
M  V30 4759 C 455.408 -6.67127 0.223062 0
M  V30 4760 H 454.678 -0.64577 -0.363404 0
M  V30 4761 H 457.325 -1.89664 -0.264525 0
M  V30 4762 H 455.63 -2.84644 -2.6923 0
M  V30 4763 H 457.327 -3.16399 -2.46359 0
M  V30 4764 H 453.917 -4.06765 -1.35058 0
M  V30 4765 H 458.101 -4.8943 -0.8229 0
M  V30 4766 H 453.357 -6.11306 -0.107456 0
M  V30 4767 H 457.531 -6.95171 0.413584 0
M  V30 4768 H 455.158 -7.56216 0.777265 0
M  V30 4769 N 456.733 0.527833 -1.48498 0
M  V30 4770 C 457.979 1.28295 -1.57836 0
M  V30 4771 C 458.334 1.9077 -0.249943 0
M  V30 4772 O 457.627 1.76421 0.747402 0
M  V30 4773 C 457.821 2.39275 -2.65485 0
M  V30 4774 C 457.65 1.87679 -4.08664 0
M  V30 4775 C 456.42 1.70187 -4.75778 0
M  V30 4776 C 458.618 1.40409 -4.94762 0
M  V30 4777 N 456.6 1.13238 -6.03366 0
M  V30 4778 C 457.971 0.954216 -6.12613 0
M  V30 4779 C 460.026 1.28732 -4.8097 0
M  V30 4780 C 458.729 0.39915 -7.18192 0
M  V30 4781 C 460.755 0.746244 -5.86673 0
M  V30 4782 C 460.117 0.306457 -7.03733 0
M  V30 4783 H 456.216 0.460408 -0.632099 0
M  V30 4784 H 458.8 0.594913 -1.85388 0
M  V30 4785 H 456.971 3.05572 -2.3975 0
M  V30 4786 H 458.703 3.06308 -2.64495 0
M  V30 4787 H 455.458 1.93772 -4.32145 0
M  V30 4788 H 455.882 0.867687 -6.71417 0
M  V30 4789 H 460.524 1.61338 -3.90807 0
M  V30 4790 H 458.242 0.0607678 -8.08077 0
M  V30 4791 H 461.828 0.659041 -5.78055 0
M  V30 4792 H 460.708 -0.105708 -7.84129 0
M  V30 4793 N 458.211 1.37122 0.776871 0
M  V30 4794 C 459.158 1.3247 1.88998 0
M  V30 4795 C 460.128 0.191143 1.64997 0
M  V30 4796 O 461.313 0.379683 1.86984 0
M  V30 4797 C 458.453 1.13241 3.25992 0
M  V30 4798 C 457.566 2.35782 3.61982 0
M  V30 4799 C 456.701 2.09465 4.88158 0
M  V30 4800 C 455.74 3.279 5.16864 0
M  V30 4801 N 454.877 3.01167 6.34226 0
M  V30 4802 H 459.717 2.27642 1.9231 0
M  V30 4803 H 457.254 1.13125 0.94027 0
M  V30 4804 H 459.212 1.00115 4.0501 0
M  V30 4805 H 457.842 0.217186 3.22069 0
M  V30 4806 H 456.894 2.59666 2.77989 0
M  V30 4807 H 458.206 3.24125 3.79137 0
M  V30 4808 H 457.36 1.93341 5.75069 0
M  V30 4809 H 456.099 1.18452 4.73097 0
M  V30 4810 H 455.104 3.44569 4.2843 0
M  V30 4811 H 456.329 4.19757 5.33836 0
M  V30 4812 H 454.275 2.12779 6.20533 0
M  V30 4813 H 454.192 3.83052 6.51772 0
M  V30 4814 H 455.46 2.88649 7.24087 0
M  V30 4815 N 459.689 -1.00246 1.21608 0
M  V30 4816 C 460.652 -2.07233 0.979133 0
M  V30 4817 C 461.652 -1.6072 -0.0508219 0
M  V30 4818 O 462.842 -1.73196 0.186712 0
M  V30 4819 C 459.974 -3.37546 0.477016 0
M  V30 4820 H 461.167 -2.29687 1.92831 0
M  V30 4821 H 458.72 -1.17261 1.03342 0
M  V30 4822 H 459.455 -3.20773 -0.476966 0
M  V30 4823 H 459.24 -3.72638 1.21997 0
M  V30 4824 H 460.73 -4.16285 0.331181 0
M  V30 4825 N 461.167 -1.02423 -1.1978 0
M  V30 4826 C 462.392 -0.7373 -1.93852 0
M  V30 4827 C 462.817 0.696923 -1.74713 0
M  V30 4828 O 462.175 1.48056 -1.04638 0
M  V30 4829 C 462.223 -1.08783 -3.438 0
M  V30 4830 O 461.327 -0.20383 -4.11896 0
M  V30 4831 H 460.668 -0.27284 -0.605355 0
M  V30 4832 H 463.198 -1.36966 -1.51992 0
M  V30 4833 H 463.208 -1.04276 -3.9445 0
M  V30 4834 H 461.883 -2.13274 -3.57053 0
M  V30 4835 H 460.46 -0.307091 -3.71633 0
M  V30 4836 N 462.645 1.35699 -0.801477 0
M  V30 4837 C 463.885 2.00741 -0.385027 0
M  V30 4838 C 464.249 1.62213 1.02718 0
M  V30 4839 O 465.45 2.19936 1.54537 0
M  V30 4840 C 463.721 3.53032 -0.557057 0
M  V30 4841 S 465.28 4.38195 -0.230272 0
M  V30 4842 H 462.098 0.695748 -0.146477 0
M  V30 4843 H 464.7 1.65378 -1.04261 0
M  V30 4844 H 463.404 3.7856 -1.58494 0
M  V30 4845 H 462.935 3.93229 0.116029 0
M  V30 4846 H 464.95 4.86748 0.963895 0
M  V30 4847 N 464.123 0.554532 1.47522 0
M  V30 4848 C 465.534 0.120446 1.86311 0
M  V30 4849 C 465.885 -1.30904 1.46145 0
M  V30 4850 O 465.01 -1.98434 0.863294 0
M  V30 4851 C 465.605 0.211808 3.38137 0
M  V30 4852 C 464.164 -0.167224 3.76028 0
M  V30 4853 C 463.311 0.560576 2.71575 0
M  V30 4854 H 466.262 0.764408 1.39077 0
M  V30 4855 H 466.283 -0.570275 3.76202 0
M  V30 4856 H 465.795 1.25232 3.6734 0
M  V30 4857 H 463.896 -1.20894 3.52442 0
M  V30 4858 H 464.009 0.189473 4.78725 0
M  V30 4859 H 462.373 0.00396836 2.547 0
M  V30 4860 H 463.156 1.60219 3.0362 0
M  V30 4861 N 465.601 -1.54893 0.290851 0
M  V30 4862 C 467.012 -1.85584 -0.203816 0
M  V30 4863 C 467.363 -1.21285 -1.54222 0
M  V30 4864 O 466.488 -0.506841 -2.10381 0
M  V30 4865 C 467.083 -3.367 -0.376595 0
M  V30 4866 C 465.642 -3.6746 -0.815485 0
M  V30 4867 C 464.789 -2.77178 0.0821087 0
M  V30 4868 H 467.74 -1.50208 0.512175 0
M  V30 4869 H 467.761 -3.60656 -1.21275 0
M  V30 4870 H 467.273 -3.8347 0.59767 0
M  V30 4871 H 465.374 -3.26201 -1.80066 0
M  V30 4872 H 465.487 -4.7478 -0.641905 0
M  V30 4873 H 463.851 -2.50925 -0.436895 0
M  V30 4874 H 464.634 -3.26767 1.05254 0
M  V30 4875 N 467.08 -0.0183926 -1.57589 0
M  V30 4876 C 468.305 0.676634 -1.96052 0
M  V30 4877 C 468.73 1.6548 -0.894307 0
M  V30 4878 O 468.088 1.80712 0.145849 0
M  V30 4879 C 468.136 1.36872 -3.33614 0
M  V30 4880 O 467.24 2.48372 -3.29219 0
M  V30 4881 H 466.581 0.1786 -0.63953 0
M  V30 4882 H 469.111 -0.077056 -2.04455 0
M  V30 4883 H 469.121 1.72797 -3.69601 0
M  V30 4884 H 467.796 0.651636 -4.10763 0
M  V30 4885 H 466.373 2.14639 -3.04934 0
M  V30 4886 N 468.558 1.5553 0.254621 0
M  V30 4887 C 469.798 1.7876 0.991179 0
M  V30 4888 C 470.162 0.586669 1.82817 0
M  V30 4889 O 471.363 0.697585 2.5959 0
M  V30 4890 C 469.634 3.06679 1.83529 0
M  V30 4891 S 471.193 3.511 2.632 0
M  V30 4892 H 468.011 0.627916 0.333531 0
M  V30 4893 H 470.613 1.93766 0.259778 0
M  V30 4894 H 469.317 3.92158 1.20996 0
M  V30 4895 H 468.848 2.94388 2.60958 0
M  V30 4896 H 470.863 3.11823 3.8598 0
M  V30 4897 N 470.036 -0.519951 1.48776 0
M  V30 4898 C 471.264 -1.29971 1.60982 0
M  V30 4899 C 471.679 -1.86803 0.273885 0
M  V30 4900 O 471.036 -1.66904 -0.738193 0
M  V30 4901 C 471.087 -2.44346 2.66415 0
M  V30 4902 O 470.808 -1.89855 3.94825 0
M  V30 4903 C 472.309 -3.36014 2.89153 0
M  V30 4904 H 469.529 -0.394891 0.542496 0
M  V30 4905 H 472.073 -0.626214 1.94676 0
M  V30 4906 H 470.228 -3.07562 2.35552 0
M  V30 4907 H 470.642 -2.64798 4.5275 0
M  V30 4908 H 472.116 -4.12593 3.66703 0
M  V30 4909 H 472.593 -3.91859 1.98351 0
M  V30 4910 H 473.199 -2.78582 3.21359 0
M  V30 4911 N 471.514 -1.37532 -0.769588 0
M  V30 4912 C 472.739 -1.36231 -1.56384 0
M  V30 4913 C 473.164 0.0495849 -1.88035 0
M  V30 4914 O 472.522 1.02723 -1.49391 0
M  V30 4915 C 472.57 -2.20986 -2.84952 0
M  V30 4916 O 471.674 -1.61597 -3.79421 0
M  V30 4917 H 471.015 -0.465387 -0.473615 0
M  V30 4918 H 473.545 -1.81085 -0.952342 0
M  V30 4919 H 473.555 -2.34277 -3.34034 0
M  V30 4920 H 472.23 -3.23612 -2.61243 0
M  V30 4921 H 470.807 -1.57359 -3.38072 0
M  V30 4922 N 472.992 0.995999 -1.22138 0
M  V30 4923 C 474.403 1.54961 -1.04135 0
M  V30 4924 C 474.754 1.92159 0.396147 0
M  V30 4925 O 473.879 1.74435 1.28069 0
M  V30 4926 C 474.474 2.81581 -1.88408 0
M  V30 4927 C 473.033 3.33396 -1.74712 0
M  V30 4928 C 472.18 2.06509 -1.85066 0
M  V30 4929 H 475.131 0.817436 -1.36028 0
M  V30 4930 H 475.152 3.53822 -1.39966 0
M  V30 4931 H 474.664 2.54476 -2.93025 0
M  V30 4932 H 472.765 3.65416 -0.728159 0
M  V30 4933 H 472.878 4.04208 -2.57202 0
M  V30 4934 H 471.242 2.19925 -1.28472 0
M  V30 4935 H 472.025 1.81804 -2.91208 0
M  V30 4936 N 474.47 1.03057 1.19235 0
M  V30 4937 C 475.4 0.633497 2.24742 0
M  V30 4938 C 476.381 -0.358335 1.66283 0
M  V30 4939 O 477.566 -0.240676 1.92703 0
M  V30 4940 C 474.696 -0.0147648 3.47297 0
M  V30 4941 C 473.65 0.899527 4.18441 0
M  V30 4942 C 472.976 0.116281 5.34574 0
M  V30 4943 C 474.276 2.21404 4.73051 0
M  V30 4944 H 475.97 1.5155 2.58211 0
M  V30 4945 H 473.516 0.73014 1.24117 0
M  V30 4946 H 475.469 -0.304202 4.20301 0
M  V30 4947 H 474.193 -0.931577 3.13032 0
M  V30 4948 H 472.852 1.17319 3.47321 0
M  V30 4949 H 472.5 -0.802619 4.96555 0
M  V30 4950 H 472.2 0.725293 5.83107 0
M  V30 4951 H 473.724 -0.166376 6.10373 0
M  V30 4952 H 475.138 1.98601 5.37802 0
M  V30 4953 H 473.535 2.77512 5.32078 0
M  V30 4954 H 474.605 2.86752 3.91026 0
M  V30 4955 N 475.948 -1.35272 0.808662 0
M  V30 4956 C 476.878 -2.32315 0.234981 0
M  V30 4957 C 477.859 -1.57572 -0.64071 0
M  V30 4958 O 479.044 -1.8563 -0.570551 0
M  V30 4959 C 476.174 -3.41801 -0.615601 0
M  V30 4960 C 475.128 -4.27694 0.161767 0
M  V30 4961 C 474.454 -5.28519 -0.810649 0
M  V30 4962 C 475.754 -5.04231 1.36193 0
M  V30 4963 H 477.448 -2.80543 1.04575 0
M  V30 4964 H 474.994 -1.3488 0.504315 0
M  V30 4965 H 476.947 -4.08693 -1.02702 0
M  V30 4966 H 475.671 -2.92186 -1.45928 0
M  V30 4967 H 474.33 -3.62384 0.554382 0
M  V30 4968 H 473.978 -4.75171 -1.64988 0
M  V30 4969 H 473.678 -5.8686 -0.294822 0
M  V30 4970 H 475.202 -5.98283 -1.22023 0
M  V30 4971 H 476.616 -5.64058 1.02528 0
M  V30 4972 H 475.013 -5.72077 1.81239 0
M  V30 4973 H 476.083 -4.34753 2.14751 0
M  V30 4974 N 477.426 -0.562348 -1.47226 0
M  V30 4975 C 478.672 -0.0402761 -2.0276 0
M  V30 4976 C 479.005 1.30823 -1.43523 0
M  V30 4977 O 478.28 1.85249 -0.592705 0
M  V30 4978 C 478.563 0.047311 -3.60069 0
M  V30 4979 C 478.416 -1.32865 -4.29729 0
M  V30 4980 C 479.735 0.758182 -4.3352 0
M  V30 4981 H 476.854 -0.0161105 -0.736824 0
M  V30 4982 H 479.496 -0.725628 -1.75598 0
M  V30 4983 H 477.646 0.630986 -3.83342 0
M  V30 4984 H 479.318 -1.95593 -4.17781 0
M  V30 4985 H 477.561 -1.90195 -3.89882 0
M  V30 4986 H 478.232 -1.22004 -5.38349 0
M  V30 4987 H 480.708 0.262546 -4.15271 0
M  V30 4988 H 479.584 0.78844 -5.43208 0
M  V30 4989 H 479.845 1.81537 -4.03109 0
M  V30 4990 N 478.904 1.54736 -0.299062 0
M  V30 4991 C 480.151 2.00101 0.310784 0
M  V30 4992 C 480.479 1.18746 1.54045 0
M  V30 4993 O 479.734 0.251198 1.94081 0
M  V30 4994 C 480.033 3.50199 0.713835 0
M  V30 4995 C 479.699 4.48997 -0.413873 0
M  V30 4996 C 478.361 4.7573 -0.723462 0
M  V30 4997 C 480.713 5.07839 -1.17257 0
M  V30 4998 C 478.041 5.5857 -1.79491 0
M  V30 4999 C 480.393 5.91844 -2.23392 0
M  V30 5000 C 479.057 6.16889 -2.54959 0
M  V30 5001 H 478.327 0.732221 0.113724 0
M  V30 5002 H 480.974 1.86888 -0.417756 0
M  V30 5003 H 479.279 3.61012 1.52243 0
M  V30 5004 H 480.976 3.82723 1.19684 0
M  V30 5005 H 477.566 4.28292 -0.162476 0
M  V30 5006 H 481.75 4.87188 -0.946651 0
M  V30 5007 H 477.006 5.76213 -2.04423 0
M  V30 5008 H 481.18 6.36465 -2.8264 0
M  V30 5009 H 478.807 6.80869 -3.38114 0
M  V30 5010 N 480.382 0.0267497 1.57577 0
M  V30 5011 C 481.628 -0.653371 1.91987 0
M  V30 5012 C 481.961 -1.71915 0.903263 0
M  V30 5013 O 481.236 -1.94358 -0.0743387 0
M  V30 5014 C 481.519 -1.272 3.36886 0
M  V30 5015 C 481.372 -0.215938 4.49281 0
M  V30 5016 C 482.691 -2.19069 3.81703 0
M  V30 5017 H 479.81 -0.236047 0.698177 0
M  V30 5018 H 482.452 0.0835236 1.89816 0
M  V30 5019 H 480.602 -1.90005 3.38866 0
M  V30 5020 H 482.274 0.41449 4.59434 0
M  V30 5021 H 480.517 0.458855 4.31366 0
M  V30 5022 H 481.188 -0.688347 5.47691 0
M  V30 5023 H 483.664 -1.66253 3.81444 0
M  V30 5024 H 482.54 -2.59307 4.83788 0
M  V30 5025 H 482.801 -3.08087 3.17072 0
M  V30 5026 N 481.861 -1.55662 -0.24637 0
M  V30 5027 C 482.809 -1.91186 -1.3248 0
M  V30 5028 C 483.803 -0.790996 -1.49799 0
M  V30 5029 O 485.009 -0.975617 -1.51267 0
M  V30 5030 H 481.384 -0.607207 -0.443626 0
M  V30 5031 H 483.355 -2.81221 -0.997853 0
M  V30 5032 C 482.104 -2.22349 -2.67313 0
M  V30 5033 H 481.427 -3.08097 -2.54786 0
M  V30 5034 H 482.867 -2.51107 -3.41645 0
M  V30 5035 C 481.326 -1.04001 -3.20446 0
M  V30 5036 O 481.856 -0.28828 -4.00664 0
M  V30 5037 N 480.062 -0.830494 -2.7848 0
M  V30 5038 H 479.609 -1.4435 -2.13356 0
M  V30 5039 H 479.567 -0.0403258 -3.14374 0
M  V30 5040 N 483.339 0.512053 -1.4905 0
M  V30 5041 C 484.564 1.2959 -1.6193 0
M  V30 5042 C 484.989 1.85906 -0.286454 0
M  V30 5043 O 484.347 1.65312 0.744426 0
M  V30 5044 C 484.395 2.40987 -2.68249 0
M  V30 5045 O 483.499 3.44531 -2.26654 0
M  V30 5046 H 482.84 0.383053 -0.542371 0
M  V30 5047 H 485.37 0.614231 -1.95162 0
M  V30 5048 H 485.38 2.86913 -2.90078 0
M  V30 5049 H 484.055 1.99361 -3.65004 0
M  V30 5050 H 482.632 3.046 -2.15112 0
M  V30 5051 N 484.817 1.37938 0.762283 0
M  V30 5052 C 485.764 1.34467 1.87583 0
M  V30 5053 C 486.734 0.208633 1.64785 0
M  V30 5054 O 487.919 0.399494 1.86571 0
M  V30 5055 C 485.059 1.16692 3.24772 0
M  V30 5056 C 484.172 2.39608 3.59461 0
M  V30 5057 C 483.307 2.14631 4.85908 0
M  V30 5058 C 482.346 3.33364 5.13357 0
M  V30 5059 N 481.483 3.07877 6.30996 0
M  V30 5060 H 486.323 2.29669 1.89885 0
M  V30 5061 H 483.86 1.14116 0.928219 0
M  V30 5062 H 485.818 1.04405 4.03925 0
M  V30 5063 H 484.448 0.251333 3.2182 0
M  V30 5064 H 483.5 2.626 2.75219 0
M  V30 5065 H 484.812 3.28128 3.75678 0
M  V30 5066 H 483.966 1.99429 5.72986 0
M  V30 5067 H 482.705 1.23463 4.71814 0
M  V30 5068 H 481.71 3.49094 4.24751 0
M  V30 5069 H 482.935 4.25395 5.29354 0
M  V30 5070 H 480.881 2.19348 6.18241 0
M  V30 5071 H 480.798 3.89944 6.47673 0
M  V30 5072 H 482.066 2.96313 7.20985 0
M  V30 5073 N 486.295 -0.989507 1.22664 0
M  V30 5074 C 487.52 -1.77031 1.08051 0
M  V30 5075 C 487.945 -1.84535 -0.364483 0
M  V30 5076 O 487.303 -1.3003 -1.2634 0
M  V30 5077 C 487.351 -3.18 1.70024 0
M  V30 5078 O 486.455 -4.01161 0.956216 0
M  V30 5079 H 485.796 -0.545008 0.379292 0
M  V30 5080 H 488.326 -1.24277 1.62531 0
M  V30 5081 H 488.336 -3.68616 1.74888 0
M  V30 5082 H 487.011 -3.11853 2.75174 0
M  V30 5083 H 485.588 -3.59687 0.98384 0
M  V30 5084 N 487.773 -1.03688 -1.18687 0
M  V30 5085 C 489.021 -0.736572 -1.88199 0
M  V30 5086 C 489.342 0.737665 -1.80509 0
M  V30 5087 O 488.612 1.53204 -1.22088 0
M  V30 5088 H 487.192 -0.269466 -0.696704 0
M  V30 5089 H 489.854 -1.31282 -1.44052 0
M  V30 5090 H 488.95 -1.03802 -2.94332 0
M  V30 5091 N 489.251 1.34841 -0.815825 0
M  V30 5092 C 490.528 1.92908 -0.323416 0
M  V30 5093 C 490.908 1.74479 1.18828 0
M  V30 5094 O 490.256 1.11928 1.99209 0
M  V30 5095 C 490.466 3.40957 -0.744952 0
M  V30 5096 C 491.814 4.18107 -0.739716 0
M  V30 5097 O 492.838 3.49511 -0.68708 0
M  V30 5098 O 491.697 5.40517 -0.806456 0
M  V30 5099 H 488.791 0.822436 -0.0867646 0
M  V30 5100 H 491.337 1.4386 -0.90014 0
M  V30 5101 H 490.109 3.4814 -1.78646 0
M  V30 5102 H 489.732 3.97341 -0.143535 0
M  V30 5103 N 490.729 0.570148 1.46925 0
M  V30 5104 C 491.677 -0.183181 2.31878 0
M  V30 5105 C 492.671 -0.896721 1.43719 0
M  V30 5106 O 493.877 -0.816536 1.60414 0
M  V30 5107 H 490.252 -0.077944 0.74795 0
M  V30 5108 H 492.223 0.552312 2.93244 0
M  V30 5109 C 490.972 -1.19172 3.2664 0
M  V30 5110 H 490.295 -0.652088 3.94446 0
M  V30 5111 H 491.735 -1.68946 3.88887 0
M  V30 5112 C 490.194 -2.24627 2.51086 0
M  V30 5113 O 490.724 -3.31773 2.26472 0
M  V30 5114 N 488.93 -1.98898 2.11867 0
M  V30 5115 H 488.477 -1.11777 2.32086 0
M  V30 5116 H 488.435 -2.6967 1.61634 0
M  V30 5117 N 492.207 -1.54576 0.307264 0
M  V30 5118 C 493.139 -2.21212 -0.599807 0
M  V30 5119 C 494.152 -1.20685 -1.09266 0
M  V30 5120 O 495.341 -1.47244 -1.00903 0
M  V30 5121 C 492.441 -2.84994 -1.83389 0
M  V30 5122 C 491.614 -4.11511 -1.48248 0
M  V30 5123 C 490.673 -4.59038 -2.57237 0
M  V30 5124 O 489.699 -5.24095 -2.22065 0
M  V30 5125 N 490.901 -4.31884 -3.87887 0
M  V30 5126 H 493.666 -2.99686 -0.0293075 0
M  V30 5127 H 491.227 -1.61379 0.129738 0
M  V30 5128 H 493.219 -3.1372 -2.5566 0
M  V30 5129 H 491.789 -2.10324 -2.31263 0
M  V30 5130 H 491.009 -3.89728 -0.592122 0
M  V30 5131 H 492.297 -4.93879 -1.22316 0
M  V30 5132 H 491.695 -3.79778 -4.19268 0
M  V30 5133 H 490.252 -4.65304 -4.56438 0
M  V30 5134 N 493.685 -0.035106 -1.57561 0
M  V30 5135 C 494.933 0.64096 -1.91667 0
M  V30 5136 C 495.254 1.72323 -0.912681 0
M  V30 5137 O 494.524 1.95849 0.0449089 0
M  V30 5138 H 493.104 0.239743 -0.707483 0
M  V30 5139 H 495.766 -0.084321 -1.94718 0
M  V30 5140 H 494.862 1.08987 -2.92452 0
M  V30 5141 N 495.163 1.55791 0.238111 0
M  V30 5142 C 496.409 1.78297 0.966337 0
M  V30 5143 C 496.742 0.601903 1.84637 0
M  V30 5144 O 496.017 -0.399499 1.90353 0
M  V30 5145 C 496.3 3.10758 1.81939 0
M  V30 5146 C 496.153 4.39283 0.966958 0
M  V30 5147 C 497.472 3.39519 2.80027 0
M  V30 5148 H 494.591 0.648654 0.349882 0
M  V30 5149 H 497.233 1.88525 0.236253 0
M  V30 5150 H 495.383 3.02168 2.44185 0
M  V30 5151 H 497.055 4.59873 0.362514 0
M  V30 5152 H 495.298 4.32948 0.271669 0
M  V30 5153 H 495.969 5.28368 1.59784 0
M  V30 5154 H 498.445 3.48128 2.27917 0
M  V30 5155 H 497.321 4.33402 3.36829 0
M  V30 5156 H 497.582 2.60864 3.56934 0
M  V30 5157 N 496.642 -0.504142 1.49319 0
M  V30 5158 C 497.589 -1.60603 1.65756 0
M  V30 5159 C 498.559 -1.58425 0.499082 0
M  V30 5160 O 499.744 -1.76459 0.725728 0
M  V30 5161 C 496.884 -2.98764 1.72726 0
M  V30 5162 C 495.997 -3.10982 2.99857 0
M  V30 5163 C 495.132 -4.39857 2.97824 0
M  V30 5164 C 494.171 -4.45697 4.19548 0
M  V30 5165 N 493.308 -5.65995 4.15444 0
M  V30 5166 H 498.148 -1.45895 2.59843 0
M  V30 5167 H 495.685 -0.709891 1.28837 0
M  V30 5168 H 497.643 -3.78839 1.74747 0
M  V30 5169 H 496.273 -3.12183 0.821075 0
M  V30 5170 H 495.325 -2.23991 3.07461 0
M  V30 5171 H 496.637 -3.11157 3.89849 0
M  V30 5172 H 495.791 -5.2825 2.98391 0
M  V30 5173 H 494.53 -4.42242 2.05604 0
M  V30 5174 H 493.535 -3.55707 4.19229 0
M  V30 5175 H 494.76 -4.4503 5.12957 0
M  V30 5176 H 492.706 -5.69229 3.26059 0
M  V30 5177 H 492.623 -5.67773 4.99169 0
M  V30 5178 H 493.891 -6.56604 4.20109 0
M  V30 5179 N 498.12 -1.38341 -0.754957 0
M  V30 5180 C 499.367 -1.34473 -1.51404 0
M  V30 5181 C 499.695 0.0656458 -1.94389 0
M  V30 5182 O 498.95 1.04244 -1.65625 0
M  V30 5183 C 499.249 -2.2452 -2.78075 0
M  V30 5184 C 498.915 -3.72512 -2.54059 0
M  V30 5185 C 497.577 -4.1284 -2.47218 0
M  V30 5186 C 499.929 -4.66197 -2.33044 0
M  V30 5187 C 497.257 -5.44945 -2.17376 0
M  V30 5188 C 499.609 -5.98558 -2.04723 0
M  V30 5189 C 498.273 -6.37972 -1.96337 0
M  V30 5190 H 497.543 -0.492072 -0.554027 0
M  V30 5191 H 500.19 -1.70687 -0.868223 0
M  V30 5192 H 498.495 -1.81357 -3.473 0
M  V30 5193 H 500.192 -2.18832 -3.36026 0
M  V30 5194 H 496.782 -3.40538 -2.60253 0
M  V30 5195 H 500.966 -4.35888 -2.37309 0
M  V30 5196 H 496.222 -5.74426 -2.09391 0
M  V30 5197 H 500.396 -6.70693 -1.87465 0
M  V30 5198 H 498.023 -7.40258 -1.72978 0
M  V30 5199 N 499.598 0.982988 -1.23187 0
M  V30 5200 C 500.528 2.09301 -1.03515 0
M  V30 5201 C 501.509 1.70035 0.0471136 0
M  V30 5202 O 502.694 1.93847 -0.117029 0
M  V30 5203 C 499.824 3.4167 -0.622791 0
M  V30 5204 C 498.778 3.94828 -1.65211 0
M  V30 5205 C 498.104 5.23362 -1.09527 0
M  V30 5206 C 499.404 4.2439 -3.04451 0
M  V30 5207 H 501.098 2.26016 -1.96359 0
M  V30 5208 H 498.644 1.08611 -0.945501 0
M  V30 5209 H 500.597 4.18746 -0.472233 0
M  V30 5210 H 499.321 3.24811 0.341329 0
M  V30 5211 H 497.98 3.19895 -1.79061 0
M  V30 5212 H 497.628 5.02852 -0.122211 0
M  V30 5213 H 497.328 5.59895 -1.783 0
M  V30 5214 H 498.852 6.03062 -0.956511 0
M  V30 5215 H 500.266 4.92225 -2.93917 0
M  V30 5216 H 498.663 4.72118 -3.70438 0
M  V30 5217 H 499.733 3.31765 -3.53638 0
M  V30 5218 N 501.076 1.04316 1.18135 0
M  V30 5219 C 502.492 0.762858 1.40188 0
M  V30 5220 C 502.692 -0.646547 1.90846 0
M  V30 5221 O 501.748 -1.41036 2.0944 0
M  V30 5222 C 503.061 1.81106 2.40044 0
M  V30 5223 C 504.609 1.83226 2.53766 0
M  V30 5224 C 505.084 2.87044 3.56889 0
M  V30 5225 N 506.575 2.85951 3.64398 0
M  V30 5226 C 507.31 3.62932 4.43923 0
M  V30 5227 N 506.806 4.49672 5.27036 0
M  V30 5228 N 508.599 3.51411 4.38711 0
M  V30 5229 H 500.75 1.95264 0.835805 0
M  V30 5230 H 503.013 0.845017 0.429709 0
M  V30 5231 H 502.719 2.82214 2.09876 0
M  V30 5232 H 502.593 1.64529 3.39426 0
M  V30 5233 H 504.98 0.827869 2.8325 0
M  V30 5234 H 505.061 2.03879 1.54489 0
M  V30 5235 H 504.705 3.87663 3.28145 0
M  V30 5236 H 504.635 2.63645 4.5585 0
M  V30 5237 H 507.126 2.23051 3.05052 0
M  V30 5238 H 507.439 5.05116 5.84874 0
M  V30 5239 H 505.784 4.53738 5.26447 0
M  V30 5240 H 508.975 2.83047 3.72829 0
M  V30 5241 H 509.148 4.11654 5.00445 0
M  V30 5242 N 502.554 -1.34406 0.822964 0
M  V30 5243 C 503.97 -1.51275 0.508727 0
M  V30 5244 C 504.17 -1.76776 -0.967083 0
M  V30 5245 O 503.226 -1.81871 -1.75155 0
M  V30 5246 C 504.539 -2.67765 1.36829 0
M  V30 5247 C 506.087 -2.81647 1.36542 0
M  V30 5248 C 506.562 -4.01181 2.20947 0
M  V30 5249 N 508.053 -4.08388 2.18571 0
M  V30 5250 C 508.788 -5.00036 2.80627 0
M  V30 5251 N 508.284 -5.96906 3.51674 0
M  V30 5252 N 510.077 -4.92908 2.70181 0
M  V30 5253 H 502.228 -1.16113 1.77852 0
M  V30 5254 H 504.491 -0.56947 0.757897 0
M  V30 5255 H 504.197 -2.55551 2.41633 0
M  V30 5256 H 504.071 -3.62779 1.03303 0
M  V30 5257 H 506.458 -2.93303 0.325163 0
M  V30 5258 H 506.539 -1.87443 1.74066 0
M  V30 5259 H 506.183 -3.90286 3.25022 0
M  V30 5260 H 506.113 -4.94599 1.80774 0
M  V30 5261 H 508.604 -3.39051 1.66891 0
M  V30 5262 H 508.917 -6.63468 3.96271 0
M  V30 5263 H 507.262 -5.9703 3.5578 0
M  V30 5264 H 510.453 -4.1619 2.14251 0
M  V30 5265 H 510.626 -5.64137 3.18831 0
M  V30 5266 N 504.032 -0.577932 -1.46621 0
M  V30 5267 C 505.279 -0.0616879 -2.02406 0
M  V30 5268 C 505.607 1.29638 -1.44997 0
M  V30 5269 O 504.862 1.86176 -0.60308 0
M  V30 5270 C 505.161 0.0590832 -3.57351 0
M  V30 5271 C 504.827 -1.23077 -4.33777 0
M  V30 5272 C 503.489 -1.58416 -4.54376 0
M  V30 5273 C 505.841 -2.08457 -4.77698 0
M  V30 5274 C 503.169 -2.78943 -5.16147 0
M  V30 5275 C 505.521 -3.28204 -5.408 0
M  V30 5276 C 504.185 -3.63832 -5.59627 0
M  V30 5277 H 503.455 -0.0225732 -0.740656 0
M  V30 5278 H 506.102 -0.753609 -1.76048 0
M  V30 5279 H 504.407 0.834104 -3.82818 0
M  V30 5280 H 506.104 0.474202 -3.98186 0
M  V30 5281 H 502.694 -0.945652 -4.18038 0
M  V30 5282 H 506.878 -1.82459 -4.61544 0
M  V30 5283 H 502.134 -3.06689 -5.28916 0
M  V30 5284 H 506.308 -3.94634 -5.73792 0
M  V30 5285 H 503.935 -4.57315 -6.07262 0
M  V30 5286 N 505.51 1.54411 -0.315457 0
M  V30 5287 C 506.457 2.24048 0.554166 0
M  V30 5288 C 507.427 1.2283 1.11812 0
M  V30 5289 O 508.612 1.51491 1.15997 0
M  V30 5290 C 505.752 2.99574 1.71316 0
M  V30 5291 C 504.865 4.15594 1.17922 0
M  V30 5292 C 504 4.78669 2.30324 0
M  V30 5293 C 503.039 5.86807 1.74137 0
M  V30 5294 N 502.176 6.43777 2.8017 0
M  V30 5295 H 507.016 2.97964 -0.0462602 0
M  V30 5296 H 504.553 1.47059 -0.0346009 0
M  V30 5297 H 506.511 3.41604 2.39505 0
M  V30 5298 H 505.141 2.28008 2.285 0
M  V30 5299 H 504.193 3.78404 0.389136 0
M  V30 5300 H 505.505 4.93459 0.728012 0
M  V30 5301 H 504.659 5.23626 3.06433 0
M  V30 5302 H 503.398 4.00168 2.78778 0
M  V30 5303 H 502.403 5.41261 0.965236 0
M  V30 5304 H 503.628 6.67201 1.2657 0
M  V30 5305 H 501.574 5.68153 3.2793 0
M  V30 5306 H 501.491 7.17031 2.39588 0
M  V30 5307 H 502.759 6.9339 3.56132 0
M  V30 5308 N 506.988 0.0434614 1.5754 0
M  V30 5309 C 507.92 -0.962586 2.08007 0
M  V30 5310 C 508.933 -1.27972 1.00634 0
M  V30 5311 O 510.122 -1.24186 1.28219 0
M  V30 5312 C 507.222 -2.28621 2.50171 0
M  V30 5313 C 506.395 -2.15214 3.80791 0
M  V30 5314 C 505.454 -3.30633 4.09351 0
M  V30 5315 O 504.48 -3.0688 4.79388 0
M  V30 5316 N 505.682 -4.54873 3.60654 0
M  V30 5317 H 508.447 -0.531891 2.94942 0
M  V30 5318 H 506.008 -0.142965 1.61268 0
M  V30 5319 H 508 -3.04689 2.66359 0
M  V30 5320 H 506.57 -2.63283 1.68525 0
M  V30 5321 H 505.79 -1.23785 3.74261 0
M  V30 5322 H 507.078 -2.03475 4.66343 0
M  V30 5323 H 506.476 -4.77063 3.04019 0
M  V30 5324 H 505.033 -5.2806 3.82094 0
M  V30 5325 N 508.466 -1.55915 -0.229846 0
M  V30 5326 C 509.396 -1.94754 -1.28815 0
M  V30 5327 C 510.377 -0.814657 -1.49323 0
M  V30 5328 O 511.562 -1.07631 -1.61645 0
M  V30 5329 C 508.692 -2.25705 -2.63959 0
M  V30 5330 C 507.646 -3.41406 -2.5812 0
M  V30 5331 C 506.972 -3.57941 -3.97218 0
M  V30 5332 C 508.272 -4.76616 -2.13623 0
M  V30 5333 H 509.966 -2.83404 -0.965547 0
M  V30 5334 H 507.512 -1.36353 -0.463028 0
M  V30 5335 H 509.465 -2.51467 -3.38146 0
M  V30 5336 H 508.189 -1.339 -2.9789 0
M  V30 5337 H 506.848 -3.1568 -1.86391 0
M  V30 5338 H 506.496 -2.63526 -4.28443 0
M  V30 5339 H 506.196 -4.35757 -3.94195 0
M  V30 5340 H 507.72 -3.86042 -4.73079 0
M  V30 5341 H 509.134 -5.01637 -2.77549 0
M  V30 5342 H 507.531 -5.57655 -2.21677 0
M  V30 5343 H 508.601 -4.7253 -1.08829 0
M  V30 5344 N 509.944 0.496216 -1.49584 0
M  V30 5345 C 510.874 1.60576 -1.69521 0
M  V30 5346 C 511.855 1.61169 -0.543933 0
M  V30 5347 O 513.04 1.77834 -0.78031 0
M  V30 5348 C 510.17 2.99038 -1.76616 0
M  V30 5349 C 509.124 3.13312 -2.91581 0
M  V30 5350 C 508.45 4.53172 -2.83794 0
M  V30 5351 C 509.75 2.92886 -4.32452 0
M  V30 5352 H 511.444 1.44146 -2.62416 0
M  V30 5353 H 508.99 0.692024 -1.26282 0
M  V30 5354 H 510.943 3.76564 -1.8915 0
M  V30 5355 H 509.667 3.16568 -0.80324 0
M  V30 5356 H 508.326 2.38213 -2.78658 0
M  V30 5357 H 507.974 4.67585 -1.854 0
M  V30 5358 H 507.674 4.63662 -3.60958 0
M  V30 5359 H 509.198 5.32752 -2.98342 0
M  V30 5360 H 510.612 3.60178 -4.46032 0
M  V30 5361 H 509.009 3.14844 -5.10875 0
M  V30 5362 H 510.079 1.88966 -4.46565 0
M  V30 5363 N 511.423 1.38739 0.74761 0
M  V30 5364 C 512.371 1.36573 1.88283 0
M  V30 5365 C 513.365 0.250712 1.67534 0
M  V30 5366 O 514.571 0.420073 1.7503 0
M  V30 5367 H 510.946 0.42619 0.619569 0
M  V30 5368 H 512.917 2.32356 1.87226 0
M  V30 5369 C 511.666 1.21361 3.25832 0
M  V30 5370 H 510.989 2.06424 3.42388 0
M  V30 5371 H 512.429 1.23901 4.05493 0
M  V30 5372 C 510.888 -0.0790099 3.36807 0
M  V30 5373 O 511.418 -1.05385 3.8763 0
M  V30 5374 N 509.624 -0.13785 2.90273 0
M  V30 5375 H 509.171 0.656128 2.49104 0
M  V30 5376 H 509.129 -1.00228 2.97996 0
M  V30 5377 N 512.901 -0.976442 1.23707 0
M  V30 5378 C 514.312 -1.53284 1.06587 0
M  V30 5379 C 514.663 -1.92765 -0.365526 0
M  V30 5380 O 513.788 -1.7645 -1.25277 0
M  V30 5381 C 514.383 -2.78548 1.92864 0
M  V30 5382 C 512.942 -3.30574 1.79994 0
M  V30 5383 C 512.089 -2.03538 1.88328 0
M  V30 5384 H 515.04 -0.795692 1.37311 0
M  V30 5385 H 515.061 -3.5155 1.45577 0
M  V30 5386 H 514.573 -2.49782 2.97037 0
M  V30 5387 H 512.674 -3.64211 0.786202 0
M  V30 5388 H 512.787 -4.00065 2.636 0
M  V30 5389 H 511.151 -2.17853 1.31954 0
M  V30 5390 H 511.934 -1.77149 2.94063 0
M  V30 5391 N 514.379 -1.04941 -1.1758 0
M  V30 5392 C 515.342 -0.652456 -2.19717 0
M  V30 5393 C 516.342 0.294745 -1.58076 0
M  V30 5394 O 517.532 0.0789579 -1.74021 0
M  V30 5395 C 514.664 0.0420712 -3.40874 0
M  V30 5396 H 515.857 -1.55642 -2.5635 0
M  V30 5397 H 513.41 -0.842995 -1.31618 0
M  V30 5398 H 514.145 0.95943 -3.09783 0
M  V30 5399 H 513.93 -0.638844 -3.86861 0
M  V30 5400 H 515.42 0.306 -4.16477 0
M  V30 5401 N 515.857 1.33968 -0.830081 0
M  V30 5402 C 516.789 2.28194 -0.21448 0
M  V30 5403 C 517.802 1.5135 0.599752 0
M  V30 5404 O 518.991 1.73286 0.42826 0
M  V30 5405 C 516.091 3.31221 0.717356 0
M  V30 5406 C 515.264 4.37365 -0.055613 0
M  V30 5407 C 514.323 5.2011 0.798231 0
M  V30 5408 O 513.349 5.68691 0.240616 0
M  V30 5409 N 514.551 5.40523 2.11695 0
M  V30 5410 H 517.316 2.81662 -1.02405 0
M  V30 5411 H 514.877 1.46568 -0.687713 0
M  V30 5412 H 516.869 3.83477 1.29334 0
M  V30 5413 H 515.439 2.78095 1.42765 0
M  V30 5414 H 514.659 3.85727 -0.812936 0
M  V30 5415 H 515.947 5.05397 -0.587444 0
M  V30 5416 H 515.345 5.0274 2.59363 0
M  V30 5417 H 513.902 5.95871 2.64162 0
M  V30 5418 N 517.335 0.585699 1.46312 0
M  V30 5419 C 518.581 0.0725284 2.0267 0
M  V30 5420 C 518.914 -1.28523 1.45586 0
M  V30 5421 O 518.189 -1.84283 0.622101 0
M  V30 5422 C 518.472 0.0099788 3.60099 0
M  V30 5423 C 518.325 1.39685 4.27561 0
M  V30 5424 C 519.644 -0.689117 4.34671 0
M  V30 5425 H 516.763 0.0278307 0.736474 0
M  V30 5426 H 519.405 0.753472 1.74421 0
M  V30 5427 H 517.555 -0.56992 3.84297 0
M  V30 5428 H 519.227 2.02215 4.14617 0
M  V30 5429 H 517.47 1.96374 3.86807 0
M  V30 5430 H 518.141 1.30553 5.36339 0
M  V30 5431 H 520.617 -0.196446 4.15636 0
M  V30 5432 H 519.493 -0.701921 5.44393 0
M  V30 5433 H 519.754 -1.75101 4.05946 0
M  V30 5434 N 518.813 -1.54241 0.323641 0
M  V30 5435 C 520.06 -2.0057 -0.27891 0
M  V30 5436 C 520.388 -1.21181 -1.52136 0
M  V30 5437 O 519.643 -0.282043 -1.93657 0
M  V30 5438 C 519.942 -3.5129 -0.658031 0
M  V30 5439 C 519.608 -4.48281 0.485252 0
M  V30 5440 C 518.27 -4.74519 0.799055 0
M  V30 5441 C 520.622 -5.05909 1.25322 0
M  V30 5442 C 517.95 -5.55643 1.88354 0
M  V30 5443 C 520.302 -5.88215 2.32779 0
M  V30 5444 C 518.966 -6.12755 2.64741 0
M  V30 5445 H 518.236 -0.733938 -0.10206 0
M  V30 5446 H 520.883 -1.862 0.447435 0
M  V30 5447 H 519.188 -3.63388 -1.4648 0
M  V30 5448 H 520.885 -3.84578 -1.1358 0
M  V30 5449 H 517.475 -4.27979 0.230593 0
M  V30 5450 H 521.659 -4.8562 1.02404 0
M  V30 5451 H 516.915 -5.72888 2.13564 0
M  V30 5452 H 521.089 -6.31888 2.92729 0
M  V30 5453 H 518.716 -6.75404 3.48904 0
M  V30 5454 N 520.291 -0.0518155 -1.57515 0
M  V30 5455 C 521.568 0.661727 -1.84067 0
M  V30 5456 C 521.948 1.88999 -0.940351 0
M  V30 5457 O 521.296 2.285 -0.00155404 0
M  V30 5458 C 521.506 1.01841 -3.3381 0
M  V30 5459 C 522.854 1.40043 -4.00841 0
M  V30 5460 O 523.878 1.11073 -3.38439 0
M  V30 5461 O 522.737 1.94111 -5.10865 0
M  V30 5462 H 519.831 0.326702 -0.759733 0
M  V30 5463 H 522.377 -0.0812277 -1.69505 0
M  V30 5464 H 521.149 0.145202 -3.91031 0
M  V30 5465 H 520.772 1.81879 -3.53562 0
M  V30 5466 N 521.769 1.56035 0.221574 0
M  V30 5467 C 522.699 1.95434 1.2778 0
M  V30 5468 C 523.68 0.822564 1.48889 0
M  V30 5469 O 524.865 1.08486 1.61072 0
M  V30 5470 C 521.995 2.27102 2.62759 0
M  V30 5471 C 520.949 3.4277 2.56306 0
M  V30 5472 C 520.275 3.60043 3.95314 0
M  V30 5473 C 521.575 4.77742 2.11093 0
M  V30 5474 H 523.269 2.83912 0.950504 0
M  V30 5475 H 520.815 1.36596 0.455791 0
M  V30 5476 H 522.768 2.53256 3.36807 0
M  V30 5477 H 521.492 1.35478 2.97176 0
M  V30 5478 H 520.151 3.16664 1.84715 0
M  V30 5479 H 519.799 2.65794 4.27039 0
M  V30 5480 H 519.499 4.37841 3.91879 0
M  V30 5481 H 521.023 3.88545 4.71025 0
M  V30 5482 H 522.437 5.03102 2.74885 0
M  V30 5483 H 520.834 5.58823 2.18716 0
M  V30 5484 H 521.904 4.731 1.06321 0
M  V30 5485 N 523.247 -0.488276 1.49845 0
M  V30 5486 C 524.18 -1.60651 1.62069 0
M  V30 5487 C 525.158 -1.5568 0.469308 0
M  V30 5488 O 526.342 -1.75553 0.686551 0
M  V30 5489 C 523.469 -2.99197 1.58741 0
M  V30 5490 C 522.515 -3.22385 2.79232 0
M  V30 5491 S 523.348 -3.04133 4.40753 0
M  V30 5492 C 524.504 -4.45052 4.4009 0
M  V30 5493 H 524.737 -1.50039 2.56662 0
M  V30 5494 H 522.27 -0.674371 1.38894 0
M  V30 5495 H 524.228 -3.79081 1.57506 0
M  V30 5496 H 522.889 -3.07213 0.654136 0
M  V30 5497 H 522.082 -4.23557 2.73159 0
M  V30 5498 H 521.684 -2.50245 2.77945 0
M  V30 5499 H 523.976 -5.37375 4.12594 0
M  V30 5500 H 524.919 -4.56172 5.41583 0
M  V30 5501 H 525.327 -4.26327 3.70008 0
M  V30 5502 N 524.725 -1.39134 -0.740242 0
M  V30 5503 C 525.673 -1.3757 -1.87556 0
M  V30 5504 C 526.667 -0.259593 -1.67399 0
M  V30 5505 O 527.873 -0.429349 -1.74804 0
M  V30 5506 H 524.248 -0.42947 -0.6173 0
M  V30 5507 H 526.219 -2.33345 -1.85991 0
M  V30 5508 C 524.968 -1.23087 -3.25184 0
M  V30 5509 H 524.291 -2.08237 -3.41288 0
M  V30 5510 H 525.731 -1.26049 -4.0483 0
M  V30 5511 C 524.19 0.0611471 -3.36845 0
M  V30 5512 O 524.72 1.03328 -3.88183 0
M  V30 5513 N 522.926 0.122454 -2.90342 0
M  V30 5514 H 522.473 -0.669329 -2.48752 0
M  V30 5515 H 522.431 0.986463 -2.98523 0
M  V30 5516 N 526.204 0.969867 -1.24223 0
M  V30 5517 C 527.452 1.70918 -1.0785 0
M  V30 5518 C 527.773 1.91186 0.383763 0
M  V30 5519 O 527.043 1.48806 1.27411 0
M  V30 5520 H 525.623 0.633334 -0.396103 0
M  V30 5521 H 528.285 1.16689 -1.56108 0
M  V30 5522 H 527.381 2.69455 -1.57482 0
M  V30 5523 N 527.682 1.05563 1.17022 0
M  V30 5524 C 528.93 0.76642 1.87004 0
M  V30 5525 C 529.251 -0.708854 1.8166 0
M  V30 5526 O 528.521 -1.51242 1.2451 0
M  V30 5527 H 527.101 0.280516 0.692329 0
M  V30 5528 H 529.763 1.33557 1.41945 0
M  V30 5529 H 528.859 1.08472 2.92644 0
M  V30 5530 N 529.16 -1.33526 0.837174 0
M  V30 5531 C 530.571 -1.80182 0.489017 0
M  V30 5532 C 530.922 -1.69285 -0.991826 0
M  V30 5533 O 530.047 -1.24113 -1.77271 0
M  V30 5534 C 530.642 -3.27149 0.880866 0
M  V30 5535 C 529.201 -3.71828 0.584872 0
M  V30 5536 C 528.348 -2.54974 1.09011 0
M  V30 5537 H 531.299 -1.21071 1.02603 0
M  V30 5538 H 531.32 -3.80024 0.190239 0
M  V30 5539 H 530.832 -3.35048 1.95869 0
M  V30 5540 H 528.933 -3.69457 -0.48295 0
M  V30 5541 H 529.046 -4.65366 1.13892 0
M  V30 5542 H 527.41 -2.4952 0.511047 0
M  V30 5543 H 528.193 -2.65637 2.17467 0
M  V30 5544 N 530.638 -0.59345 -1.46 0
M  V30 5545 C 531.588 0.154751 -2.27474 0
M  V30 5546 C 532.572 0.851849 -1.365 0
M  V30 5547 O 533.764 0.744171 -1.60596 0
M  V30 5548 C 530.893 1.16079 -3.2308 0
M  V30 5549 C 529.979 0.465256 -4.2154 0
M  V30 5550 N 530.37 -0.485197 -5.03467 0
M  V30 5551 C 528.668 0.714634 -4.40237 0
M  V30 5552 C 529.369 -0.892709 -5.74809 0
M  V30 5553 N 528.345 -0.239511 -5.43072 0
M  V30 5554 H 532.147 -0.57546 -2.88211 0
M  V30 5555 H 529.661 -0.416046 -1.5698 0
M  V30 5556 H 531.658 1.71108 -3.80168 0
M  V30 5557 H 530.318 1.89171 -2.63903 0
M  V30 5558 H 531.329 -0.861258 -5.10689 0
M  V30 5559 H 528.006 1.43131 -3.92199 0
M  V30 5560 H 529.396 -1.67581 -6.50666 0
M  V30 5561 N 532.116 1.54067 -0.331816 0
M  V30 5562 C 533.046 2.27569 0.522932 0
M  V30 5563 C 534.027 1.28679 1.11247 0
M  V30 5564 O 535.212 1.57504 1.13605 0
M  V30 5565 C 532.342 3.0397 1.67987 0
M  V30 5566 C 531.296 4.10267 1.21924 0
M  V30 5567 C 530.622 4.74555 2.46377 0
M  V30 5568 C 531.922 5.21268 0.32815 0
M  V30 5569 H 533.616 2.99264 -0.0901977 0
M  V30 5570 H 531.162 1.4393 -0.044821 0
M  V30 5571 H 533.115 3.54123 2.28418 0
M  V30 5572 H 531.839 2.29906 2.31971 0
M  V30 5573 H 530.498 3.61009 0.637809 0
M  V30 5574 H 530.146 3.97098 3.08743 0
M  V30 5575 H 529.846 5.46363 2.16243 0
M  V30 5576 H 531.37 5.27487 3.07555 0
M  V30 5577 H 532.784 5.67128 0.838978 0
M  V30 5578 H 531.181 5.99982 0.119228 0
M  V30 5579 H 532.251 4.80673 -0.638839 0
M  V30 5580 N 533.594 0.0601682 1.57485 0
M  V30 5581 C 534.842 -0.610386 1.92662 0
M  V30 5582 C 535.163 -1.70849 0.939981 0
M  V30 5583 O 534.433 -1.95895 -0.0137455 0
M  V30 5584 H 533.013 -0.228457 0.711208 0
M  V30 5585 H 535.675 0.115288 1.94559 0
M  V30 5586 H 534.771 -1.0432 2.94149 0
M  V30 5587 N 535.072 -1.5615 -0.213296 0
M  V30 5588 C 536.002 -1.96109 -1.26742 0
M  V30 5589 C 536.983 -0.830448 -1.48451 0
M  V30 5590 O 538.168 -1.09339 -1.60495 0
M  V30 5591 C 535.298 -2.28492 -2.61551 0
M  V30 5592 C 534.252 -3.44124 -2.54485 0
M  V30 5593 C 533.578 -3.62134 -3.93399 0
M  V30 5594 C 534.878 -4.78855 -2.08556 0
M  V30 5595 H 536.572 -2.84412 -0.935434 0
M  V30 5596 H 534.118 -1.36836 -0.44854 0
M  V30 5597 H 536.071 -2.55039 -3.3546 0
M  V30 5598 H 534.795 -1.37052 -2.96453 0
M  V30 5599 H 533.454 -3.17639 -1.83033 0
M  V30 5600 H 533.102 -2.68055 -4.25623 0
M  V30 5601 H 532.802 -4.39913 -3.89551 0
M  V30 5602 H 534.326 -3.91038 -4.68958 0
M  V30 5603 H 535.74 -5.04552 -2.72213 0
M  V30 5604 H 534.137 -5.59975 -2.1575 0
M  V30 5605 H 535.207 -4.73657 -1.03811 0
M  V30 5606 N 536.55 0.480323 -1.50102 0
M  V30 5607 C 537.966 0.813295 -1.37323 0
M  V30 5608 C 538.166 1.97027 -0.422206 0
M  V30 5609 O 537.222 2.5212 0.138563 0
M  V30 5610 C 538.535 1.13404 -2.78496 0
M  V30 5611 C 540.083 1.24104 -2.87345 0
M  V30 5612 C 540.558 1.59497 -4.29331 0
M  V30 5613 N 542.049 1.66507 -4.32238 0
M  V30 5614 C 542.784 1.95378 -5.39087 0
M  V30 5615 N 542.28 2.22333 -6.56155 0
M  V30 5616 N 544.073 1.96803 -5.26522 0
M  V30 5617 H 536.224 -0.282291 -2.10516 0
M  V30 5618 H 538.487 -0.063752 -0.945854 0
M  V30 5619 H 538.193 0.357064 -3.49883 0
M  V30 5620 H 538.067 2.07251 -3.15162 0
M  V30 5621 H 540.454 2.00871 -2.16183 0
M  V30 5622 H 540.535 0.282593 -2.54234 0
M  V30 5623 H 540.179 0.832736 -5.01027 0
M  V30 5624 H 540.109 2.56477 -4.59921 0
M  V30 5625 H 542.6 1.47753 -3.47818 0
M  V30 5626 H 542.913 2.43611 -7.33399 0
M  V30 5627 H 541.258 2.19745 -6.59346 0
M  V30 5628 H 544.449 1.75235 -4.34062 0
M  V30 5629 H 544.622 2.18969 -6.09883 0
M  V30 5630 N 538.028 1.39524 0.732853 0
M  V30 5631 C 538.958 1.41153 1.86005 0
M  V30 5632 C 539.939 0.274614 1.67869 0
M  V30 5633 O 541.124 0.480745 1.88155 0
M  V30 5634 C 538.254 1.25638 3.23778 0
M  V30 5635 C 537.208 2.36752 3.56556 0
M  V30 5636 C 536.534 2.06326 4.93289 0
M  V30 5637 C 537.834 3.79069 3.5931 0
M  V30 5638 H 539.528 2.35484 1.84899 0
M  V30 5639 H 537.074 1.13348 0.888162 0
M  V30 5640 H 539.027 1.25398 4.0231 0
M  V30 5641 H 537.751 0.277772 3.25417 0
M  V30 5642 H 536.41 2.36213 2.80355 0
M  V30 5643 H 536.058 1.06897 4.9151 0
M  V30 5644 H 535.758 2.80757 5.16187 0
M  V30 5645 H 537.282 2.07739 5.74175 0
M  V30 5646 H 538.696 3.81526 4.27914 0
M  V30 5647 H 537.093 4.52878 3.93728 0
M  V30 5648 H 538.163 4.09893 2.59068 0
M  V30 5649 N 539.506 -0.963266 1.24736 0
M  V30 5650 C 540.753 -1.7068 1.0897 0
M  V30 5651 C 541.081 -1.90934 -0.370751 0
M  V30 5652 O 540.336 -1.47155 -1.29011 0
M  V30 5653 C 540.635 -3.09944 1.7796 0
M  V30 5654 C 540.301 -3.09518 3.27887 0
M  V30 5655 C 538.963 -3.09109 3.68789 0
M  V30 5656 C 541.315 -3.03509 4.23712 0
M  V30 5657 C 538.643 -3.00429 5.03944 0
M  V30 5658 C 540.995 -2.96371 5.5888 0
M  V30 5659 C 539.659 -2.94293 5.99123 0
M  V30 5660 H 538.929 -0.624564 0.398749 0
M  V30 5661 H 541.576 -1.12603 1.54896 0
M  V30 5662 H 539.881 -3.71513 1.2444 0
M  V30 5663 H 541.578 -3.66278 1.63222 0
M  V30 5664 H 538.168 -3.10603 2.95337 0
M  V30 5665 H 542.352 -3.0295 3.93109 0
M  V30 5666 H 537.608 -2.97183 5.34314 0
M  V30 5667 H 541.782 -2.90681 6.32833 0
M  V30 5668 H 539.409 -2.87322 7.03811 0
M  V30 5669 N 540.985 -1.06182 -1.16461 0
M  V30 5670 C 541.917 -0.629584 -2.20383 0
M  V30 5671 C 542.93 0.311834 -1.59786 0
M  V30 5672 O 544.119 0.103 -1.78203 0
M  V30 5673 C 541.219 0.0973695 -3.3876 0
M  V30 5674 C 540.392 -0.857252 -4.28917 0
M  V30 5675 C 539.451 -0.169749 -5.25926 0
M  V30 5676 O 538.477 -0.807044 -5.6345 0
M  V30 5677 N 539.679 1.08911 -5.70192 0
M  V30 5678 H 542.444 -1.52352 -2.58087 0
M  V30 5679 H 540.005 -0.944993 -1.31459 0
M  V30 5680 H 541.997 0.567676 -4.00699 0
M  V30 5681 H 540.567 0.893093 -2.99571 0
M  V30 5682 H 539.787 -1.50696 -3.64259 0
M  V30 5683 H 541.075 -1.50489 -4.86035 0
M  V30 5684 H 540.473 1.62703 -5.41797 0
M  V30 5685 H 539.03 1.50331 -6.34227 0
M  V30 5686 N 542.463 1.3308 -0.844243 0
M  V30 5687 C 543.41 2.29104 -0.279323 0
M  V30 5688 C 544.38 1.54577 0.607882 0
M  V30 5689 O 545.565 1.8285 0.545009 0
M  V30 5690 C 542.705 3.40927 0.53508 0
M  V30 5691 C 541.818 4.30354 -0.376749 0
M  V30 5692 C 540.953 5.29297 0.449276 0
M  V30 5693 C 539.992 6.10365 -0.460606 0
M  V30 5694 N 539.129 7.01335 0.327612 0
M  V30 5695 H 543.969 2.76817 -1.10346 0
M  V30 5696 H 541.506 1.36203 -0.555611 0
M  V30 5697 H 543.464 4.04469 1.02278 0
M  V30 5698 H 542.094 2.94391 1.32414 0
M  V30 5699 H 541.146 3.67485 -0.982791 0
M  V30 5700 H 542.458 4.87067 -1.07549 0
M  V30 5701 H 541.612 5.98392 1.00058 0
M  V30 5702 H 540.351 4.73174 1.18143 0
M  V30 5703 H 539.356 5.40182 -1.02388 0
M  V30 5704 H 540.581 6.68571 -1.1912 0
M  V30 5705 H 538.527 6.47655 1.04305 0
M  V30 5706 H 538.444 7.55355 -0.3123 0
M  V30 5707 H 539.712 7.74731 0.86098 0
M  V30 5708 N 543.941 0.601185 1.45683 0
M  V30 5709 C 545.188 0.0938811 2.02282 0
M  V30 5710 C 545.516 -1.27315 1.47041 0
M  V30 5711 O 544.771 -1.85193 0.632623 0
M  V30 5712 C 545.07 -0.00222425 3.574 0
M  V30 5713 C 544.736 1.29963 4.31764 0
M  V30 5714 C 543.398 1.65625 4.51798 0
M  V30 5715 C 545.75 2.1603 4.74321 0
M  V30 5716 C 543.078 2.87119 5.11644 0
M  V30 5717 C 545.43 3.36766 5.3551 0
M  V30 5718 C 544.094 3.72689 5.53768 0
M  V30 5719 H 543.364 0.0343535 0.740203 0
M  V30 5720 H 546.011 0.781522 1.74827 0
M  V30 5721 H 544.316 -0.773096 3.84097 0
M  V30 5722 H 546.013 -0.410794 3.9889 0
M  V30 5723 H 542.603 1.01204 4.1648 0
M  V30 5724 H 546.787 1.89778 4.58582 0
M  V30 5725 H 542.043 3.15065 5.2397 0
M  V30 5726 H 546.217 4.03713 5.67441 0
M  V30 5727 H 543.844 4.66918 5.99909 0
M  V30 5728 N 545.419 -1.53889 0.339982 0
M  V30 5729 C 546.696 -1.93084 -0.312719 0
M  V30 5730 C 547.076 -1.2712 -1.68534 0
M  V30 5731 O 546.424 -0.420835 -2.24591 0
M  V30 5732 C 546.634 -3.4683 -0.388558 0
M  V30 5733 C 547.982 -4.19732 -0.641088 0
M  V30 5734 O 549.006 -3.53075 -0.470818 0
M  V30 5735 O 547.865 -5.3781 -0.970685 0
M  V30 5736 H 544.959 -0.806784 -0.18174 0
M  V30 5737 H 547.505 -1.65137 0.390898 0
M  V30 5738 H 546.277 -3.87055 0.574821 0
M  V30 5739 H 545.9 -3.80933 -1.1391 0
M  V30 5740 N 546.897 -0.0685191 -1.57451 0
M  V30 5741 C 548.125 0.610462 -1.97689 0
M  V30 5742 C 548.54 1.63346 -0.946758 0
M  V30 5743 O 547.897 1.82377 0.0669868 0
M  V30 5744 C 547.948 1.28196 -3.38006 0
M  V30 5745 O 547.669 0.299906 -4.37072 0
M  V30 5746 C 549.17 2.04907 -3.931 0
M  V30 5747 H 546.39 0.165689 -0.650222 0
M  V30 5748 H 548.934 -0.139953 -2.04021 0
M  V30 5749 H 547.089 1.98348 -3.32771 0
M  V30 5750 H 547.503 0.78126 -5.18649 0
M  V30 5751 H 548.977 2.47287 -4.93511 0
M  V30 5752 H 549.454 2.9043 -3.29465 0
M  V30 5753 H 550.06 1.39629 -4.01726 0
M  V30 5754 N 548.375 1.56261 0.205012 0
M  V30 5755 C 549.622 1.8004 0.926927 0
M  V30 5756 C 549.95 0.640086 1.83666 0
M  V30 5757 O 549.205 -0.374702 1.92079 0
M  V30 5758 C 549.504 3.09722 1.78345 0
M  V30 5759 C 549.17 4.39082 1.02555 0
M  V30 5760 C 547.832 4.74226 0.816256 0
M  V30 5761 C 550.184 5.18877 0.491559 0
M  V30 5762 C 547.512 5.86668 0.0613287 0
M  V30 5763 C 549.864 6.32105 -0.250107 0
M  V30 5764 C 548.528 6.6584 -0.470508 0
M  V30 5765 H 547.798 0.658812 0.339187 0
M  V30 5766 H 550.445 1.90515 0.19395 0
M  V30 5767 H 548.75 2.9444 2.5848 0
M  V30 5768 H 550.447 3.25324 2.34446 0
M  V30 5769 H 547.037 4.11497 1.19868 0
M  V30 5770 H 551.221 4.92147 0.640684 0
M  V30 5771 H 546.477 6.11283 -0.119501 0
M  V30 5772 H 550.651 6.93157 -0.671307 0
M  V30 5773 H 548.278 7.5281 -1.05739 0
M  V30 5774 N 549.853 -0.472356 1.50355 0
M  V30 5775 C 551.269 -0.806001 1.37753 0
M  V30 5776 C 551.469 -1.968 0.432649 0
M  V30 5777 O 550.525 -2.52189 -0.12519 0
M  V30 5778 C 551.838 -1.11926 2.79093 0
M  V30 5779 C 553.386 -1.22579 2.87999 0
M  V30 5780 C 553.861 -1.57218 4.3017 0
M  V30 5781 N 555.352 -1.64212 4.33115 0
M  V30 5782 C 556.087 -1.92517 5.40116 0
M  V30 5783 N 555.583 -2.1885 6.57325 0
M  V30 5784 N 557.376 -1.94008 5.27558 0
M  V30 5785 H 549.527 0.293451 2.10363 0
M  V30 5786 H 551.79 0.0687672 0.945503 0
M  V30 5787 H 551.496 -0.338504 3.50067 0
M  V30 5788 H 551.37 -2.05577 3.16256 0
M  V30 5789 H 553.757 -1.99722 2.17245 0
M  V30 5790 H 553.838 -0.269107 2.54381 0
M  V30 5791 H 553.482 -0.806154 5.01461 0
M  V30 5792 H 553.412 -2.54034 4.61275 0
M  V30 5793 H 555.903 -1.45906 3.48597 0
M  V30 5794 H 556.216 -2.39718 7.3468 0
M  V30 5795 H 554.561 -2.16245 6.60502 0
M  V30 5796 H 557.752 -1.72931 4.34986 0
M  V30 5797 H 557.925 -2.15731 6.11035 0
M  V30 5798 N 551.331 -1.39911 -0.725443 0
M  V30 5799 C 552.58 -1.36963 -1.48068 0
M  V30 5800 C 552.893 0.0284478 -1.95579 0
M  V30 5801 O 554.099 0.180535 -2.70899 0
M  V30 5802 C 552.555 -2.40664 -2.67598 0
M  V30 5803 C 552.163 -3.86234 -2.26997 0
M  V30 5804 C 553.907 -2.46807 -3.45379 0
M  V30 5805 C 551.814 -4.81554 -3.43307 0
M  V30 5806 H 550.744 -0.509223 -0.556065 0
M  V30 5807 H 553.395 -1.65602 -0.790454 0
M  V30 5808 H 551.777 -2.05109 -3.38742 0
M  V30 5809 H 552.951 -4.3088 -1.63337 0
M  V30 5810 H 551.266 -3.83475 -1.62284 0
M  V30 5811 H 553.863 -3.15213 -4.31909 0
M  V30 5812 H 554.206 -1.49552 -3.8851 0
M  V30 5813 H 554.739 -2.81303 -2.81271 0
M  V30 5814 H 551.478 -5.80106 -3.05217 0
M  V30 5815 H 550.998 -4.4158 -4.05915 0
M  V30 5816 H 552.677 -5.0091 -4.0951 0
M  V30 5817 N 552.809 0.956637 -1.25245 0
M  V30 5818 C 553.739 2.07058 -1.07931 0
M  V30 5819 C 554.72 1.70096 0.0110361 0
M  V30 5820 O 555.905 1.93555 -0.158121 0
M  V30 5821 C 553.035 3.40272 -0.695124 0
M  V30 5822 C 551.989 3.91235 -1.73549 0
M  V30 5823 C 551.315 5.20921 -1.20604 0
M  V30 5824 C 552.615 4.17837 -3.13385 0
M  V30 5825 H 554.309 2.218 -2.01109 0
M  V30 5826 H 551.855 1.06581 -0.968326 0
M  V30 5827 H 553.808 4.1765 -0.560949 0
M  V30 5828 H 552.532 3.25462 0.272355 0
M  V30 5829 H 551.191 3.16025 -1.85807 0
M  V30 5830 H 550.839 5.02479 -0.228846 0
M  V30 5831 H 550.539 5.55987 -1.90136 0
M  V30 5832 H 552.063 6.00897 -1.08421 0
M  V30 5833 H 553.477 4.8588 -3.04292 0
M  V30 5834 H 551.874 4.64154 -3.80369 0
M  V30 5835 H 552.944 3.2419 -3.60595 0
M  V30 5836 N 554.287 1.06798 1.15896 0
M  V30 5837 C 555.533 0.788934 1.86825 0
M  V30 5838 C 555.866 -0.683084 1.8179 0
M  V30 5839 O 555.141 -1.50086 1.23711 0
M  V30 5840 C 555.424 1.29065 3.36176 0
M  V30 5841 C 555.277 2.8268 3.49874 0
M  V30 5842 C 556.596 0.902655 4.30744 0
M  V30 5843 H 553.715 0.288066 0.678371 0
M  V30 5844 H 556.357 1.32479 1.36195 0
M  V30 5845 H 554.507 0.834806 3.79425 0
M  V30 5846 H 556.179 3.36511 3.15528 0
M  V30 5847 H 554.422 3.21157 2.91617 0
M  V30 5848 H 555.093 3.12852 4.54783 0
M  V30 5849 H 557.569 1.29535 3.95424 0
M  V30 5850 H 556.445 1.28111 5.3374 0
M  V30 5851 H 556.706 -0.191951 4.41683 0
M  V30 5852 N 555.766 -1.3263 0.851289 0
M  V30 5853 C 557.006 -1.99174 0.459266 0
M  V30 5854 C 557.37 -1.65913 -0.966273 0
M  V30 5855 O 558.571 -2.2552 -1.46267 0
M  V30 5856 C 556.842 -3.50721 0.687698 0
M  V30 5857 S 558.401 -4.37039 0.392746 0
M  V30 5858 H 555.219 -0.689832 0.172199 0
M  V30 5859 H 557.821 -1.61395 1.10327 0
M  V30 5860 H 556.525 -3.72417 1.72435 0
M  V30 5861 H 556.056 -3.93389 0.0299949 0
M  V30 5862 H 558.071 -4.8999 -0.782578 0
M  V30 5863 N 557.244 -0.608902 -1.45362 0
M  V30 5864 C 558.492 -0.104401 -2.0183 0
M  V30 5865 C 558.813 1.27007 -1.47967 0
M  V30 5866 O 558.083 1.83924 -0.674455 0
M  V30 5867 H 556.663 -0.0356042 -0.746151 0
M  V30 5868 H 559.325 -0.790596 -1.78145 0
M  V30 5869 H 558.421 -0.0551793 -3.12051 0
M  V30 5870 N 558.722 1.53707 -0.348139 0
M  V30 5871 C 559.97 2.00591 0.246478 0
M  V30 5872 C 560.291 1.23753 1.50699 0
M  V30 5873 O 559.561 0.345964 1.92821 0
M  V30 5874 H 558.141 0.741053 0.0940679 0
M  V30 5875 H 560.803 1.89139 -0.470354 0
M  V30 5876 H 559.899 3.08297 0.485714 0
M  V30 5877 N 560.2 0.0768682 1.57412 0
M  V30 5878 C 561.477 -0.632359 1.85096 0
M  V30 5879 C 561.857 -1.87479 0.9703 0
M  V30 5880 O 561.205 -2.28469 0.0379062 0
M  V30 5881 C 561.415 -0.965174 3.35388 0
M  V30 5882 C 562.763 -1.33648 4.03018 0
M  V30 5883 O 563.787 -1.05675 3.40164 0
M  V30 5884 O 562.646 -1.85959 5.13889 0
M  V30 5885 H 559.74 -0.314574 0.764835 0
M  V30 5886 H 562.286 0.108184 1.69355 0
M  V30 5887 H 561.058 -0.0829745 3.91212 0
M  V30 5888 H 560.681 -1.76231 3.5641 0
M  V30 5889 N 561.678 -1.56367 -0.196722 0
M  V30 5890 C 562.926 -1.80172 -0.915554 0
M  V30 5891 C 563.247 -0.649649 -1.8386 0
M  V30 5892 O 562.517 0.332111 -1.93064 0
M  V30 5893 H 561.097 -0.664592 -0.341067 0
M  V30 5894 H 563.759 -1.93844 -0.202622 0
M  V30 5895 H 562.855 -2.7327 -1.50764 0
M  V30 5896 N 563.156 0.464375 -1.50603 0
M  V30 5897 C 564.381 1.24372 -1.65971 0
M  V30 5898 C 564.806 1.84901 -0.345453 0
M  V30 5899 O 564.164 1.67596 0.691457 0
M  V30 5900 C 564.212 2.32331 -2.7578 0
M  V30 5901 O 563.316 3.37146 -2.375 0
M  V30 5902 H 562.657 0.365604 -0.554283 0
M  V30 5903 H 565.187 0.55183 -1.97018 0
M  V30 5904 H 565.197 2.77539 -2.99059 0
M  V30 5905 H 563.872 1.87648 -3.71162 0
M  V30 5906 H 562.449 2.97602 -2.24694 0
M  V30 5907 N 564.634 1.40294 0.718013 0
M  V30 5908 C 565.88 1.38645 1.48005 0
M  V30 5909 C 566.213 -0.0121202 1.94196 0
M  V30 5910 O 565.488 -0.980309 1.67989 0
M  V30 5911 C 565.771 2.37379 2.70782 0
M  V30 5912 C 565.624 3.8625 2.30501 0
M  V30 5913 C 566.943 2.33685 3.72933 0
M  V30 5914 H 564.062 0.504928 0.536858 0
M  V30 5915 H 566.704 1.71411 0.819649 0
M  V30 5916 H 564.854 2.09568 3.27129 0
M  V30 5917 H 566.526 4.24879 1.79655 0
M  V30 5918 H 564.769 4.02202 1.6253 0
M  V30 5919 H 565.44 4.50847 3.18498 0
M  V30 5920 H 567.916 2.58314 3.2621 0
M  V30 5921 H 566.792 3.0482 4.56482 0
M  V30 5922 H 567.053 1.34765 4.21059 0
M  V30 5923 N 566.112 -0.949982 1.2575 0
M  V30 5924 C 567.36 -1.6918 1.10555 0
M  V30 5925 C 567.681 -1.91773 -0.353298 0
M  V30 5926 O 566.951 -1.50814 -1.25027 0
M  V30 5927 H 565.531 -0.626952 0.406129 0
M  V30 5928 H 568.193 -1.1419 1.57945 0
M  V30 5929 H 567.289 -2.66915 1.61749 0
M  V30 5930 N 567.59 -1.07411 -1.15328 0
M  V30 5931 C 568.836 -0.808666 -1.86634 0
M  V30 5932 C 569.191 0.65816 -1.80793 0
M  V30 5933 O 568.484 1.47689 -1.22059 0
M  V30 5934 C 568.678 -1.25191 -3.34757 0
M  V30 5935 C 568.507 -2.76028 -3.55019 0
M  V30 5936 C 567.277 -3.43644 -3.70455 0
M  V30 5937 C 569.475 -3.74224 -3.5279 0
M  V30 5938 N 567.457 -4.83117 -3.78776 0
M  V30 5939 C 568.828 -4.9954 -3.67233 0
M  V30 5940 C 570.883 -3.67373 -3.36068 0
M  V30 5941 C 569.586 -6.18819 -3.66682 0
M  V30 5942 C 571.612 -4.86116 -3.36816 0
M  V30 5943 C 570.974 -6.10266 -3.51789 0
M  V30 5944 H 567.073 -0.348478 -0.700062 0
M  V30 5945 H 569.657 -1.37049 -1.38295 0
M  V30 5946 H 567.828 -0.717775 -3.8171 0
M  V30 5947 H 569.56 -0.933936 -3.93776 0
M  V30 5948 H 566.315 -2.94051 -3.71256 0
M  V30 5949 H 566.739 -5.55705 -3.86679 0
M  V30 5950 H 571.381 -2.72334 -3.2341 0
M  V30 5951 H 569.099 -7.14179 -3.78118 0
M  V30 5952 H 572.685 -4.82492 -3.25103 0
M  V30 5953 H 571.565 -7.00609 -3.52301 0
M  V30 5954 N 569.068 1.32177 -0.85831 0
M  V30 5955 C 570.314 1.97417 -0.46417 0
M  V30 5956 C 570.647 1.67746 0.978514 0
M  V30 5957 O 569.922 0.967654 1.68721 0
M  V30 5958 C 570.205 3.53069 -0.708094 0
M  V30 5959 C 570.058 3.92357 -2.19946 0
M  V30 5960 C 571.377 4.39783 -0.166881 0
M  V30 5961 H 568.496 0.717097 -0.17012 0
M  V30 5962 H 571.138 1.56499 -1.07741 0
M  V30 5963 H 569.288 3.88054 -0.186128 0
M  V30 5964 H 570.96 3.67533 -2.78779 0
M  V30 5965 H 569.203 3.41384 -2.67656 0
M  V30 5966 H 569.874 5.00841 -2.32082 0
M  V30 5967 H 572.35 4.11556 -0.613285 0
M  V30 5968 H 571.226 5.47671 -0.367093 0
M  V30 5969 H 571.487 4.32196 0.930559 0
M  V30 5970 N 570.547 0.616602 1.45037 0
M  V30 5971 C 571.477 -0.0840787 2.33349 0
M  V30 5972 C 572.458 -0.849641 1.4736 0
M  V30 5973 O 573.643 -0.818407 1.76113 0
M  V30 5974 C 570.773 -1.07604 3.3021 0
M  V30 5975 C 569.727 -0.423096 4.25904 0
M  V30 5976 C 569.053 -1.52394 5.12523 0
M  V30 5977 C 570.353 0.661457 5.18095 0
M  V30 5978 H 572.047 0.653333 2.92185 0
M  V30 5979 H 569.593 0.315634 1.40498 0
M  V30 5980 H 571.546 -1.57485 3.90866 0
M  V30 5981 H 570.27 -1.84416 2.69552 0
M  V30 5982 H 568.929 0.05493 3.66559 0
M  V30 5983 H 568.577 -2.28257 4.48227 0
M  V30 5984 H 568.277 -1.09251 5.77354 0
M  V30 5985 H 569.801 -2.02485 5.76049 0
M  V30 5986 H 571.215 0.246353 5.7277 0
M  V30 5987 H 569.612 1.01517 5.91451 0
M  V30 5988 H 570.682 1.53446 4.59981 0
M  V30 5989 N 572.025 -1.5352 0.356285 0
M  V30 5990 C 573.25 -2.06007 -0.239961 0
M  V30 5991 C 573.675 -1.22872 -1.42422 0
M  V30 5992 O 573.033 -0.245516 -1.7963 0
M  V30 5993 C 573.081 -3.5522 -0.620587 0
M  V30 5994 O 572.185 -3.74864 -1.71902 0
M  V30 5995 H 571.526 -0.662961 -0.0371377 0
M  V30 5996 H 574.056 -1.98033 0.514194 0
M  V30 5997 H 574.066 -3.98081 -0.894197 0
M  V30 5998 H 572.741 -4.15175 0.245407 0
M  V30 5999 H 571.318 -3.43904 -1.44169 0
M  V30 6000 N 573.503 -0.0852151 -1.57369 0
M  V30 6001 C 574.413 0.891712 -2.16992 0
M  V30 6002 C 575.429 1.3174 -1.13669 0
M  V30 6003 O 576.605 1.38735 -1.45995 0
M  V30 6004 C 573.67 2.13635 -2.73059 0
M  V30 6005 C 572.731 1.7658 -3.91303 0
M  V30 6006 C 571.964 2.95111 -4.44686 0
M  V30 6007 O 572.187 4.09539 -3.97032 0
M  V30 6008 O 571.121 2.74149 -5.35841 0
M  V30 6009 H 574.947 0.414477 -3.00858 0
M  V30 6010 H 572.532 0.138598 -1.48756 0
M  V30 6011 H 574.414 2.86595 -3.08935 0
M  V30 6012 H 573.089 2.6043 -1.92244 0
M  V30 6013 H 571.996 1.00831 -3.60255 0
M  V30 6014 H 573.329 1.34557 -4.7345 0
M  V30 6015 N 574.981 1.5647 0.188427 0
M  V30 6016 C 576.23 1.80207 0.905995 0
M  V30 6017 C 576.543 0.659579 1.84144 0
M  V30 6018 O 577.749 0.781431 2.60011 0
M  V30 6019 C 576.205 3.19255 1.66145 0
M  V30 6020 C 575.813 4.41324 0.770504 0
M  V30 6021 C 577.557 3.52298 2.36826 0
M  V30 6022 C 575.464 5.71394 1.52521 0
M  V30 6023 H 574.394 0.671953 0.342045 0
M  V30 6024 H 577.045 1.82808 0.159164 0
M  V30 6025 H 575.427 3.10922 2.45242 0
M  V30 6026 H 576.601 4.60797 0.0177261 0
M  V30 6027 H 574.916 4.16035 0.174199 0
M  V30 6028 H 577.513 4.46715 2.93854 0
M  V30 6029 H 577.856 2.76359 3.11338 0
M  V30 6030 H 578.389 3.62108 1.6469 0
M  V30 6031 H 575.128 6.50316 0.82275 0
M  V30 6032 H 574.648 5.55928 2.25175 0
M  V30 6033 H 576.327 6.12747 2.07725 0
M  V30 6034 N 576.459 -0.456382 1.50847 0
M  V30 6035 C 577.736 -1.21739 1.53098 0
M  V30 6036 C 578.116 -2.09179 0.284132 0
M  V30 6037 O 577.464 -2.16466 -0.731773 0
M  V30 6038 C 577.674 -2.03573 2.83477 0
M  V30 6039 C 579.022 -2.61264 3.34703 0
M  V30 6040 O 580.046 -2.13802 2.84898 0
M  V30 6041 O 578.905 -3.47779 4.21559 0
M  V30 6042 H 575.999 -0.553219 0.614718 0
M  V30 6043 H 578.545 -0.467003 1.63148 0
M  V30 6044 H 577.317 -1.39232 3.65691 0
M  V30 6045 H 576.94 -2.85716 2.76499 0
M  V30 6046 N 577.937 -1.40673 -0.710563 0
M  V30 6047 C 579.162 -1.42741 -1.50465 0
M  V30 6048 C 579.587 -0.0302116 -1.88076 0
M  V30 6049 O 578.945 0.962945 -1.53613 0
M  V30 6050 C 578.993 -2.32873 -2.75322 0
M  V30 6051 O 578.097 -1.77544 -3.72226 0
M  V30 6052 H 577.438 -0.485056 -0.45345 0
M  V30 6053 H 579.968 -1.84961 -0.874681 0
M  V30 6054 H 579.978 -2.48233 -3.23797 0
M  V30 6055 H 578.653 -3.34401 -2.47283 0
M  V30 6056 H 577.23 -1.71556 -3.31093 0
M  V30 6057 N 579.415 0.9433 -1.26252 0
M  V30 6058 C 580.345 2.05902 -1.10122 0
M  V30 6059 C 581.326 1.70099 -0.00700552 0
M  V30 6060 O 582.511 1.93377 -0.178641 0
M  V30 6061 C 579.641 3.39516 -0.731175 0
M  V30 6062 C 578.595 3.89372 -1.77688 0
M  V30 6063 C 577.921 5.19613 -1.26122 0
M  V30 6064 C 579.221 4.14489 -3.17799 0
M  V30 6065 H 580.915 2.19655 -2.03451 0
M  V30 6066 H 578.461 1.05548 -0.979576 0
M  V30 6067 H 580.414 4.17031 -0.605215 0
M  V30 6068 H 579.138 3.25733 0.23782 0
M  V30 6069 H 577.797 3.14036 -1.89148 0
M  V30 6070 H 577.445 5.02208 -0.282128 0
M  V30 6071 H 577.145 5.53939 -1.96023 0
M  V30 6072 H 578.669 5.99713 -1.14789 0
M  V30 6073 H 580.083 4.82625 -3.09428 0
M  V30 6074 H 578.48 4.60094 -3.85271 0
M  V30 6075 H 579.55 3.20347 -3.64014 0
M  V30 6076 N 580.893 1.08022 1.14757 0
M  V30 6077 C 581.841 0.701088 2.21783 0
M  V30 6078 C 582.835 -0.291311 1.66876 0
M  V30 6079 O 584.041 -0.154296 1.79337 0
M  V30 6080 H 580.416 0.208668 0.722469 0
M  V30 6081 H 582.387 1.61321 2.51034 0
M  V30 6082 C 581.136 0.122278 3.47485 0
M  V30 6083 H 580.459 0.877065 3.90061 0
M  V30 6084 H 581.899 -0.105248 4.23869 0
M  V30 6085 C 580.358 -1.13883 3.17068 0
M  V30 6086 O 580.888 -2.22429 3.34497 0
M  V30 6087 N 579.094 -1.04767 2.71058 0
M  V30 6088 H 578.641 -0.164302 2.57075 0
M  V30 6089 H 578.599 -1.89224 2.51081 0
M  V30 6090 N 582.371 -1.3172 0.865308 0
M  V30 6091 C 583.301 -2.31109 0.333302 0
M  V30 6092 C 584.282 -1.60148 -0.573301 0
M  V30 6093 O 585.467 -1.87882 -0.491305 0
M  V30 6094 C 582.597 -3.44104 -0.470078 0
M  V30 6095 C 581.551 -4.26623 0.343021 0
M  V30 6096 C 580.877 -5.31482 -0.585756 0
M  V30 6097 C 582.177 -4.98001 1.57456 0
M  V30 6098 H 583.871 -2.75855 1.1638 0
M  V30 6099 H 581.417 -1.3262 0.561069 0
M  V30 6100 H 583.37 -4.12682 -0.852752 0
M  V30 6101 H 582.094 -2.98112 -1.33404 0
M  V30 6102 H 580.753 -3.59707 0.707583 0
M  V30 6103 H 580.401 -4.81741 -1.44686 0
M  V30 6104 H 580.101 -5.87582 -0.0456494 0
M  V30 6105 H 581.625 -6.0292 -0.965375 0
M  V30 6106 H 583.039 -5.59201 1.26359 0
M  V30 6107 H 581.436 -5.63876 2.05339 0
M  V30 6108 H 582.506 -4.25253 2.32997 0
M  V30 6109 N 583.85 -0.624285 -1.44708 0
M  V30 6110 C 584.8 0.106466 -2.27751 0
M  V30 6111 C 585.784 0.822703 -1.38277 0
M  V30 6112 O 586.976 0.709939 -1.62138 0
M  V30 6113 C 584.105 1.092 -3.25469 0
M  V30 6114 C 583.191 0.375737 -4.22432 0
M  V30 6115 N 583.582 -0.591881 -5.02325 0
M  V30 6116 C 581.88 0.621093 -4.41654 0
M  V30 6117 C 582.581 -1.01443 -5.72786 0
M  V30 6118 N 581.557 -0.354651 -5.42442 0
M  V30 6119 H 585.359 -0.636464 -2.86926 0
M  V30 6120 H 582.873 -0.44925 -1.56062 0
M  V30 6121 H 584.87 1.63006 -3.83712 0
M  V30 6122 H 583.529 1.8353 -2.67856 0
M  V30 6123 H 584.541 -0.969389 -5.08747 0
M  V30 6124 H 581.218 1.34779 -3.95147 0
M  V30 6125 H 582.608 -1.81345 -6.46965 0
M  V30 6126 N 585.328 1.53329 -0.364422 0
M  V30 6127 C 586.275 2.25698 0.482607 0
M  V30 6128 C 587.245 1.26325 1.07848 0
M  V30 6129 O 588.43 1.55104 1.11119 0
M  V30 6130 C 585.57 3.04873 1.61699 0
M  V30 6131 C 584.683 4.19135 1.0464 0
M  V30 6132 C 583.818 4.85754 2.14979 0
M  V30 6133 C 582.857 5.9205 1.5538 0
M  V30 6134 N 581.994 6.52365 2.59547 0
M  V30 6135 H 586.834 2.97666 -0.141032 0
M  V30 6136 H 584.371 1.46875 -0.0813692 0
M  V30 6137 H 586.329 3.49051 2.28516 0
M  V30 6138 H 584.959 2.35162 2.2113 0
M  V30 6139 H 584.011 3.79451 0.268553 0
M  V30 6140 H 585.323 4.95525 0.570653 0
M  V30 6141 H 584.477 5.3311 2.89619 0
M  V30 6142 H 583.216 4.08834 2.65906 0
M  V30 6143 H 582.221 5.44058 0.792549 0
M  V30 6144 H 583.446 6.7089 1.0528 0
M  V30 6145 H 581.392 5.78298 3.09689 0
M  V30 6146 H 581.309 7.2429 2.16655 0
M  V30 6147 H 582.577 7.0437 3.33892 0
M  V30 6148 N 586.806 0.0935595 1.57322 0
M  V30 6149 C 587.738 -0.895923 2.10964 0
M  V30 6150 C 588.751 -1.24705 1.04654 0
M  V30 6151 O 589.94 -1.20044 1.32105 0
M  V30 6152 C 587.04 -2.20546 2.57318 0
M  V30 6153 C 586.213 -2.0299 3.87445 0
M  V30 6154 C 585.272 -3.17443 4.19662 0
M  V30 6155 O 584.298 -2.91474 4.88909 0
M  V30 6156 N 585.5 -4.43168 3.74943 0
M  V30 6157 H 588.265 -0.437788 2.96485 0
M  V30 6158 H 585.826 -0.0915863 1.61641 0
M  V30 6159 H 587.818 -2.9606 2.75917 0
M  V30 6160 H 586.388 -2.57789 1.76816 0
M  V30 6161 H 585.608 -1.11815 3.78009 0
M  V30 6162 H 586.896 -1.88535 4.7258 0
M  V30 6163 H 586.294 -4.67149 3.19043 0
M  V30 6164 H 584.851 -5.15637 3.987 0
M  V30 6165 N 588.284 -1.56567 -0.180126 0
M  V30 6166 C 589.524 -1.83285 -0.904761 0
M  V30 6167 C 589.888 -0.673226 -1.7981 0
M  V30 6168 O 591.089 -0.820645 -2.55967 0
M  V30 6169 C 589.36 -3.15086 -1.68688 0
M  V30 6170 S 590.919 -3.63258 -2.46149 0
M  V30 6171 H 587.737 -0.643114 -0.303193 0
M  V30 6172 H 590.339 -1.94785 -0.167034 0
M  V30 6173 H 589.043 -3.97484 -1.02148 0
M  V30 6174 H 588.574 -3.06504 -2.46615 0
M  V30 6175 H 590.589 -3.29884 -3.70663 0
M  V30 6176 N 589.762 0.448376 -1.51087 0
M  V30 6177 C 590.694 1.56146 -1.67783 0
M  V30 6178 C 591.707 1.52913 -0.55871 0
M  V30 6179 O 592.896 1.57889 -0.83267 0
M  V30 6180 C 589.996 2.95057 -1.66716 0
M  V30 6181 C 589.169 3.22915 -2.95033 0
M  V30 6182 C 588.228 4.41495 -2.86302 0
M  V30 6183 O 587.254 4.40688 -3.60254 0
M  V30 6184 N 588.456 5.44443 -2.014 0
M  V30 6185 H 591.221 1.42232 -2.638 0
M  V30 6186 H 588.782 0.637153 -1.48835 0
M  V30 6187 H 590.774 3.72388 -1.58458 0
M  V30 6188 H 589.344 3.02624 -0.783403 0
M  V30 6189 H 588.564 2.33985 -3.17245 0
M  V30 6190 H 589.852 3.38349 -3.79996 0
M  V30 6191 H 589.25 5.4793 -1.40674 0
M  V30 6192 H 587.807 6.2067 -1.99029 0
M  V30 6193 N 591.24 1.41047 0.703093 0
M  V30 6194 C 592.17 1.45067 1.82969 0
M  V30 6195 C 593.151 0.31016 1.67248 0
M  V30 6196 O 594.336 0.520548 1.87093 0
M  V30 6197 C 591.466 1.32478 3.2104 0
M  V30 6198 C 590.42 2.44262 3.51454 0
M  V30 6199 C 589.746 2.16742 4.88801 0
M  V30 6200 C 591.046 3.86606 3.51189 0
M  V30 6201 H 592.74 2.39353 1.79863 0
M  V30 6202 H 590.286 1.15206 0.863919 0
M  V30 6203 H 592.239 1.33904 3.99559 0
M  V30 6204 H 590.963 0.346735 3.24754 0
M  V30 6205 H 589.622 2.42107 2.75282 0
M  V30 6206 H 589.27 1.17299 4.89132 0
M  V30 6207 H 588.97 2.91643 5.10116 0
M  V30 6208 H 590.494 2.19872 5.69639 0
M  V30 6209 H 591.908 3.90517 4.19725 0
M  V30 6210 H 590.305 4.61128 3.84033 0
M  V30 6211 H 591.375 4.15296 2.50315 0
M  V30 6212 N 592.718 -0.936591 1.26751 0
M  V30 6213 C 593.966 -1.67998 1.12343 0
M  V30 6214 C 594.287 -1.92137 -0.332938 0
M  V30 6215 O 593.557 -1.52132 -1.23421 0
M  V30 6216 H 592.137 -0.622609 0.412756 0
M  V30 6217 H 594.799 -1.12509 1.59147 0
M  V30 6218 H 593.895 -2.65185 1.64571 0
M  V30 6219 N 594.196 -1.08629 -1.14182 0
M  V30 6220 C 595.442 -0.818556 -1.85546 0
M  V30 6221 C 595.775 0.654076 -1.82854 0
M  V30 6222 O 595.05 1.48099 -1.26083 0
M  V30 6223 C 595.333 -1.34397 -3.3408 0
M  V30 6224 C 595.186 -2.8821 -3.45333 0
M  V30 6225 C 596.505 -0.971069 -4.29253 0
M  V30 6226 H 593.624 -0.298821 -0.673702 0
M  V30 6227 H 596.266 -1.34629 -1.34071 0
M  V30 6228 H 594.416 -0.895064 -3.78049 0
M  V30 6229 H 596.088 -3.41488 -3.10134 0
M  V30 6230 H 594.331 -3.25756 -2.86471 0
M  V30 6231 H 595.002 -3.20047 -4.49749 0
M  V30 6232 H 597.478 -1.35809 -3.93313 0
M  V30 6233 H 596.354 -1.36586 -5.31635 0
M  V30 6234 H 596.615 0.121659 -4.41933 0
M  V30 6235 N 595.674 1.31259 -0.872281 0
M  V30 6236 C 596.604 2.30929 -0.345554 0
M  V30 6237 C 597.585 1.60449 0.5648 0
M  V30 6238 O 598.77 1.8814 0.481335 0
M  V30 6239 C 595.9 3.44348 0.451823 0
M  V30 6240 C 594.854 4.26435 -0.365641 0
M  V30 6241 C 594.18 5.31785 0.557562 0
M  V30 6242 C 595.48 4.97159 -1.60095 0
M  V30 6243 H 597.174 2.75234 -1.17841 0
M  V30 6244 H 594.72 1.3232 -0.568094 0
M  V30 6245 H 596.673 4.13128 0.830854 0
M  V30 6246 H 595.397 2.98816 1.31821 0
M  V30 6247 H 594.056 3.59326 -0.726649 0
M  V30 6248 H 593.704 4.82502 1.4213 0
M  V30 6249 H 593.404 5.87598 0.0144878 0
M  V30 6250 H 594.928 6.03424 0.933387 0
M  V30 6251 H 596.342 5.58523 -1.29323 0
M  V30 6252 H 594.739 5.62779 -2.08327 0
M  V30 6253 H 595.809 4.24012 -2.35249 0
M  V30 6254 N 597.152 0.631951 1.44375 0
M  V30 6255 C 598.563 0.219036 1.85411 0
M  V30 6256 C 598.914 -1.22974 1.52879 0
M  V30 6257 O 598.039 -1.93579 0.967266 0
M  V30 6258 C 598.634 0.39075 3.36539 0
M  V30 6259 C 597.193 0.0323351 3.76386 0
M  V30 6260 C 596.34 0.703744 2.68221 0
M  V30 6261 H 599.291 0.837056 1.3483 0
M  V30 6262 H 599.312 -0.370056 3.78696 0
M  V30 6263 H 598.824 1.44527 3.60185 0
M  V30 6264 H 596.925 -1.02042 3.58355 0
M  V30 6265 H 597.038 0.442969 4.77048 0
M  V30 6266 H 595.402 0.138974 2.54321 0
M  V30 6267 H 596.185 1.76088 2.947 0
M  V30 6268 N 598.631 -1.53133 0.372548 0
M  V30 6269 C 599.561 -2.28876 -0.462412 0
M  V30 6270 C 600.542 -1.31583 -1.07796 0
M  V30 6271 O 601.727 -1.60461 -1.09389 0
M  V30 6272 C 598.857 -3.08317 -1.59868 0
M  V30 6273 C 597.811 -4.13355 -1.11003 0
M  V30 6274 C 597.137 -4.8092 -2.33708 0
M  V30 6275 C 598.437 -5.21955 -0.18983 0
M  V30 6276 H 600.131 -2.9892 0.169511 0
M  V30 6277 H 597.677 -1.43761 0.0829658 0
M  V30 6278 H 599.63 -3.60055 -2.18949 0
M  V30 6279 H 598.354 -2.35976 -2.25794 0
M  V30 6280 H 597.013 -3.62573 -0.541869 0
M  V30 6281 H 596.661 -4.05144 -2.98106 0
M  V30 6282 H 596.361 -5.51904 -2.01682 0
M  V30 6283 H 597.885 -5.35455 -2.93462 0
M  V30 6284 H 599.299 -5.69153 -0.688319 0
M  V30 6285 H 597.696 -6.00087 0.0398887 0
M  V30 6286 H 598.766 -4.78811 0.766057 0
M  V30 6287 N 600.109 -0.101901 -1.5727 0
M  V30 6288 C 601.357 0.559091 -1.94213 0
M  V30 6289 C 601.678 1.68297 -0.984948 0
M  V30 6290 O 600.948 1.95863 -0.0381975 0
M  V30 6291 H 599.528 0.20952 -0.717015 0
M  V30 6292 H 602.19 -0.166831 -1.94185 0
M  V30 6293 H 601.286 0.96485 -2.96811 0
M  V30 6294 N 601.587 1.56661 0.17182 0
M  V30 6295 C 602.815 1.861 0.904115 0
M  V30 6296 C 603.23 0.687227 1.75848 0
M  V30 6297 O 602.587 -0.343671 1.79235 0
M  V30 6298 C 602.638 3.14568 1.78127 0
M  V30 6299 O 602.359 4.27422 0.961366 0
M  V30 6300 C 603.86 3.5735 2.62327 0
M  V30 6301 H 601.08 0.617445 0.262684 0
M  V30 6302 H 603.624 2.03775 0.172068 0
M  V30 6303 H 601.779 2.98721 2.46666 0
M  V30 6304 H 602.193 5.00725 1.56123 0
M  V30 6305 H 603.667 4.50144 3.1949 0
M  V30 6306 H 604.144 2.81445 3.37173 0
M  V30 6307 H 604.75 3.75807 1.99121 0
M  V30 6308 N 603.065 -0.440357 1.51323 0
M  V30 6309 C 604.313 -1.18769 1.63518 0
M  V30 6310 C 604.634 -1.91793 0.352201 0
M  V30 6311 O 603.904 -1.85432 -0.631811 0
M  V30 6312 H 602.484 -0.441408 0.602634 0
M  V30 6313 H 605.146 -0.505162 1.8824 0
M  V30 6314 H 604.242 -1.91892 2.46138 0
M  V30 6315 N 604.543 -1.41418 -0.695603 0
M  V30 6316 C 605.491 -1.43467 -1.83084 0
M  V30 6317 C 606.485 -0.312719 -1.66489 0
M  V30 6318 O 607.691 -0.484744 -1.7335 0
M  V30 6319 H 604.066 -0.448891 -0.603325 0
M  V30 6320 H 606.037 -2.39144 -1.78473 0
M  V30 6321 C 604.786 -1.3337 -3.21104 0
M  V30 6322 H 604.109 -2.18989 -3.3449 0
M  V30 6323 H 605.549 -1.38865 -4.00615 0
M  V30 6324 C 604.008 -0.0460484 -3.36869 0
M  V30 6325 O 604.538 0.909258 -3.91274 0
M  V30 6326 N 602.744 0.0300222 -2.90584 0
M  V30 6327 H 602.291 -0.748129 -2.46497 0
M  V30 6328 H 602.249 0.890991 -3.01511 0
M  V30 6329 N 606.021 0.929856 -1.27246 0
M  V30 6330 C 607.298 1.65544 -1.04186 0
M  V30 6331 C 607.678 2.06796 0.424097 0
M  V30 6332 O 607.026 1.80053 1.40688 0
M  V30 6333 C 607.236 2.85912 -2.00138 0
M  V30 6334 C 608.584 3.57305 -2.29387 0
M  V30 6335 O 609.608 2.96036 -1.98094 0
M  V30 6336 O 608.467 4.67688 -2.82719 0
M  V30 6337 H 605.561 0.725473 -0.397011 0
M  V30 6338 H 608.107 0.980583 -1.38501 0
M  V30 6339 H 606.879 2.52403 -2.99013 0
M  V30 6340 H 606.502 3.61118 -1.66371 0
M  V30 6341 N 607.499 1.09233 1.13605 0
M  V30 6342 C 608.429 0.751738 2.21068 0
M  V30 6343 C 609.41 -0.269688 1.67948 0
M  V30 6344 O 610.595 -0.13819 1.93708 0
M  V30 6345 C 607.725 0.16935 3.46887 0
M  V30 6346 C 606.679 1.12007 4.13084 0
M  V30 6347 C 606.005 0.399483 5.33206 0
M  V30 6348 C 607.305 2.46168 4.6065 0
M  V30 6349 H 608.999 1.65024 2.49815 0
M  V30 6350 H 606.545 0.794905 1.20072 0
M  V30 6351 H 608.498 -0.0809824 4.21322 0
M  V30 6352 H 607.222 -0.764335 3.1753 0
M  V30 6353 H 605.881 1.35564 3.40614 0
M  V30 6354 H 605.529 -0.538277 5.00112 0
M  V30 6355 H 605.229 1.03337 5.78442 0
M  V30 6356 H 606.753 0.157403 6.10397 0
M  V30 6357 H 608.167 2.26829 5.26518 0
M  V30 6358 H 606.564 3.05326 5.1662 0
M  V30 6359 H 607.634 3.07076 3.75276 0
M  V30 6360 N 608.977 -1.30795 0.87923 0
M  V30 6361 C 609.94 -2.26563 0.346676 0
M  V30 6362 C 610.94 -1.52578 -0.507597 0
M  V30 6363 O 612.13 -1.71318 -0.315575 0
M  V30 6364 C 609.262 -3.37115 -0.506611 0
M  V30 6365 H 610.455 -2.75183 1.19223 0
M  V30 6366 H 608.008 -1.41886 0.655598 0
M  V30 6367 H 608.743 -2.93802 -1.37299 0
M  V30 6368 H 608.528 -3.91959 0.105218 0
M  V30 6369 H 610.018 -4.08412 -0.871192 0
M  V30 6370 N 610.455 -0.639598 -1.44038 0
M  V30 6371 C 611.871 -0.305953 -1.5664 0
M  V30 6372 C 612.071 1.19055 -1.62567 0
M  V30 6373 O 611.127 1.97492 -1.57331 0
M  V30 6374 C 612.44 -1.00533 -2.83397 0
M  V30 6375 C 613.988 -0.984278 -2.97121 0
M  V30 6376 C 614.463 -1.66428 -4.26691 0
M  V30 6377 N 615.954 -1.63127 -4.33525 0
M  V30 6378 C 616.689 -2.12629 -5.32519 0
M  V30 6379 N 616.185 -2.70359 -6.3787 0
M  V30 6380 N 617.978 -2.03208 -5.24083 0
M  V30 6381 H 610.129 -1.6109 -1.38434 0
M  V30 6382 H 612.392 -0.676672 -0.663942 0
M  V30 6383 H 612.098 -2.06034 -2.85032 0
M  V30 6384 H 611.972 -0.548362 -3.73193 0
M  V30 6385 H 614.359 0.0622792 -2.95034 0
M  V30 6386 H 614.44 -1.47981 -2.08651 0
M  V30 6387 H 614.084 -2.71034 -4.29538 0
M  V30 6388 H 614.014 -1.14351 -5.14034 0
M  V30 6389 H 616.505 -1.20987 -3.58009 0
M  V30 6390 H 616.818 -3.05842 -7.09704 0
M  V30 6391 H 615.163 -2.74414 -6.38531 0
M  V30 6392 H 618.354 -1.57823 -4.40692 0
M  V30 6393 H 618.527 -2.42097 -6.01077 0
M  V30 6394 N 611.933 1.52934 -0.380664 0
M  V30 6395 C 613.179 2.01765 0.20458 0
M  V30 6396 C 613.512 1.26696 1.47179 0
M  V30 6397 O 612.787 0.364936 1.91046 0
M  V30 6398 C 613.07 3.56869 0.481269 0
M  V30 6399 C 612.923 4.42617 -0.800629 0
M  V30 6400 C 614.242 4.2121 1.27554 0
M  V30 6401 H 611.361 0.733388 0.0728803 0
M  V30 6402 H 614.003 1.83068 -0.50853 0
M  V30 6403 H 612.153 3.72932 1.08875 0
M  V30 6404 H 613.825 4.38323 -1.43773 0
M  V30 6405 H 612.068 4.09977 -1.4178 0
M  V30 6406 H 612.739 5.49134 -0.561791 0
M  V30 6407 H 615.215 4.09072 0.761514 0
M  V30 6408 H 614.091 5.29732 1.43788 0
M  V30 6409 H 614.352 3.78269 2.28833 0
M  V30 6410 N 613.412 0.11024 1.57214 0
M  V30 6411 C 614.342 -0.840002 2.17867 0
M  V30 6412 C 615.323 -1.28352 1.11624 0
M  V30 6413 O 616.508 -1.3477 1.39824 0
M  V30 6414 C 613.638 -2.09349 2.77111 0
M  V30 6415 C 612.592 -1.78807 3.8886 0
M  V30 6416 C 611.918 -3.11112 4.34872 0
M  V30 6417 C 613.218 -1.0632 5.11364 0
M  V30 6418 H 614.912 -0.334608 2.97524 0
M  V30 6419 H 612.458 -0.159502 1.43114 0
M  V30 6420 H 614.411 -2.76275 3.18198 0
M  V30 6421 H 613.135 -2.62198 1.9473 0
M  V30 6422 H 611.794 -1.14273 3.48335 0
M  V30 6423 H 611.442 -3.61877 3.49362 0
M  V30 6424 H 611.142 -2.91453 5.10224 0
M  V30 6425 H 612.666 -3.79171 4.78604 0
M  V30 6426 H 614.08 -1.63383 5.49526 0
M  V30 6427 H 612.477 -0.967876 5.92243 0
M  V30 6428 H 613.547 -0.0484569 4.84876 0
M  V30 6429 N 614.89 -1.56749 -0.16351 0
M  V30 6430 C 616.138 -1.82074 -0.87713 0
M  V30 6431 C 616.459 -0.688503 -1.82441 0
M  V30 6432 O 615.729 0.291085 -1.93725 0
M  V30 6433 H 614.309 -0.671677 -0.326893 0
M  V30 6434 H 616.971 -1.9423 -0.161459 0
M  V30 6435 H 616.067 -2.76407 -1.44934 0
M  V30 6436 N 616.368 0.432326 -1.51554 0
M  V30 6437 C 617.614 1.17997 -1.65675 0
M  V30 6438 C 617.969 1.88794 -0.37076 0
M  V30 6439 O 617.262 1.80817 0.633692 0
M  V30 6440 C 617.456 2.21907 -2.80164 0
M  V30 6441 C 617.285 1.6131 -4.19773 0
M  V30 6442 C 616.055 1.39585 -4.85638 0
M  V30 6443 C 618.253 1.08659 -5.0269 0
M  V30 6444 N 616.235 0.746374 -6.09346 0
M  V30 6445 C 617.606 0.562685 -6.17441 0
M  V30 6446 C 619.661 0.978831 -4.88184 0
M  V30 6447 C 618.364 -0.0584015 -7.19276 0
M  V30 6448 C 620.39 0.371631 -5.90231 0
M  V30 6449 C 619.752 -0.141711 -7.04257 0
M  V30 6450 H 615.851 0.419277 -0.660099 0
M  V30 6451 H 618.435 0.475809 -1.88797 0
M  V30 6452 H 616.606 2.89706 -2.58698 0
M  V30 6453 H 618.338 2.88867 -2.8344 0
M  V30 6454 H 615.093 1.65897 -4.43593 0
M  V30 6455 H 615.517 0.438934 -6.75576 0
M  V30 6456 H 620.159 1.36157 -4.00276 0
M  V30 6457 H 617.877 -0.453262 -8.06828 0
M  V30 6458 H 621.463 0.290086 -5.81076 0
M  V30 6459 H 620.343 -0.60417 -7.81869 0
M  V30 6460 N 617.846 1.41785 0.688094 0
M  V30 6461 C 619.094 1.41264 1.4453 0
M  V30 6462 C 619.415 0.0252946 1.94984 0
M  V30 6463 O 618.685 -0.934081 1.72197 0
M  V30 6464 H 617.265 0.519998 0.536294 0
M  V30 6465 H 619.927 1.7709 0.813941 0
M  V30 6466 H 619.023 2.10439 2.30482 0
M  V30 6467 N 619.324 -0.923095 1.27737 0
M  V30 6468 C 620.549 -1.71054 1.17283 0
M  V30 6469 C 620.974 -1.86208 -0.266153 0
M  V30 6470 O 620.332 -1.36545 -1.1927 0
M  V30 6471 C 620.38 -3.0854 1.86642 0
M  V30 6472 O 619.484 -3.95528 1.16752 0
M  V30 6473 H 618.825 -0.524136 0.407649 0
M  V30 6474 H 621.355 -1.15487 1.6889 0
M  V30 6475 H 621.365 -3.58828 1.94182 0
M  V30 6476 H 620.04 -2.96828 2.91317 0
M  V30 6477 H 618.617 -3.53967 1.17312 0
M  V30 6478 N 620.802 -1.09834 -1.13024 0
M  V30 6479 C 621.765 -0.745058 -2.16752 0
M  V30 6480 C 622.765 0.227435 -1.59183 0
M  V30 6481 O 623.955 0.0050786 -1.74199 0
M  V30 6482 C 621.087 -0.102543 -3.40746 0
M  V30 6483 H 622.28 -1.66375 -2.49518 0
M  V30 6484 H 619.833 -0.898061 -1.27924 0
M  V30 6485 H 620.568 0.827177 -3.13573 0
M  V30 6486 H 620.353 -0.80235 -3.83803 0
M  V30 6487 H 621.843 0.129082 -4.174 0
M  V30 6488 N 622.28 1.30327 -0.886154 0
M  V30 6489 C 623.52 1.97886 -0.511912 0
M  V30 6490 C 623.884 1.68417 0.921944 0
M  V30 6491 O 625.085 2.29319 1.40237 0
M  V30 6492 C 623.356 3.48775 -0.780444 0
M  V30 6493 S 624.915 4.35844 -0.508482 0
M  V30 6494 H 621.733 0.685024 -0.190428 0
M  V30 6495 H 624.335 1.58413 -1.14567 0
M  V30 6496 H 623.039 3.67714 -1.82248 0
M  V30 6497 H 622.57 3.93171 -0.134284 0
M  V30 6498 H 624.585 4.91893 0.65239 0
M  V30 6499 N 623.758 0.647228 1.43697 0
M  V30 6500 C 625.035 0.0883758 1.954 0
M  V30 6501 C 625.415 -1.39006 1.58873 0
M  V30 6502 O 624.763 -2.11255 0.87083 0
M  V30 6503 C 624.973 0.328263 3.47453 0
M  V30 6504 C 626.321 0.230009 4.23977 0
M  V30 6505 O 627.345 0.260496 3.55246 0
M  V30 6506 O 626.204 0.148615 5.46298 0
M  V30 6507 H 623.298 -0.0130683 0.826897 0
M  V30 6508 H 625.844 0.72005 1.53666 0
M  V30 6509 H 624.616 1.3535 3.67146 0
M  V30 6510 H 624.239 -0.336772 3.96171 0
M  V30 6511 N 625.236 -1.5273 0.388769 0
M  V30 6512 C 626.513 -1.93981 -0.251133 0
M  V30 6513 C 626.893 -1.32418 -1.64404 0
M  V30 6514 O 626.241 -0.492074 -2.23139 0
M  V30 6515 C 626.451 -3.47891 -0.27802 0
M  V30 6516 C 627.799 -4.21559 -0.507229 0
M  V30 6517 O 628.823 -3.54394 -0.358252 0
M  V30 6518 O 627.682 -5.40626 -0.799094 0
M  V30 6519 H 624.776 -0.812157 -0.15598 0
M  V30 6520 H 627.322 -1.63809 0.443237 0
M  V30 6521 H 626.094 -3.8503 0.697669 0
M  V30 6522 H 625.717 -3.84364 -1.01733 0
M  V30 6523 N 626.714 -0.118576 -1.57153 0
M  V30 6524 C 627.991 0.583062 -1.86708 0
M  V30 6525 C 628.371 1.84841 -1.01967 0
M  V30 6526 O 627.719 2.28288 -0.0984673 0
M  V30 6527 C 627.929 0.875912 -3.3783 0
M  V30 6528 C 629.277 1.22916 -4.0642 0
M  V30 6529 O 630.301 0.966188 -3.42846 0
M  V30 6530 O 629.16 1.72269 -5.18638 0
M  V30 6531 H 626.254 0.294185 -0.772906 0
M  V30 6532 H 628.8 -0.153048 -1.69008 0
M  V30 6533 H 627.572 -0.0207776 -3.91294 0
M  V30 6534 H 627.195 1.66719 -3.60958 0
M  V30 6535 N 628.193 1.56834 0.155195 0
M  V30 6536 C 629.421 1.87049 0.884326 0
M  V30 6537 C 629.836 0.705839 1.7511 0
M  V30 6538 O 629.193 -0.324641 1.79589 0
M  V30 6539 C 629.244 3.1644 1.74781 0
M  V30 6540 O 628.965 4.28417 0.915978 0
M  V30 6541 C 630.466 3.60113 2.58522 0
M  V30 6542 H 627.686 0.620196 0.25612 0
M  V30 6543 H 630.23 2.03946 0.150445 0
M  V30 6544 H 628.385 3.01321 2.43484 0
M  V30 6545 H 628.799 5.02353 1.50803 0
M  V30 6546 H 630.273 4.53508 3.14698 0
M  V30 6547 H 630.75 2.85005 3.34169 0
M  V30 6548 H 631.356 3.77898 1.95124 0
M  V30 6549 N 629.671 -0.424282 1.51781 0
M  V30 6550 C 630.603 -1.53457 1.70246 0
M  V30 6551 C 631.616 -1.52004 0.582967 0
M  V30 6552 O 632.805 -1.56544 0.857683 0
M  V30 6553 C 629.905 -2.92368 1.71389 0
M  V30 6554 C 629.078 -3.1818 3.00133 0
M  V30 6555 C 628.137 -4.36884 2.9329 0
M  V30 6556 O 627.163 -4.34901 3.67219 0
M  V30 6557 N 628.365 -5.4117 2.10036 0
M  V30 6558 H 631.13 -1.38017 2.66029 0
M  V30 6559 H 628.691 -0.613394 1.4983 0
M  V30 6560 H 630.683 -3.6982 1.64362 0
M  V30 6561 H 629.253 -3.0134 0.831449 0
M  V30 6562 H 628.473 -2.28908 3.20928 0
M  V30 6563 H 629.761 -3.32261 3.85331 0
M  V30 6564 H 629.159 -5.45623 1.49373 0
M  V30 6565 H 627.716 -6.17425 2.08878 0
M  V30 6566 N 631.149 -1.42148 -0.680565 0
M  V30 6567 C 632.079 -1.4796 -1.80638 0
M  V30 6568 C 633.06 -0.336728 -1.66734 0
M  V30 6569 O 634.245 -0.550247 -1.86242 0
M  V30 6570 C 631.375 -1.37569 -3.18892 0
M  V30 6571 C 630.329 -2.49823 -3.47524 0
M  V30 6572 C 629.655 -2.24491 -4.85291 0
M  V30 6573 C 630.955 -3.92144 -3.44994 0
M  V30 6574 H 632.649 -2.42184 -1.76032 0
M  V30 6575 H 630.195 -1.16566 -0.845481 0
M  V30 6576 H 632.148 -1.40243 -3.97379 0
M  V30 6577 H 630.872 -0.398357 -3.24162 0
M  V30 6578 H 629.531 -2.46455 -2.71395 0
M  V30 6579 H 629.179 -1.25066 -4.87204 0
M  V30 6580 H 628.879 -2.99722 -5.05411 0
M  V30 6581 H 630.403 -2.28906 -5.66069 0
M  V30 6582 H 631.817 -3.97145 -4.13459 0
M  V30 6583 H 630.214 -4.67179 -3.76648 0
M  V30 6584 H 631.284 -4.19225 -2.43676 0
M  V30 6585 N 632.627 0.916307 -1.28225 0
M  V30 6586 C 634.038 1.48024 -1.13779 0
M  V30 6587 C 634.389 1.94289 0.273139 0
M  V30 6588 O 633.514 1.82226 1.16716 0
M  V30 6589 C 634.109 2.69029 -2.05935 0
M  V30 6590 C 632.668 3.2161 -1.95561 0
M  V30 6591 C 631.815 1.94321 -1.97825 0
M  V30 6592 H 634.766 0.729272 -1.40951 0
M  V30 6593 H 634.787 3.44204 -1.62184 0
M  V30 6594 H 634.299 2.35325 -3.08616 0
M  V30 6595 H 632.4 3.60045 -0.959076 0
M  V30 6596 H 632.513 3.87032 -2.82388 0
M  V30 6597 H 630.877 2.1131 -1.42198 0
M  V30 6598 H 631.66 1.62917 -3.0218 0
M  V30 6599 N 634.105 1.10431 1.1244 0
M  V30 6600 C 635.037 0.710945 2.17895 0
M  V30 6601 C 636.05 -0.252315 1.60833 0
M  V30 6602 O 637.239 -0.03679 1.78462 0
M  V30 6603 C 634.339 0.0284262 3.38888 0
M  V30 6604 C 633.512 1.01585 4.2544 0
M  V30 6605 C 632.571 0.364826 5.24934 0
M  V30 6606 O 631.597 1.01561 5.60066 0
M  V30 6607 N 632.799 -0.87674 5.73841 0
M  V30 6608 H 635.564 1.61826 2.52255 0
M  V30 6609 H 633.125 0.993132 1.27861 0
M  V30 6610 H 635.117 -0.418568 4.0253 0
M  V30 6611 H 633.687 -0.781294 3.02679 0
M  V30 6612 H 632.907 1.64111 3.58415 0
M  V30 6613 H 634.195 1.68425 4.80115 0
M  V30 6614 H 633.593 -1.42483 5.47462 0
M  V30 6615 H 632.15 -1.26688 6.39369 0
M  V30 6616 N 635.583 -1.29855 0.893053 0
M  V30 6617 C 636.832 -1.95104 0.511597 0
M  V30 6618 C 637.145 -1.71226 -0.945567 0
M  V30 6619 O 638.351 -2.30525 -1.43424 0
M  V30 6620 C 636.807 -3.49374 0.864034 0
M  V30 6621 C 636.415 -3.82061 2.33952 0
M  V30 6622 C 638.159 -4.20894 0.552167 0
M  V30 6623 C 636.066 -5.29546 2.63316 0
M  V30 6624 H 634.996 -0.73029 0.187597 0
M  V30 6625 H 637.647 -1.47682 1.08914 0
M  V30 6626 H 636.029 -3.95413 0.215493 0
M  V30 6627 H 637.203 -3.46904 3.03305 0
M  V30 6628 H 635.518 -3.23665 2.61973 0
M  V30 6629 H 638.115 -5.29435 0.748489 0
M  V30 6630 H 638.458 -4.13178 -0.508924 0
M  V30 6631 H 638.991 -3.80564 1.15825 0
M  V30 6632 H 635.73 -5.4232 3.68197 0
M  V30 6633 H 635.25 -5.65974 1.9858 0
M  V30 6634 H 636.929 -5.97068 2.49236 0
M  V30 6635 N 637.061 -0.65484 -1.43351 0
M  V30 6636 C 637.991 0.0221809 -2.33489 0
M  V30 6637 C 638.972 0.810272 -1.49561 0
M  V30 6638 O 640.157 0.771426 -1.78221 0
M  V30 6639 C 637.287 0.988117 -3.32947 0
M  V30 6640 C 636.241 0.310026 -4.26876 0
M  V30 6641 C 635.567 1.38752 -5.16384 0
M  V30 6642 C 636.867 -0.798589 -5.16159 0
M  V30 6643 H 638.561 -0.730571 -2.9035 0
M  V30 6644 H 636.107 -0.352773 -1.39612 0
M  V30 6645 H 638.06 1.47067 -3.94904 0
M  V30 6646 H 636.784 1.77205 -2.74346 0
M  V30 6647 H 635.443 -0.152097 -3.66284 0
M  V30 6648 H 635.091 2.16293 -4.54121 0
M  V30 6649 H 634.791 0.939051 -5.80048 0
M  V30 6650 H 636.315 1.87141 -5.81215 0
M  V30 6651 H 637.729 -0.398126 -5.71916 0
M  V30 6652 H 636.126 -1.17163 -5.88552 0
M  V30 6653 H 637.196 -1.65588 -4.55751 0
M  V30 6654 N 638.539 1.52521 -0.396863 0
M  V30 6655 C 639.449 2.30403 0.44178 0
M  V30 6656 C 640.465 1.37625 1.06468 0
M  V30 6657 O 641.641 1.70697 1.06886 0
M  V30 6658 C 638.706 3.1013 1.54986 0
M  V30 6659 C 637.767 4.18628 0.951279 0
M  V30 6660 C 637 4.94543 2.00655 0
M  V30 6661 O 637.223 4.70629 3.22281 0
M  V30 6662 O 636.157 5.797 1.61962 0
M  V30 6663 H 639.983 3.03087 -0.192892 0
M  V30 6664 H 637.568 1.48537 -0.16038 0
M  V30 6665 H 639.45 3.59816 2.19341 0
M  V30 6666 H 638.125 2.40251 2.16935 0
M  V30 6667 H 637.032 3.73119 0.270773 0
M  V30 6668 H 638.365 4.90763 0.375887 0
M  V30 6669 N 640.017 0.126909 1.57088 0
M  V30 6670 C 640.964 -0.82036 2.15728 0
M  V30 6671 C 641.934 -1.25811 1.08447 0
M  V30 6672 O 643.119 -1.33422 1.36393 0
M  V30 6673 C 640.259 -2.06199 2.76724 0
M  V30 6674 C 639.372 -1.67188 3.98337 0
M  V30 6675 C 638.507 -2.86378 4.47393 0
M  V30 6676 C 637.546 -2.43644 5.61519 0
M  V30 6677 N 636.683 -3.55775 6.05284 0
M  V30 6678 H 641.523 -0.313472 2.96347 0
M  V30 6679 H 639.06 -0.14303 1.46403 0
M  V30 6680 H 641.018 -2.78959 3.10222 0
M  V30 6681 H 639.648 -2.54333 1.98782 0
M  V30 6682 H 638.7 -0.842714 3.70948 0
M  V30 6683 H 640.012 -1.31789 4.81075 0
M  V30 6684 H 639.166 -3.67353 4.82842 0
M  V30 6685 H 637.905 -3.25009 3.63621 0
M  V30 6686 H 636.91 -1.61104 5.25667 0
M  V30 6687 H 638.135 -2.06122 6.47063 0
M  V30 6688 H 636.081 -3.94065 5.24451 0
M  V30 6689 H 635.998 -3.24325 6.82898 0
M  V30 6690 H 637.266 -4.37166 6.45373 0
M  V30 6691 N 641.495 -1.56914 -0.146875 0
M  V30 6692 C 642.425 -2.01308 -1.1831 0
M  V30 6693 C 643.406 -0.892664 -1.44795 0
M  V30 6694 O 644.591 -1.16048 -1.55713 0
M  V30 6695 C 641.721 -2.3938 -2.51624 0
M  V30 6696 C 640.675 -3.54608 -2.3966 0
M  V30 6697 C 640.001 -3.78493 -3.77686 0
M  V30 6698 C 641.301 -4.87269 -1.88058 0
M  V30 6699 H 642.995 -2.88123 -0.813964 0
M  V30 6700 H 640.541 -1.38615 -0.3901 0
M  V30 6701 H 642.494 -2.69037 -3.24341 0
M  V30 6702 H 641.218 -1.49502 -2.90373 0
M  V30 6703 H 639.877 -3.25116 -1.69396 0
M  V30 6704 H 639.525 -2.85866 -4.13871 0
M  V30 6705 H 639.225 -4.56039 -3.70543 0
M  V30 6706 H 640.749 -4.10576 -4.51951 0
M  V30 6707 H 642.163 -5.15644 -2.50568 0
M  V30 6708 H 640.56 -5.68622 -1.91805 0
M  V30 6709 H 641.63 -4.77634 -0.836277 0
M  V30 6710 N 642.974 0.416227 -1.52004 0
M  V30 6711 C 643.884 1.53147 -1.77717 0
M  V30 6712 C 644.9 1.609 -0.662368 0
M  V30 6713 O 646.076 1.77747 -0.946991 0
M  V30 6714 C 643.141 2.88948 -1.91598 0
M  V30 6715 C 642.202 2.9114 -3.15493 0
M  V30 6716 C 641.435 4.20464 -3.28703 0
M  V30 6717 O 641.658 5.13981 -2.47345 0
M  V30 6718 O 640.592 4.29368 -4.21813 0
M  V30 6719 H 644.418 1.34357 -2.72363 0
M  V30 6720 H 642.003 0.601373 -1.36762 0
M  V30 6721 H 643.885 3.69505 -2.02593 0
M  V30 6722 H 642.56 3.07821 -1.00141 0
M  V30 6723 H 641.467 2.09461 -3.09962 0
M  V30 6724 H 642.8 2.77216 -4.06709 0
M  V30 6725 N 644.452 1.42507 0.673017 0
M  V30 6726 C 645.868 1.25472 0.986355 0
M  V30 6727 C 646.068 0.160181 2.00862 0
M  V30 6728 O 645.124 -0.467993 2.48125 0
M  V30 6729 C 646.437 2.61219 1.48947 0
M  V30 6730 C 647.985 2.68589 1.60715 0
M  V30 6731 C 648.46 4.04707 2.14422 0
M  V30 6732 N 649.951 4.0667 2.21752 0
M  V30 6733 C 650.686 5.0881 2.64386 0
M  V30 6734 N 650.182 6.21332 3.0646 0
M  V30 6735 N 651.975 4.96166 2.64151 0
M  V30 6736 H 644.126 2.124 -0.00378532 0
M  V30 6737 H 646.389 0.946046 0.0608367 0
M  V30 6738 H 646.095 3.42179 0.812812 0
M  V30 6739 H 645.969 2.85261 2.46791 0
M  V30 6740 H 648.356 1.87974 2.27486 0
M  V30 6741 H 648.437 2.48333 0.613552 0
M  V30 6742 H 648.081 4.8578 1.48258 0
M  V30 6743 H 648.011 4.22315 3.14575 0
M  V30 6744 H 650.502 3.25438 1.92089 0
M  V30 6745 H 650.815 6.95118 3.37684 0
M  V30 6746 H 649.16 6.24835 3.04313 0
M  V30 6747 H 652.351 4.07334 2.30644 0
M  V30 6748 H 652.524 5.759 2.97057 0
M  V30 6749 N 645.93 -0.909495 1.28709 0
M  V30 6750 C 646.893 -1.99399 1.13016 0
M  V30 6751 C 647.893 -1.60654 0.068536 0
M  V30 6752 O 649.083 -1.71334 0.314671 0
M  V30 6753 C 646.215 -3.33078 0.726085 0
M  V30 6754 H 647.408 -2.14751 2.09338 0
M  V30 6755 H 644.961 -1.09272 1.11756 0
M  V30 6756 H 645.696 -3.23428 -0.23771 0
M  V30 6757 H 645.481 -3.62562 1.49302 0
M  V30 6758 H 646.971 -4.12681 0.639058 0
M  V30 6759 N 647.408 -1.11026 -1.11852 0
M  V30 6760 C 648.633 -0.879064 -1.87849 0
M  V30 6761 C 649.058 0.565406 -1.79401 0
M  V30 6762 O 648.416 1.39886 -1.15333 0
M  V30 6763 C 648.464 -1.33985 -3.34784 0
M  V30 6764 O 647.568 -0.508803 -4.09249 0
M  V30 6765 H 646.909 -0.316992 -0.583448 0
M  V30 6766 H 649.439 -1.47863 -1.41413 0
M  V30 6767 H 649.449 -1.33248 -3.85628 0
M  V30 6768 H 648.124 -2.39172 -3.40249 0
M  V30 6769 H 646.701 -0.581913 -3.68332 0
M  V30 6770 N 648.886 1.2938 -0.899927 0
M  V30 6771 C 650.114 1.99691 -0.541386 0
M  V30 6772 C 650.529 1.67355 0.873936 0
M  V30 6773 O 649.886 0.918728 1.57688 0
M  V30 6774 C 649.937 3.54168 -0.72438 0
M  V30 6775 O 649.658 3.85359 -2.08399 0
M  V30 6776 C 651.159 4.41746 -0.370819 0
M  V30 6777 H 648.379 0.638037 -0.207726 0
M  V30 6778 H 650.923 1.6491 -1.20934 0
M  V30 6779 H 649.078 3.87261 -0.103607 0
M  V30 6780 H 649.492 4.80032 -2.11352 0
M  V30 6781 H 650.966 5.49256 -0.549693 0
M  V30 6782 H 651.443 4.33712 0.692148 0
M  V30 6783 H 652.049 4.14125 -0.968543 0
M  V30 6784 N 650.364 0.662433 1.43002 0
M  V30 6785 C 651.311 -0.0235324 2.30788 0
M  V30 6786 C 652.281 -0.805342 1.4527 0
M  V30 6787 O 653.466 -0.78009 1.74124 0
M  V30 6788 C 650.606 -0.977545 3.30965 0
M  V30 6789 C 649.719 -0.190865 4.31578 0
M  V30 6790 C 648.854 -1.13951 5.18834 0
M  V30 6791 C 647.893 -0.343796 6.11134 0
M  V30 6792 N 647.03 -1.2445 6.90982 0
M  V30 6793 H 651.87 0.730921 2.88897 0
M  V30 6794 H 649.407 0.372197 1.42313 0
M  V30 6795 H 651.365 -1.54437 3.87563 0
M  V30 6796 H 649.995 -1.69877 2.74484 0
M  V30 6797 H 649.047 0.492388 3.772 0
M  V30 6798 H 650.359 0.427464 4.96965 0
M  V30 6799 H 649.513 -1.77666 5.80103 0
M  V30 6800 H 648.252 -1.79174 4.53595 0
M  V30 6801 H 647.257 0.30665 5.48944 0
M  V30 6802 H 648.482 0.304161 6.78419 0
M  V30 6803 H 646.428 -1.88336 6.28383 0
M  V30 6804 H 646.345 -0.680959 7.52927 0
M  V30 6805 H 647.613 -1.86952 7.56749 0
M  V30 6806 N 651.842 -1.52309 0.404946 0
M  V30 6807 C 652.775 -2.23369 -0.467087 0
M  V30 6808 C 653.753 -1.24034 -1.0514 0
M  V30 6809 O 654.937 -1.53071 -1.10006 0
M  V30 6810 C 652.064 -2.95906 -1.64795 0
M  V30 6811 C 651.11 -4.09637 -1.18743 0
M  V30 6812 S 651.943 -5.35273 -0.156022 0
M  V30 6813 C 653.099 -6.11337 -1.34231 0
M  V30 6814 H 653.332 -2.96987 0.136294 0
M  V30 6815 H 650.865 -1.53236 0.189219 0
M  V30 6816 H 652.823 -3.38304 -2.3251 0
M  V30 6817 H 651.484 -2.21937 -2.22267 0
M  V30 6818 H 650.677 -4.59549 -2.06955 0
M  V30 6819 H 650.279 -3.69333 -0.588981 0
M  V30 6820 H 652.571 -6.38458 -2.26665 0
M  V30 6821 H 653.514 -7.02563 -0.883804 0
M  V30 6822 H 653.922 -5.42338 -1.56621 0
M  V30 6823 N 653.32 -0.135238 -1.57019 0
M  V30 6824 C 654.25 0.805235 -2.19176 0
M  V30 6825 C 655.231 1.2656 -1.13651 0
M  V30 6826 O 656.416 1.32528 -1.4195 0
M  V30 6827 C 653.546 2.04914 -2.80406 0
M  V30 6828 C 652.5 1.72598 -3.91655 0
M  V30 6829 C 651.826 3.04154 -4.39766 0
M  V30 6830 C 653.126 0.981709 -5.12991 0
M  V30 6831 H 654.82 0.287232 -2.98019 0
M  V30 6832 H 652.366 0.136714 -1.4335 0
M  V30 6833 H 654.319 2.71178 -3.22553 0
M  V30 6834 H 653.043 2.59067 -1.98877 0
M  V30 6835 H 651.702 1.08717 -3.50109 0
M  V30 6836 H 651.35 3.56274 -3.55075 0
M  V30 6837 H 651.05 2.83299 -5.14796 0
M  V30 6838 H 652.574 3.71509 -4.84576 0
M  V30 6839 H 653.988 1.5462 -5.52056 0
M  V30 6840 H 652.385 0.873533 -5.93708 0
M  V30 6841 H 653.455 -0.0286887 -4.84892 0
M  V30 6842 N 654.798 1.5699 0.138552 0
M  V30 6843 C 656.075 1.74741 0.87891 0
M  V30 6844 C 656.455 0.705522 1.98961 0
M  V30 6845 O 655.803 -0.274066 2.2685 0
M  V30 6846 C 656.013 3.1909 1.4136 0
M  V30 6847 C 657.361 3.81023 1.87368 0
M  V30 6848 O 658.385 3.22571 1.51084 0
M  V30 6849 O 657.244 4.83722 2.54312 0
M  V30 6850 H 654.338 0.714781 0.415953 0
M  V30 6851 H 656.884 1.69248 0.123817 0
M  V30 6852 H 655.656 3.86424 0.61579 0
M  V30 6853 H 655.279 3.29043 2.23196 0
M  V30 6854 N 656.276 -0.40816 1.52223 0
M  V30 6855 C 657.692 -0.74685 1.41047 0
M  V30 6856 C 657.892 -1.94788 0.51573 0
M  V30 6857 O 656.948 -2.52494 -0.0181156 0
M  V30 6858 C 658.261 -0.999878 2.83589 0
M  V30 6859 C 659.809 -1.10253 2.92939 0
M  V30 6860 C 660.284 -1.38832 4.36451 0
M  V30 6861 N 661.775 -1.45694 4.3969 0
M  V30 6862 C 662.51 -1.69435 5.47795 0
M  V30 6863 N 662.006 -1.90774 6.66016 0
M  V30 6864 N 663.799 -1.71458 5.35312 0
M  V30 6865 H 655.95 0.382409 2.08929 0
M  V30 6866 H 658.213 0.108807 0.941735 0
M  V30 6867 H 657.919 -0.189723 3.51188 0
M  V30 6868 H 657.793 -1.91978 3.24691 0
M  V30 6869 H 660.18 -1.90328 2.2552 0
M  V30 6870 H 660.261 -0.160973 2.55293 0
M  V30 6871 H 659.905 -0.592741 5.04429 0
M  V30 6872 H 659.835 -2.34241 4.71634 0
M  V30 6873 H 662.326 -1.3099 3.54472 0
M  V30 6874 H 662.639 -2.08342 7.44186 0
M  V30 6875 H 660.984 -1.88037 6.69079 0
M  V30 6876 H 664.175 -1.54326 4.41929 0
M  V30 6877 H 664.348 -1.89621 6.19635 0
M  V30 6878 N 657.755 -1.42862 -0.66545 0
M  V30 6879 C 659.001 -1.4504 -1.426 0
M  V30 6880 C 659.356 -0.0690217 -1.92276 0
M  V30 6881 O 658.649 0.91036 -1.68591 0
M  V30 6882 C 658.843 -2.4175 -2.63233 0
M  V30 6883 C 658.672 -3.89155 -2.25362 0
M  V30 6884 C 657.442 -4.57619 -2.14273 0
M  V30 6885 C 659.64 -4.79326 -1.86417 0
M  V30 6886 N 657.622 -5.90006 -1.69604 0
M  V30 6887 C 658.993 -6.00892 -1.52738 0
M  V30 6888 C 661.048 -4.66696 -1.73492 0
M  V30 6889 C 659.751 -7.11232 -1.0743 0
M  V30 6890 C 661.777 -5.77027 -1.29589 0
M  V30 6891 C 661.139 -6.97712 -0.968393 0
M  V30 6892 H 657.238 -0.585889 -0.517936 0
M  V30 6893 H 659.822 -1.78956 -0.767002 0
M  V30 6894 H 657.993 -2.09881 -3.26809 0
M  V30 6895 H 659.725 -2.34447 -3.29874 0
M  V30 6896 H 656.48 -4.11957 -2.33641 0
M  V30 6897 H 656.904 -6.60249 -1.49666 0
M  V30 6898 H 661.546 -3.7386 -1.97455 0
M  V30 6899 H 659.264 -8.03907 -0.822147 0
M  V30 6900 H 662.85 -5.6927 -1.20095 0
M  V30 6901 H 661.73 -7.81634 -0.63384 0
M  V30 6902 N 659.233 0.902656 -1.29189 0
M  V30 6903 C 660.458 1.69167 -1.19989 0
M  V30 6904 C 660.883 1.86607 0.236495 0
M  V30 6905 O 660.241 1.38425 1.17082 0
M  V30 6906 C 660.289 3.05532 -1.91527 0
M  V30 6907 O 659.393 3.93621 -1.2303 0
M  V30 6908 H 658.734 0.517584 -0.415936 0
M  V30 6909 H 661.264 1.12785 -1.70706 0
M  V30 6910 H 661.274 3.55693 -1.99866 0
M  V30 6911 H 659.949 2.92156 -2.96003 0
M  V30 6912 H 658.526 3.52055 -1.22928 0
M  V30 6913 N 660.711 1.11618 1.11262 0
M  V30 6914 C 661.957 0.867463 1.83311 0
M  V30 6915 C 662.29 -0.605366 1.84524 0
M  V30 6916 O 661.565 -1.44704 1.29965 0
M  V30 6917 C 661.848 1.43207 3.30399 0
M  V30 6918 C 661.701 2.97265 3.3757 0
M  V30 6919 C 663.02 1.08454 4.26528 0
M  V30 6920 H 660.139 0.316578 0.665543 0
M  V30 6921 H 662.781 1.38137 1.30454 0
M  V30 6922 H 660.931 0.994982 3.75543 0
M  V30 6923 H 662.603 3.49591 3.00971 0
M  V30 6924 H 660.846 3.33237 2.77733 0
M  V30 6925 H 661.517 3.31859 4.41105 0
M  V30 6926 H 663.993 1.4619 3.89574 0
M  V30 6927 H 662.869 1.50633 5.27826 0
M  V30 6928 H 663.13 -0.00444568 4.421 0
M  V30 6929 N 662.189 -1.289 0.906776 0
M  V30 6930 C 663.122 -2.25737 0.334362 0
M  V30 6931 C 664.1 -1.52745 -0.557474 0
M  V30 6932 O 665.284 -1.81673 -0.502697 0
M  V30 6933 C 662.411 -3.34642 -0.522716 0
M  V30 6934 C 661.457 -4.25424 0.302777 0
M  V30 6935 S 662.29 -5.07629 1.70508 0
M  V30 6936 C 663.446 -6.20031 0.855118 0
M  V30 6937 H 663.679 -2.73941 1.15514 0
M  V30 6938 H 661.212 -1.37233 0.707573 0
M  V30 6939 H 663.17 -3.97845 -1.01141 0
M  V30 6940 H 661.831 -2.85119 -1.31781 0
M  V30 6941 H 661.024 -5.02767 -0.352257 0
M  V30 6942 H 660.626 -3.66908 0.724873 0
M  V30 6943 H 662.918 -6.77451 0.0816418 0
M  V30 6944 H 663.861 -6.89767 1.60087 0
M  V30 6945 H 664.269 -5.63035 0.406375 0
M  V30 6946 N 663.667 -0.670007 -1.42649 0
M  V30 6947 C 664.63 0.00204659 -2.292 0
M  V30 6948 C 665.63 0.733817 -1.4308 0
M  V30 6949 O 666.82 0.57254 -1.64522 0
M  V30 6950 C 663.952 1.01359 -3.25483 0
M  V30 6951 H 665.145 -0.759696 -2.90118 0
M  V30 6952 H 662.698 -0.432105 -1.50208 0
M  V30 6953 H 663.433 1.80399 -2.69493 0
M  V30 6954 H 663.218 0.492323 -3.88997 0
M  V30 6955 H 664.708 1.4824 -3.90403 0
M  V30 6956 N 665.145 1.52092 -0.413018 0
M  V30 6957 C 666.375 2.05974 0.160648 0
M  V30 6958 C 666.783 1.28267 1.39084 0
M  V30 6959 O 666.126 0.328805 1.80733 0
M  V30 6960 C 666.188 3.54918 0.572169 0
M  V30 6961 C 665.852 4.53705 -0.547826 0
M  V30 6962 C 666.849 5.00342 -1.41259 0
M  V30 6963 C 664.534 4.97089 -0.721627 0
M  V30 6964 C 666.528 5.89011 -2.43607 0
M  V30 6965 C 664.215 5.85554 -1.74841 0
M  V30 6966 C 665.213 6.3141 -2.60403 0
M  V30 6967 O 664.901 7.18123 -3.61323 0
M  V30 6968 H 664.633 0.675636 0.0221936 0
M  V30 6969 H 667.187 1.96931 -0.58373 0
M  V30 6970 H 665.417 3.61661 1.36889 0
M  V30 6971 H 667.106 3.91428 1.0742 0
M  V30 6972 H 667.872 4.67537 -1.28974 0
M  V30 6973 H 663.751 4.60954 -0.0652911 0
M  V30 6974 H 667.295 6.24725 -3.10425 0
M  V30 6975 H 663.192 6.17773 -1.87156 0
M  V30 6976 H 663.96 7.36244 -3.57613 0
M  V30 6977 N 666.623 0.143563 1.56945 0
M  V30 6978 C 667.533 -0.810562 2.20152 0
M  V30 6979 C 668.549 -1.27431 1.1848 0
M  V30 6980 O 669.725 -1.33221 1.51044 0
M  V30 6981 C 666.79 -2.03353 2.80799 0
M  V30 6982 C 665.851 -1.61936 3.97587 0
M  V30 6983 C 665.084 -2.78403 4.55332 0
M  V30 6984 O 665.307 -3.94521 4.11958 0
M  V30 6985 O 664.241 -2.54073 5.45647 0
M  V30 6986 H 668.067 -0.30253 3.02189 0
M  V30 6987 H 665.652 -0.0832925 1.49168 0
M  V30 6988 H 667.534 -2.74932 3.19359 0
M  V30 6989 H 666.209 -2.53116 2.01777 0
M  V30 6990 H 665.116 -0.873904 3.6375 0
M  V30 6991 H 666.449 -1.16892 4.78118 0
M  V30 6992 N 668.101 -1.57061 -0.130224 0
M  V30 6993 C 669.064 -1.98593 -1.14426 0
M  V30 6994 C 670.064 -0.874584 -1.34936 0
M  V30 6995 O 671.254 -1.14086 -1.31643 0
M  V30 6996 C 668.386 -2.31639 -2.50112 0
M  V30 6997 H 669.579 -2.89374 -0.787561 0
M  V30 6998 H 667.132 -1.51756 -0.374146 0
M  V30 6999 H 667.867 -1.43703 -2.90723 0
M  V30 7000 H 667.652 -3.12684 -2.36583 0
M  V30 7001 H 669.142 -2.64551 -3.23114 0
M  V30 7002 N 669.579 0.400081 -1.52437 0
M  V30 7003 C 670.526 1.48803 -1.76426 0
M  V30 7004 C 671.496 1.5461 -0.607032 0
M  V30 7005 O 672.681 1.71041 -0.845563 0
M  V30 7006 C 669.821 2.86156 -1.92896 0
M  V30 7007 C 668.934 2.89587 -3.20567 0
M  V30 7008 C 668.069 4.18296 -3.27417 0
M  V30 7009 C 667.108 4.15736 -4.49255 0
M  V30 7010 N 666.245 5.36032 -4.53447 0
M  V30 7011 H 671.085 1.27649 -2.69276 0
M  V30 7012 H 668.622 0.619451 -1.33421 0
M  V30 7013 H 670.58 3.65901 -2.00429 0
M  V30 7014 H 669.21 3.05785 -1.03418 0
M  V30 7015 H 668.262 2.02278 -3.22161 0
M  V30 7016 H 669.574 2.83562 -4.10358 0
M  V30 7017 H 668.728 5.06439 -3.34072 0
M  V30 7018 H 667.467 4.27028 -2.35581 0
M  V30 7019 H 666.472 3.25982 -4.42737 0
M  V30 7020 H 667.697 4.08636 -5.42396 0
M  V30 7021 H 665.643 5.45415 -3.64498 0
M  V30 7022 H 665.56 5.32038 -5.37096 0
M  V30 7023 H 666.828 6.26104 -4.64343 0
M  V30 7024 N 671.057 1.43213 0.657864 0
M  V30 7025 C 671.987 1.50815 1.78262 0
M  V30 7026 C 672.968 0.363211 1.66177 0
M  V30 7027 O 674.153 0.579806 1.85343 0
M  V30 7028 C 671.283 1.42625 3.16663 0
M  V30 7029 C 670.237 2.5532 3.43505 0
M  V30 7030 C 669.563 2.32184 4.81658 0
M  V30 7031 C 670.863 3.97583 3.38711 0
M  V30 7032 H 672.557 2.44954 1.72157 0
M  V30 7033 H 670.103 1.17896 0.82683 0
M  V30 7034 H 672.056 1.46548 3.95097 0
M  V30 7035 H 670.78 0.449877 3.23487 0
M  V30 7036 H 669.439 2.50742 2.6744 0
M  V30 7037 H 669.087 1.32801 4.85153 0
M  V30 7038 H 668.787 3.07724 5.00579 0
M  V30 7039 H 670.311 2.37883 5.62356 0
M  V30 7040 H 671.725 4.03673 4.07089 0
M  V30 7041 H 670.122 4.73112 3.69168 0
M  V30 7042 H 671.192 4.23049 2.36976 0
M  V30 7043 N 672.536 -0.895792 1.29666 0
M  V30 7044 C 673.947 -1.46195 1.1612 0
M  V30 7045 C 674.298 -1.94699 -0.242195 0
M  V30 7046 O 673.423 -1.8406 -1.13802 0
M  V30 7047 C 674.018 -2.65718 2.10189 0
M  V30 7048 C 672.577 -3.18458 2.00653 0
M  V30 7049 C 671.724 -1.91149 2.00891 0
M  V30 7050 H 674.675 -0.706756 1.42094 0
M  V30 7051 H 674.696 -3.4158 1.6764 0
M  V30 7052 H 674.208 -2.30386 3.12321 0
M  V30 7053 H 672.309 -3.58474 1.01623 0
M  V30 7054 H 672.422 -3.82491 2.88509 0
M  V30 7055 H 670.786 -2.09021 1.45542 0
M  V30 7056 H 671.569 -1.58089 3.04734 0
M  V30 7057 N 674.014 -1.12206 -1.10668 0
M  V30 7058 C 675.43 -0.857619 -1.346 0
M  V30 7059 C 675.63 0.513542 -1.94846 0
M  V30 7060 O 674.686 1.26273 -2.18658 0
M  V30 7061 C 675.999 -1.97212 -2.26998 0
M  V30 7062 C 677.547 -2.00272 -2.40542 0
M  V30 7063 C 678.022 -3.10948 -3.36267 0
M  V30 7064 N 679.513 -3.10375 -3.43834 0
M  V30 7065 C 680.248 -3.92651 -4.17867 0
M  V30 7066 N 679.744 -4.84911 -4.94807 0
M  V30 7067 N 681.537 -3.80798 -4.1346 0
M  V30 7068 H 673.688 -2.00558 -0.699306 0
M  V30 7069 H 675.951 -0.872612 -0.370477 0
M  V30 7070 H 675.657 -2.96002 -1.89936 0
M  V30 7071 H 675.531 -1.87521 -3.27286 0
M  V30 7072 H 677.918 -1.02103 -2.76874 0
M  V30 7073 H 677.999 -2.14037 -1.40077 0
M  V30 7074 H 677.643 -4.09348 -3.00661 0
M  V30 7075 H 677.573 -2.94421 -4.36605 0
M  V30 7076 H 680.064 -2.43536 -2.88961 0
M  V30 7077 H 680.377 -5.44207 -5.48688 0
M  V30 7078 H 678.722 -4.88926 -4.93939 0
M  V30 7079 H 681.913 -3.08058 -3.52445 0
M  V30 7080 H 682.086 -4.4515 -4.70898 0
M  V30 7081 N 675.492 1.28418 -0.913599 0
M  V30 7082 C 676.424 2.26368 -0.359169 0
M  V30 7083 C 677.437 1.54858 0.502285 0
M  V30 7084 O 678.626 1.75659 0.31719 0
M  V30 7085 C 675.726 3.35112 0.50526 0
M  V30 7086 C 674.899 4.36126 -0.333648 0
M  V30 7087 C 673.958 5.24134 0.465845 0
M  V30 7088 O 672.984 5.6907 -0.121538 0
M  V30 7089 N 674.186 5.52892 1.76891 0
M  V30 7090 H 676.951 2.74579 -1.2011 0
M  V30 7091 H 674.512 1.41898 -0.779532 0
M  V30 7092 H 676.504 3.90926 1.04684 0
M  V30 7093 H 675.074 2.86611 1.2479 0
M  V30 7094 H 674.294 3.79776 -1.0566 0
M  V30 7095 H 675.582 5.00638 -0.907669 0
M  V30 7096 H 674.98 5.18217 2.26865 0
M  V30 7097 H 673.537 6.11464 2.25732 0
M  V30 7098 N 676.97 0.677563 1.42291 0
M  V30 7099 C 677.933 0.0101085 2.29198 0
M  V30 7100 C 678.933 -0.726219 1.43467 0
M  V30 7101 O 680.123 -0.563807 1.64824 0
M  V30 7102 C 677.255 -0.996316 3.26016 0
M  V30 7103 H 678.448 0.775071 2.89711 0
M  V30 7104 H 676.001 0.440065 1.49977 0
M  V30 7105 H 676.736 -1.78967 2.70446 0
M  V30 7106 H 676.521 -0.471687 3.89253 0
M  V30 7107 H 678.011 -1.46167 3.91184 0
M  V30 7108 N 678.448 -1.51871 0.421078 0
M  V30 7109 C 679.673 -2.0684 -0.152371 0
M  V30 7110 C 680.098 -1.28802 -1.37083 0
M  V30 7111 O 679.456 -0.321482 -1.78427 0
M  V30 7112 C 679.504 -3.57532 -0.469368 0
M  V30 7113 O 678.608 -3.81818 -1.55848 0
M  V30 7114 H 677.949 -0.663939 -0.00898586 0
M  V30 7115 H 680.479 -1.95674 0.597724 0
M  V30 7116 H 680.489 -4.01515 -0.724553 0
M  V30 7117 H 679.164 -4.13761 0.421276 0
M  V30 7118 H 677.741 -3.49709 -1.29453 0
M  V30 7119 N 679.926 -0.151884 -1.56866 0
M  V30 7120 C 681.151 0.508044 -2.01081 0
M  V30 7121 C 681.576 1.57306 -1.03134 0
M  V30 7122 O 680.934 1.81298 -0.0078309 0
M  V30 7123 C 680.982 1.08106 -3.44014 0
M  V30 7124 O 680.086 2.19577 -3.49084 0
M  V30 7125 H 679.427 0.123757 -0.652365 0
M  V30 7126 H 681.957 -0.250055 -2.03066 0
M  V30 7127 H 681.967 1.40851 -3.82916 0
M  V30 7128 H 680.642 0.301168 -4.14808 0
M  V30 7129 H 679.219 1.88023 -3.22027 0
M  V30 7130 N 681.404 1.57128 0.121893 0
M  V30 7131 C 682.629 1.89254 0.848385 0
M  V30 7132 C 683.054 0.743527 1.72781 0
M  V30 7133 O 682.412 -0.306056 1.78698 0
M  V30 7134 C 682.46 3.20113 1.66012 0
M  V30 7135 O 681.564 3.05815 2.76679 0
M  V30 7136 H 680.905 0.621103 0.234793 0
M  V30 7137 H 683.435 2.0433 0.10516 0
M  V30 7138 H 683.445 3.52761 2.04996 0
M  V30 7139 H 682.12 4.03336 1.01452 0
M  V30 7140 H 680.697 2.84627 2.40918 0
M  V30 7141 N 682.882 -0.391992 1.52647 0
M  V30 7142 C 684.11 -1.1586 1.71418 0
M  V30 7143 C 684.525 -1.8381 0.431216 0
M  V30 7144 O 683.882 -1.7256 -0.594085 0
M  V30 7145 C 683.933 -2.20888 2.86165 0
M  V30 7146 O 683.654 -1.5571 4.09495 0
M  V30 7147 C 685.155 -3.103 3.1659 0
M  V30 7148 H 682.375 -0.347494 0.574011 0
M  V30 7149 H 684.919 -0.458972 1.99283 0
M  V30 7150 H 683.074 -2.86492 2.6077 0
M  V30 7151 H 683.488 -2.25474 4.73563 0
M  V30 7152 H 684.962 -3.8003 4.00351 0
M  V30 7153 H 685.439 -3.73639 2.30848 0
M  V30 7154 H 686.045 -2.50345 3.43813 0
M  V30 7155 N 684.36 -1.4356 -0.65026 0
M  V30 7156 C 685.606 -1.45549 -1.41221 0
M  V30 7157 C 685.939 -0.0805472 -1.94033 0
M  V30 7158 O 685.214 0.899043 -1.72475 0
M  V30 7159 C 685.497 -2.50028 -2.59148 0
M  V30 7160 C 685.35 -3.96808 -2.1181 0
M  V30 7161 C 686.669 -2.51212 -3.61359 0
M  V30 7162 H 683.788 -0.529967 -0.512156 0
M  V30 7163 H 686.43 -1.75127 -0.736933 0
M  V30 7164 H 684.58 -2.24937 -3.16758 0
M  V30 7165 H 686.252 -4.32966 -1.59178 0
M  V30 7166 H 684.495 -4.09498 -1.43156 0
M  V30 7167 H 685.166 -4.6553 -2.96625 0
M  V30 7168 H 687.642 -2.73583 -3.13515 0
M  V30 7169 H 686.518 -3.26252 -4.41419 0
M  V30 7170 H 686.779 -1.54701 -4.1415 0
M  V30 7171 N 685.838 0.888903 -1.30139 0
M  V30 7172 C 687.066 1.67358 -1.21651 0
M  V30 7173 C 687.481 1.87499 0.221246 0
M  V30 7174 O 686.838 1.41969 1.14677 0
M  V30 7175 C 686.889 3.05213 -1.93719 0
M  V30 7176 O 686.61 2.85984 -3.31881 0
M  V30 7177 C 688.111 3.9964 -1.9184 0
M  V30 7178 H 685.331 0.522365 -0.42116 0
M  V30 7179 H 687.875 1.11086 -1.71698 0
M  V30 7180 H 686.03 3.5823 -1.4748 0
M  V30 7181 H 686.444 3.73411 -3.68327 0
M  V30 7182 H 687.918 4.93749 -2.46811 0
M  V30 7183 H 688.395 4.29955 -0.896409 0
M  V30 7184 H 689.001 3.52558 -2.37872 0
M  V30 7185 N 687.317 1.12792 1.10072 0
M  V30 7186 C 688.227 0.812369 2.20086 0
M  V30 7187 C 689.243 -0.200349 1.72843 0
M  V30 7188 O 690.419 -0.0330262 2.01373 0
M  V30 7189 C 687.484 0.275685 3.45602 0
M  V30 7190 C 686.545 1.34881 4.07561 0
M  V30 7191 C 685.778 0.837639 5.27086 0
M  V30 7192 O 686.001 -0.327224 5.69461 0
M  V30 7193 O 684.935 1.60894 5.79997 0
M  V30 7194 H 688.761 1.73133 2.49517 0
M  V30 7195 H 686.346 0.904863 1.18881 0
M  V30 7196 H 688.228 -0.0185375 4.21396 0
M  V30 7197 H 686.903 -0.615783 3.17789 0
M  V30 7198 H 685.81 1.69625 3.33434 0
M  V30 7199 H 687.143 2.21418 4.39585 0
M  V30 7200 N 688.795 -1.27931 0.920396 0
M  V30 7201 C 690.072 -1.89728 0.475687 0
M  V30 7202 C 690.452 -1.8337 -1.04588 0
M  V30 7203 O 689.8 -1.27404 -1.89685 0
M  V30 7204 C 690.01 -3.33959 1.01354 0
M  V30 7205 C 691.358 -4.10907 1.06963 0
M  V30 7206 O 692.382 -3.42945 0.962646 0
M  V30 7207 O 691.241 -5.32399 1.23343 0
M  V30 7208 H 688.335 -0.81294 0.151845 0
M  V30 7209 H 690.881 -1.36252 1.01161 0
M  V30 7210 H 689.653 -3.32843 2.05746 0
M  V30 7211 H 689.276 -3.94944 0.458829 0
M  V30 7212 N 690.273 -0.685099 -1.4193 0
M  V30 7213 C 691.52 -0.211658 -2.01391 0
M  V30 7214 C 691.848 1.18526 -1.54214 0
M  V30 7215 O 691.103 1.81189 -0.739519 0
M  V30 7216 C 691.402 -0.206154 -3.56805 0
M  V30 7217 C 691.068 -1.54915 -4.23453 0
M  V30 7218 C 689.73 -1.91684 -4.41373 0
M  V30 7219 C 692.082 -2.43317 -4.60919 0
M  V30 7220 C 689.41 -3.16461 -4.94034 0
M  V30 7221 C 691.762 -3.67415 -5.14965 0
M  V30 7222 C 690.426 -4.04341 -5.31098 0
M  V30 7223 H 689.696 -0.0774511 -0.736941 0
M  V30 7224 H 692.343 -0.882121 -1.69973 0
M  V30 7225 H 690.648 0.547841 -3.87951 0
M  V30 7226 H 692.345 0.17753 -4.00607 0
M  V30 7227 H 688.935 -1.25314 -4.09871 0
M  V30 7228 H 693.119 -2.16192 -4.46738 0
M  V30 7229 H 688.375 -3.45078 -5.04709 0
M  V30 7230 H 692.549 -4.3611 -5.42938 0
M  V30 7231 H 690.176 -5.01101 -5.71666 0
M  V30 7232 N 691.751 1.51645 -0.429126 0
M  V30 7233 C 692.976 2.06917 0.141399 0
M  V30 7234 C 693.401 1.29527 1.36398 0
M  V30 7235 O 692.759 0.33094 1.78254 0
M  V30 7236 C 692.807 3.57776 0.4504 0
M  V30 7237 O 691.911 3.82639 1.53821 0
M  V30 7238 H 691.252 0.663978 0.0054647 0
M  V30 7239 H 693.782 1.95355 -0.608093 0
M  V30 7240 H 693.792 4.01894 0.703249 0
M  V30 7241 H 692.467 4.13532 -0.443213 0
M  V30 7242 H 691.044 3.5039 1.27597 0
M  V30 7243 N 693.229 0.160201 1.56784 0
M  V30 7244 C 694.139 -0.787167 2.21 0
M  V30 7245 C 695.155 -1.26167 1.19825 0
M  V30 7246 O 696.331 -1.31611 1.52448 0
M  V30 7247 C 693.396 -2.00364 2.8294 0
M  V30 7248 C 692.457 -1.5771 3.99282 0
M  V30 7249 C 691.69 -2.73558 4.58259 0
M  V30 7250 O 691.913 -3.90129 4.16119 0
M  V30 7251 O 690.847 -2.48271 5.48311 0
M  V30 7252 H 694.673 -0.270462 3.02493 0
M  V30 7253 H 692.258 -0.0674666 1.49248 0
M  V30 7254 H 694.14 -2.71529 3.22257 0
M  V30 7255 H 692.815 -2.50961 2.04451 0
M  V30 7256 H 691.722 -0.835274 3.64656 0
M  V30 7257 H 693.055 -1.11815 4.79331 0
M  V30 7258 N 694.707 -1.5719 -0.113559 0
M  V30 7259 C 695.984 -1.76117 -0.850999 0
M  V30 7260 C 696.364 -0.737085 -1.97814 0
M  V30 7261 O 695.712 0.237942 -2.27258 0
M  V30 7262 C 695.922 -3.21298 -1.36266 0
M  V30 7263 C 697.27 -3.83955 -1.81283 0
M  V30 7264 O 698.294 -3.24934 -1.45933 0
M  V30 7265 O 697.153 -4.87707 -2.46585 0
M  V30 7266 H 694.247 -0.721308 -0.404529 0
M  V30 7267 H 696.793 -1.69423 -0.0968756 0
M  V30 7268 H 695.565 -3.87355 -0.554235 0
M  V30 7269 H 695.188 -3.32552 -2.17933 0
M  V30 7270 N 696.185 0.383891 -1.52853 0
M  V30 7271 C 697.41 1.154 -1.7233 0
M  V30 7272 C 697.835 1.82809 -0.44298 0
M  V30 7273 O 697.193 1.71026 0.601645 0
M  V30 7274 C 697.241 2.17386 -2.87708 0
M  V30 7275 O 696.345 3.24082 -2.55038 0
M  V30 7276 H 695.686 0.335709 -0.572883 0
M  V30 7277 H 698.216 0.44662 -1.99666 0
M  V30 7278 H 698.226 2.61296 -3.1335 0
M  V30 7279 H 696.901 1.6771 -3.80587 0
M  V30 7280 H 695.478 2.85273 -2.40153 0
M  V30 7281 N 697.663 1.43903 0.642637 0
M  V30 7282 C 698.573 1.52349 1.78401 0
M  V30 7283 C 699.589 0.409869 1.69104 0
M  V30 7284 O 700.765 0.665548 1.90085 0
M  V30 7285 C 697.83 1.45408 3.14734 0
M  V30 7286 C 696.891 2.67528 3.35749 0
M  V30 7287 C 696.124 2.60909 4.65577 0
M  V30 7288 O 696.347 1.6627 5.45628 0
M  V30 7289 O 695.281 3.5158 4.88544 0
M  V30 7290 H 699.107 2.48752 1.7423 0
M  V30 7291 H 696.692 1.26021 0.802439 0
M  V30 7292 H 698.574 1.44019 3.96026 0
M  V30 7293 H 697.249 0.521437 3.19473 0
M  V30 7294 H 696.156 2.74487 2.5418 0
M  V30 7295 H 697.489 3.598 3.35864 0
M  V30 7296 N 699.141 -0.881989 1.30609 0
M  V30 7297 C 700.387 -1.63647 1.19781 0
M  V30 7298 C 700.72 -1.92632 -0.246265 0
M  V30 7299 O 699.995 -1.54938 -1.17577 0
M  V30 7300 C 700.278 -2.97437 2.02985 0
M  V30 7301 C 700.131 -2.75406 3.55628 0
M  V30 7302 C 701.45 -3.98397 1.86997 0
M  V30 7303 H 698.569 -0.593841 0.436488 0
M  V30 7304 H 701.211 -1.02041 1.60273 0
M  V30 7305 H 699.361 -3.50018 1.68581 0
M  V30 7306 H 701.033 -2.2959 4.00107 0
M  V30 7307 H 699.276 -2.09856 3.79662 0
M  V30 7308 H 699.947 -3.70552 4.09139 0
M  V30 7309 H 702.423 -3.54986 2.17081 0
M  V30 7310 H 701.299 -4.89916 2.47536 0
M  V30 7311 H 701.56 -4.3424 0.829943 0
M  V30 7312 N 700.619 -1.13374 -1.09472 0
M  V30 7313 C 701.551 -0.768466 -2.15933 0
M  V30 7314 C 702.564 0.209585 -1.61445 0
M  V30 7315 O 703.753 -0.010539 -1.78497 0
M  V30 7316 C 700.853 -0.118266 -3.38694 0
M  V30 7317 C 700.026 -1.12829 -4.22597 0
M  V30 7318 C 699.085 -0.503875 -5.23782 0
M  V30 7319 O 698.111 -1.16374 -5.57177 0
M  V30 7320 N 699.313 0.724288 -5.75964 0
M  V30 7321 H 702.078 -1.68457 -2.47876 0
M  V30 7322 H 699.639 -1.02668 -1.25183 0
M  V30 7323 H 701.631 0.311698 -4.03498 0
M  V30 7324 H 700.201 0.700769 -3.04644 0
M  V30 7325 H 699.421 -1.73556 -3.53938 0
M  V30 7326 H 700.709 -1.81095 -4.75481 0
M  V30 7327 H 700.107 1.27918 -5.51048 0
M  V30 7328 H 698.664 1.09692 -6.42504 0
M  V30 7329 N 702.098 1.27442 -0.927168 0
M  V30 7330 C 703.03 2.25975 -0.383158 0
M  V30 7331 C 704.043 1.55382 0.485832 0
M  V30 7332 O 705.232 1.75986 0.298541 0
M  V30 7333 C 702.332 3.35629 0.469688 0
M  V30 7334 C 701.505 4.35747 -0.379886 0
M  V30 7335 C 700.564 5.24598 0.410227 0
M  V30 7336 O 699.59 5.68909 -0.181888 0
M  V30 7337 N 700.792 5.54737 1.71017 0
M  V30 7338 H 703.557 2.7329 -1.23015 0
M  V30 7339 H 701.118 1.41063 -0.794539 0
M  V30 7340 H 703.11 3.92015 1.00532 0
M  V30 7341 H 701.68 2.87919 1.21744 0
M  V30 7342 H 700.9 3.78634 -1.09682 0
M  V30 7343 H 702.188 4.99648 -0.960717 0
M  V30 7344 H 701.586 5.20594 2.21356 0
M  V30 7345 H 700.143 6.13824 2.19234 0
M  V30 7346 N 703.576 0.692616 1.41565 0
M  V30 7347 C 704.825 0.219452 2.00503 0
M  V30 7348 C 705.138 -1.18683 1.55479 0
M  V30 7349 O 706.344 -1.75731 2.06956 0
M  V30 7350 C 704.8 0.341451 3.58277 0
M  V30 7351 C 704.408 1.75291 4.12283 0
M  V30 7352 C 706.152 -0.0720899 4.24439 0
M  V30 7353 C 704.059 1.82673 5.62481 0
M  V30 7354 H 702.989 0.0782874 0.749925 0
M  V30 7355 H 705.64 0.860386 1.62079 0
M  V30 7356 H 704.022 -0.367683 3.94289 0
M  V30 7357 H 705.196 2.49057 3.87695 0
M  V30 7358 H 703.511 2.11587 3.58636 0
M  V30 7359 H 706.108 -0.0373385 5.34687 0
M  V30 7360 H 706.451 -1.11034 4.0122 0
M  V30 7361 H 706.984 0.586663 3.9345 0
M  V30 7362 H 703.723 2.84539 5.90523 0
M  V30 7363 H 703.243 1.13288 5.89004 0
M  V30 7364 H 704.922 1.58827 6.27203 0
M  V30 7365 N 705.054 -1.51416 0.437162 0
M  V30 7366 C 705.984 -2.30631 -0.364922 0
M  V30 7367 C 706.965 -1.36037 -1.02118 0
M  V30 7368 O 708.15 -1.64956 -1.02485 0
M  V30 7369 C 705.28 -3.1482 -1.46648 0
M  V30 7370 C 704.234 -4.17691 -0.933717 0
M  V30 7371 C 703.56 -4.904 -2.13101 0
M  V30 7372 C 704.86 -5.2229 0.0317201 0
M  V30 7373 H 706.554 -2.97932 0.29614 0
M  V30 7374 H 704.1 -1.4328 0.143865 0
M  V30 7375 H 706.053 -3.69017 -2.03481 0
M  V30 7376 H 704.777 -2.4534 -2.15583 0
M  V30 7377 H 703.436 -3.64545 -0.387602 0
M  V30 7378 H 703.084 -4.17423 -2.80654 0
M  V30 7379 H 702.784 -5.59962 -1.78092 0
M  V30 7380 H 704.308 -5.4742 -2.70487 0
M  V30 7381 H 705.722 -5.7156 -0.446302 0
M  V30 7382 H 704.119 -5.99378 0.29437 0
M  V30 7383 H 705.189 -4.75131 0.968447 0
M  V30 7384 N 706.532 -0.168513 -1.56696 0
M  V30 7385 C 707.779 0.477158 -1.96798 0
M  V30 7386 C 708.107 1.63442 -1.05437 0
M  V30 7387 O 707.362 1.95503 -0.0878903 0
M  V30 7388 C 707.661 1.00441 -3.42996 0
M  V30 7389 C 707.327 -0.0366556 -4.50885 0
M  V30 7390 C 705.989 -0.322785 -4.80116 0
M  V30 7391 C 708.341 -0.743447 -5.1587 0
M  V30 7392 C 705.669 -1.32114 -5.71632 0
M  V30 7393 C 708.021 -1.73077 -6.08463 0
M  V30 7394 C 706.685 -2.02437 -6.36062 0
M  V30 7395 H 705.955 0.174604 -0.720135 0
M  V30 7396 H 708.602 -0.259884 -1.89728 0
M  V30 7397 H 706.907 1.81922 -3.47004 0
M  V30 7398 H 708.604 1.51294 -3.71364 0
M  V30 7399 H 705.194 0.196532 -4.28149 0
M  V30 7400 H 709.378 -0.535602 -4.93401 0
M  V30 7401 H 704.634 -1.55482 -5.913 0
M  V30 7402 H 708.808 -2.28382 -6.57886 0
M  V30 7403 H 706.435 -2.79946 -7.06777 0
M  V30 7404 N 708.01 1.57248 0.105221 0
M  V30 7405 C 709.24 1.89492 0.823175 0
M  V30 7406 C 709.648 0.75934 1.73294 0
M  V30 7407 O 708.991 -0.278182 1.81581 0
M  V30 7408 C 709.053 3.16891 1.69765 0
M  V30 7409 C 708.717 4.46787 0.960769 0
M  V30 7410 C 709.714 5.19061 0.295218 0
M  V30 7411 C 707.399 4.93467 0.937854 0
M  V30 7412 C 709.393 6.36246 -0.383393 0
M  V30 7413 C 707.08 6.10566 0.255452 0
M  V30 7414 C 708.078 6.81804 -0.404003 0
M  V30 7415 O 707.766 7.96673 -1.07549 0
M  V30 7416 H 707.498 0.631512 0.24118 0
M  V30 7417 H 710.052 2.05203 0.0899655 0
M  V30 7418 H 708.282 2.973 2.47285 0
M  V30 7419 H 709.971 3.35046 2.29126 0
M  V30 7420 H 710.737 4.84044 0.304448 0
M  V30 7421 H 706.616 4.37913 1.44058 0
M  V30 7422 H 710.16 6.91787 -0.898696 0
M  V30 7423 H 706.057 6.45039 0.244032 0
M  V30 7424 H 706.825 8.12596 -0.981355 0
M  V30 7425 N 709.488 -0.375779 1.53054 0
M  V30 7426 C 710.398 -1.48381 1.81715 0
M  V30 7427 C 711.414 -1.59087 0.704795 0
M  V30 7428 O 712.59 -1.75174 0.993785 0
M  V30 7429 C 709.655 -2.83767 1.99192 0
M  V30 7430 C 708.716 -2.82673 3.23102 0
M  V30 7431 C 707.949 -4.11601 3.39736 0
M  V30 7432 O 708.172 -5.07243 2.60885 0
M  V30 7433 O 707.106 -4.18034 4.33049 0
M  V30 7434 H 710.932 -1.27089 2.7583 0
M  V30 7435 H 708.517 -0.564902 1.38308 0
M  V30 7436 H 710.399 -3.64004 2.12318 0
M  V30 7437 H 709.074 -3.05057 1.08267 0
M  V30 7438 H 707.981 -2.0117 3.15407 0
M  V30 7439 H 709.314 -2.66335 4.13916 0
M  V30 7440 N 710.966 -1.44241 -0.634997 0
M  V30 7441 C 712.243 -1.37296 -1.39317 0
M  V30 7442 C 712.623 -0.0297532 -2.11079 0
M  V30 7443 O 711.971 0.987524 -2.06059 0
M  V30 7444 C 712.181 -2.56853 -2.36279 0
M  V30 7445 C 713.529 -3.00747 -2.99728 0
M  V30 7446 O 714.553 -2.5703 -2.46605 0
M  V30 7447 O 713.412 -3.76533 -3.96087 0
M  V30 7448 H 710.506 -0.543503 -0.623325 0
M  V30 7449 H 713.052 -1.56324 -0.660376 0
M  V30 7450 H 711.824 -3.46228 -1.82324 0
M  V30 7451 H 711.447 -2.40019 -3.16981 0
M  V30 7452 N 712.444 0.87505 -1.31075 0
M  V30 7453 C 713.669 1.66583 -1.23551 0
M  V30 7454 C 714.094 1.87067 0.19686 0
M  V30 7455 O 713.452 1.40877 1.1412 0
M  V30 7456 C 713.5 3.01401 -1.97965 0
M  V30 7457 O 712.604 3.90923 -1.31351 0
M  V30 7458 H 711.945 0.508645 -0.426821 0
M  V30 7459 H 714.475 1.09139 -1.7306 0
M  V30 7460 H 714.485 3.51374 -2.07366 0
M  V30 7461 H 713.16 2.85812 -3.02133 0
M  V30 7462 H 711.737 3.49369 -1.30368 0
M  V30 7463 N 713.922 1.13953 1.08869 0
M  V30 7464 C 715.168 0.906151 1.8143 0
M  V30 7465 C 715.501 -0.566089 1.85766 0
M  V30 7466 O 714.776 -1.41915 1.33006 0
M  V30 7467 C 715.059 1.50183 3.27287 0
M  V30 7468 C 714.912 3.04359 3.31189 0
M  V30 7469 C 716.231 1.17477 4.24131 0
M  V30 7470 H 713.35 0.330624 0.658678 0
M  V30 7471 H 715.992 1.40873 1.27495 0
M  V30 7472 H 714.142 1.07442 3.73348 0
M  V30 7473 H 715.814 3.55896 2.93488 0
M  V30 7474 H 714.057 3.39053 2.70602 0
M  V30 7475 H 714.728 3.41141 4.33966 0
M  V30 7476 H 717.204 1.5442 3.86385 0
M  V30 7477 H 716.08 1.61795 5.24513 0
M  V30 7478 H 716.341 0.0893312 4.4201 0
M  V30 7479 N 715.4 -1.26948 0.933913 0
M  V30 7480 C 716.363 -2.24889 0.442457 0
M  V30 7481 C 717.363 -1.54594 -0.442426 0
M  V30 7482 O 718.553 -1.72502 -0.242629 0
M  V30 7483 C 715.685 -3.3896 -0.363173 0
M  V30 7484 H 716.878 -2.69879 1.30787 0
M  V30 7485 H 714.431 -1.38978 0.715187 0
M  V30 7486 H 715.166 -2.99361 -1.24714 0
M  V30 7487 H 714.951 -3.9116 0.271366 0
M  V30 7488 H 716.441 -4.11739 -0.697186 0
M  V30 7489 N 716.879 -0.700114 -1.41195 0
M  V30 7490 C 717.842 -0.0465706 -2.29153 0
M  V30 7491 C 718.842 0.703302 -1.44604 0
M  V30 7492 O 720.032 0.537513 -1.657 0
M  V30 7493 C 717.164 0.944324 -3.2756 0
M  V30 7494 H 718.357 -0.821064 -2.88442 0
M  V30 7495 H 715.91 -0.463869 -1.49258 0
M  V30 7496 H 716.645 1.74642 -2.73259 0
M  V30 7497 H 716.43 0.409701 -3.89954 0
M  V30 7498 H 717.92 1.39925 -3.9346 0
M  V30 7499 N 718.357 1.51182 -0.445186 0
M  V30 7500 C 719.307 2.24804 0.380394 0
M  V30 7501 C 720.291 1.27344 0.983482 0
M  V30 7502 O 721.483 1.52392 0.900322 0
M  V30 7503 C 718.612 3.09922 1.4766 0
M  V30 7504 C 717.698 4.14816 0.882517 0
M  V30 7505 N 718.089 5.05797 0.0183278 0
M  V30 7506 C 716.387 4.30938 1.14927 0
M  V30 7507 C 717.088 5.8084 -0.316152 0
M  V30 7508 N 716.064 5.42759 0.302214 0
M  V30 7509 H 719.866 2.92508 -0.285737 0
M  V30 7510 H 717.38 1.60342 -0.257733 0
M  V30 7511 H 719.377 3.61249 2.08098 0
M  V30 7512 H 718.037 2.43763 2.14498 0
M  V30 7513 H 719.048 5.16725 -0.348679 0
M  V30 7514 H 715.725 3.76005 1.81457 0
M  V30 7515 H 717.115 6.64115 -1.01986 0
M  V30 7516 N 719.835 0.176821 1.56605 0
M  V30 7517 C 720.765 -0.746841 2.21234 0
M  V30 7518 C 721.746 -1.23502 1.16967 0
M  V30 7519 O 722.931 -1.28718 1.45414 0
M  V30 7520 C 720.061 -1.97407 2.8574 0
M  V30 7521 C 719.015 -1.62153 3.96094 0
M  V30 7522 C 718.341 -2.92387 4.47676 0
M  V30 7523 C 719.641 -0.845353 5.15413 0
M  V30 7524 H 721.335 -0.208116 2.98676 0
M  V30 7525 H 718.881 -0.0986594 1.43662 0
M  V30 7526 H 720.834 -2.62531 3.2963 0
M  V30 7527 H 719.558 -2.53703 2.05676 0
M  V30 7528 H 718.217 -0.993964 3.52868 0
M  V30 7529 H 717.865 -3.46734 3.64396 0
M  V30 7530 H 717.565 -2.69551 5.22127 0
M  V30 7531 H 719.089 -3.5853 4.94255 0
M  V30 7532 H 720.503 -1.39929 5.55961 0
M  V30 7533 H 718.9 -0.715814 5.95815 0
M  V30 7534 H 719.97 0.157239 4.84645 0
M  V30 7535 N 721.313 -1.57302 -0.09688 0
M  V30 7536 C 722.538 -1.9058 -0.818169 0
M  V30 7537 C 722.963 -0.770921 -1.71576 0
M  V30 7538 O 722.321 0.277588 -1.79162 0
M  V30 7539 C 722.369 -3.22714 -1.60898 0
M  V30 7540 O 721.473 -3.10178 -2.71779 0
M  V30 7541 H 720.814 -0.624759 -0.224882 0
M  V30 7542 H 723.344 -2.04471 -0.07264 0
M  V30 7543 H 723.354 -3.55978 -1.99358 0
M  V30 7544 H 722.029 -4.04899 -0.950227 0
M  V30 7545 H 720.606 -2.88424 -2.3636 0
M  V30 7546 N 722.791 0.367657 -1.53252 0
M  V30 7547 C 723.738 1.45028 -1.79543 0
M  V30 7548 C 724.708 1.53288 -0.63969 0
M  V30 7549 O 725.893 1.69209 -0.881653 0
M  V30 7550 C 723.033 2.82 -1.98923 0
M  V30 7551 C 722.146 2.82722 -3.26638 0
M  V30 7552 C 721.281 4.11257 -3.36216 0
M  V30 7553 C 720.32 4.06113 -4.57972 0
M  V30 7554 N 719.457 5.26293 -4.64715 0
M  V30 7555 H 724.297 1.21908 -2.71923 0
M  V30 7556 H 721.834 0.591011 -1.34705 0
M  V30 7557 H 723.792 3.61568 -2.08146 0
M  V30 7558 H 722.422 3.03523 -1.09881 0
M  V30 7559 H 721.474 1.95399 -3.26379 0
M  V30 7560 H 722.786 2.74794 -4.16281 0
M  V30 7561 H 721.94 4.99239 -3.44739 0
M  V30 7562 H 720.679 4.21935 -2.44586 0
M  V30 7563 H 719.684 3.16517 -4.49552 0
M  V30 7564 H 720.909 3.97039 -5.50942 0
M  V30 7565 H 718.855 5.37561 -3.75985 0
M  V30 7566 H 718.772 5.20526 -5.4826 0
M  V30 7567 H 720.04 6.16113 -4.77519 0
M  V30 7568 N 724.269 1.44576 0.627338 0
M  V30 7569 C 725.518 1.46837 1.38281 0
M  V30 7570 C 725.831 0.10635 1.95311 0
M  V30 7571 O 727.037 0.00651084 2.71499 0
M  V30 7572 C 725.493 2.58527 2.50384 0
M  V30 7573 C 725.101 4.00953 1.99851 0
M  V30 7574 C 726.845 2.70013 3.27557 0
M  V30 7575 C 724.752 5.0406 3.09318 0
M  V30 7576 H 723.682 0.546319 0.519664 0
M  V30 7577 H 726.333 1.70654 0.674497 0
M  V30 7578 H 724.715 2.27957 3.23808 0
M  V30 7579 H 725.889 4.41108 1.33267 0
M  V30 7580 H 724.204 3.93743 1.35482 0
M  V30 7581 H 726.801 3.44217 4.09168 0
M  V30 7582 H 727.144 1.75961 3.77284 0
M  V30 7583 H 727.677 3.00011 2.61224 0
M  V30 7584 H 724.416 5.99753 2.6453 0
M  V30 7585 H 723.936 4.68493 3.74532 0
M  V30 7586 H 725.615 5.2793 3.74031 0
M  V30 7587 N 725.747 -0.868086 1.31537 0
M  V30 7588 C 726.677 -1.99131 1.21939 0
M  V30 7589 C 727.658 -1.69768 0.106166 0
M  V30 7590 O 728.843 -1.92006 0.291081 0
M  V30 7591 C 725.973 -3.34676 0.927879 0
M  V30 7592 C 724.927 -3.7835 2.00088 0
M  V30 7593 C 724.253 -5.11375 1.56203 0
M  V30 7594 C 725.553 -3.95256 3.41424 0
M  V30 7595 H 727.247 -2.07419 2.15911 0
M  V30 7596 H 724.793 -0.996569 1.03945 0
M  V30 7597 H 726.746 -4.12793 0.847327 0
M  V30 7598 H 725.47 -3.26565 -0.0475042 0
M  V30 7599 H 724.129 -3.02474 2.07135 0
M  V30 7600 H 723.777 -4.99709 0.57445 0
M  V30 7601 H 723.477 -5.41568 2.27985 0
M  V30 7602 H 725.001 -5.92001 1.49558 0
M  V30 7603 H 726.415 -4.63764 3.3704 0
M  V30 7604 H 724.812 -4.36849 4.1144 0
M  V30 7605 H 725.882 -2.98579 3.82072 0
M  V30 7606 N 727.225 -1.14528 -1.08264 0
M  V30 7607 C 728.453 -0.937964 -1.84418 0
M  V30 7608 C 728.868 0.51357 -1.81681 0
M  V30 7609 O 728.225 1.35591 -1.22153 0
M  V30 7610 C 728.276 -1.43272 -3.31897 0
M  V30 7611 O 727.997 -2.82738 -3.34651 0
M  V30 7612 C 729.498 -1.26555 -4.24851 0
M  V30 7613 H 726.718 -0.333704 -0.582136 0
M  V30 7614 H 729.262 -1.52076 -1.36723 0
M  V30 7615 H 727.417 -0.892653 -3.76975 0
M  V30 7616 H 727.831 -3.04971 -4.26724 0
M  V30 7617 H 729.305 -1.66031 -5.26439 0
M  V30 7618 H 729.782 -0.208589 -4.38704 0
M  V30 7619 H 730.388 -1.79423 -3.856 0
M  V30 7620 N 728.703 1.26451 -0.940633 0
M  V30 7621 C 729.928 1.98407 -0.60412 0
M  V30 7622 C 730.353 1.69584 0.81382 0
M  V30 7623 O 729.711 0.943553 1.54812 0
M  V30 7624 C 729.759 3.50387 -0.852136 0
M  V30 7625 O 728.863 4.1233 0.076013 0
M  V30 7626 H 728.204 0.622466 -0.231153 0
M  V30 7627 H 730.734 1.60932 -1.26342 0
M  V30 7628 H 730.744 4.00614 -0.772816 0
M  V30 7629 H 729.419 3.70696 -1.88566 0
M  V30 7630 H 727.996 3.7286 -0.0543187 0
M  V30 7631 N 730.181 0.707592 1.40822 0
M  V30 7632 C 731.458 0.171172 1.9485 0
M  V30 7633 C 731.838 -1.32143 1.64625 0
M  V30 7634 O 731.186 -2.07372 0.959647 0
M  V30 7635 C 731.396 0.475334 3.45748 0
M  V30 7636 C 732.744 0.409625 4.22619 0
M  V30 7637 O 733.768 0.410934 3.53822 0
M  V30 7638 O 732.627 0.380185 5.45176 0
M  V30 7639 H 729.721 0.022015 0.826707 0
M  V30 7640 H 732.267 0.784577 1.50474 0
M  V30 7641 H 731.039 1.50801 3.61075 0
M  V30 7642 H 730.662 -0.168439 3.97243 0
M  V30 7643 N 731.66 -1.50943 0.453197 0
M  V30 7644 C 732.592 -2.25922 -0.38623 0
M  V30 7645 C 733.605 -1.3055 -0.972652 0
M  V30 7646 O 734.794 -1.56191 -0.864097 0
M  V30 7647 C 731.894 -3.01176 -1.5539 0
M  V30 7648 C 731.067 -4.23768 -1.0835 0
M  V30 7649 C 730.126 -4.81466 -2.12313 0
M  V30 7650 O 729.152 -5.42875 -1.71101 0
M  V30 7651 N 730.354 -4.66889 -3.44956 0
M  V30 7652 H 733.119 -2.98601 0.256468 0
M  V30 7653 H 730.68 -1.59408 0.282965 0
M  V30 7654 H 732.672 -3.36659 -2.24594 0
M  V30 7655 H 731.242 -2.31409 -2.10163 0
M  V30 7656 H 730.462 -3.93597 -0.217961 0
M  V30 7657 H 731.75 -5.03289 -0.746857 0
M  V30 7658 H 731.148 -4.18011 -3.81161 0
M  V30 7659 H 729.705 -5.06691 -4.1001 0
M  V30 7660 N 733.138 -0.185124 -1.56509 0
M  V30 7661 C 734.088 0.752315 -2.15231 0
M  V30 7662 C 735.072 1.18327 -1.0903 0
M  V30 7663 O 736.264 1.14333 -1.35119 0
M  V30 7664 C 733.393 1.97583 -2.80742 0
M  V30 7665 C 732.479 1.56623 -3.94119 0
M  V30 7666 N 732.87 0.867008 -4.98314 0
M  V30 7667 C 731.168 1.85626 -4.05535 0
M  V30 7668 C 731.869 0.663228 -5.77907 0
M  V30 7669 N 730.845 1.20891 -5.29987 0
M  V30 7670 H 734.647 0.209267 -2.93154 0
M  V30 7671 H 732.161 0.0150444 -1.62393 0
M  V30 7672 H 734.158 2.65779 -3.21197 0
M  V30 7673 H 732.818 2.52369 -2.04303 0
M  V30 7674 H 733.829 0.52355 -5.15247 0
M  V30 7675 H 730.506 2.41992 -3.40215 0
M  V30 7676 H 731.896 0.109273 -6.71811 0
M  V30 7677 N 734.616 1.57351 0.0885366 0
M  V30 7678 C 735.841 1.91011 0.80805 0
M  V30 7679 C 736.266 0.780009 1.71165 0
M  V30 7680 O 735.624 -0.268083 1.79307 0
M  V30 7681 C 735.672 3.23562 1.59185 0
M  V30 7682 O 734.776 3.11615 2.7013 0
M  V30 7683 H 734.117 0.625943 0.221565 0
M  V30 7684 H 736.647 2.04507 0.0617954 0
M  V30 7685 H 736.657 3.5703 1.97468 0
M  V30 7686 H 735.332 4.05398 0.928741 0
M  V30 7687 H 733.909 2.89673 2.34827 0
M  V30 7688 N 736.094 -0.359525 1.53444 0
M  V30 7689 C 737.34 -1.10315 1.70172 0
M  V30 7690 C 737.673 -1.88788 0.455287 0
M  V30 7691 O 736.948 -1.86635 -0.547514 0
M  V30 7692 C 737.231 -2.05744 2.95536 0
M  V30 7693 C 737.084 -1.3084 4.3035 0
M  V30 7694 C 738.403 -3.05784 3.16518 0
M  V30 7695 H 735.522 -0.399662 0.619225 0
M  V30 7696 H 738.164 -0.383338 1.86093 0
M  V30 7697 H 736.314 -2.67125 2.82093 0
M  V30 7698 H 737.986 -0.721959 4.55615 0
M  V30 7699 H 736.229 -0.610283 4.29486 0
M  V30 7700 H 736.9 -2.00718 5.14214 0
M  V30 7701 H 739.376 -2.5451 3.29187 0
M  V30 7702 H 738.252 -3.69772 4.05659 0
M  V30 7703 H 738.513 -3.76289 2.32076 0
M  V30 7704 N 737.572 -1.44907 -0.619662 0
M  V30 7705 C 738.818 -1.48512 -1.38102 0
M  V30 7706 C 739.151 -0.121686 -1.93818 0
M  V30 7707 O 738.426 0.862256 -1.74343 0
M  V30 7708 C 738.709 -2.55469 -2.53787 0
M  V30 7709 C 738.562 -4.01212 -2.03345 0
M  V30 7710 C 739.881 -2.58821 -3.55949 0
M  V30 7711 H 737 -0.540712 -0.500799 0
M  V30 7712 H 739.642 -1.7665 -0.69962 0
M  V30 7713 H 737.792 -2.31606 -3.11915 0
M  V30 7714 H 739.464 -4.36245 -1.49959 0
M  V30 7715 H 737.707 -4.12443 -1.34438 0
M  V30 7716 H 738.378 -4.71717 -2.86683 0
M  V30 7717 H 740.854 -2.80172 -3.07641 0
M  V30 7718 H 739.73 -3.35542 -4.34399 0
M  V30 7719 H 739.991 -1.63451 -4.10775 0
M  V30 7720 N 739.05 0.861098 -1.31996 0
M  V30 7721 C 740.299 1.60965 -1.21545 0
M  V30 7722 C 740.612 1.94325 0.222972 0
M  V30 7723 O 741.818 2.67757 0.449272 0
M  V30 7724 C 740.274 2.90223 -2.12834 0
M  V30 7725 C 739.882 2.64313 -3.61722 0
M  V30 7726 C 741.626 3.68229 -2.11205 0
M  V30 7727 C 739.533 3.89532 -4.44993 0
M  V30 7728 H 738.463 0.603988 -0.451348 0
M  V30 7729 H 741.114 0.951358 -1.56912 0
M  V30 7730 H 739.496 3.57475 -1.70375 0
M  V30 7731 H 740.67 2.05413 -4.12483 0
M  V30 7732 H 738.985 1.99647 -3.65418 0
M  V30 7733 H 741.582 4.61138 -2.70658 0
M  V30 7734 H 741.925 4.01466 -1.1014 0
M  V30 7735 H 742.458 3.07873 -2.51911 0
M  V30 7736 H 739.197 3.61441 -5.46846 0
M  V30 7737 H 738.717 4.47851 -3.98985 0
M  V30 7738 H 740.396 4.57334 -4.57663 0
M  V30 7739 N 740.528 1.15101 1.07655 0
M  V30 7740 C 741.753 0.948177 1.84457 0
M  V30 7741 C 742.178 -0.498432 1.81376 0
M  V30 7742 O 741.536 -1.35509 1.20445 0
M  V30 7743 C 741.584 1.46318 3.29581 0
M  V30 7744 O 740.688 0.660342 4.07079 0
M  V30 7745 H 740.029 0.338428 0.571281 0
M  V30 7746 H 742.559 1.5301 1.35828 0
M  V30 7747 H 742.569 1.47468 3.80417 0
M  V30 7748 H 741.244 2.51635 3.31138 0
M  V30 7749 H 739.821 0.718216 3.65918 0
M  V30 7750 N 742.006 -1.2595 0.947325 0
M  V30 7751 C 743.231 -1.98083 0.614633 0
M  V30 7752 C 743.656 -1.70013 -0.804815 0
M  V30 7753 O 743.014 -0.95175 -1.54309 0
M  V30 7754 C 743.062 -3.4993 0.870706 0
M  V30 7755 O 742.166 -4.12364 -0.0541451 0
M  V30 7756 H 741.507 -0.621232 0.234451 0
M  V30 7757 H 744.037 -1.60259 1.27193 0
M  V30 7758 H 744.047 -4.00198 0.794051 0
M  V30 7759 H 742.722 -3.69691 1.90529 0
M  V30 7760 H 741.299 -3.72826 0.0740917 0
M  V30 7761 N 743.484 -0.715051 -1.40445 0
M  V30 7762 C 744.447 -0.0708726 -2.2909 0
M  V30 7763 C 745.447 0.687926 -1.45342 0
M  V30 7764 O 746.637 0.519908 -1.66261 0
M  V30 7765 C 743.769 0.909528 -3.28543 0
M  V30 7766 H 744.962 -0.851611 -2.87555 0
M  V30 7767 H 742.515 -0.479674 -1.48758 0
M  V30 7768 H 743.25 1.71734 -2.75096 0
M  V30 7769 H 743.035 0.368318 -3.90366 0
M  V30 7770 H 744.525 1.35744 -3.94922 0
M  V30 7771 N 744.962 1.50701 -0.461195 0
M  V30 7772 C 745.909 2.2831 0.338094 0
M  V30 7773 C 746.879 1.32928 0.995957 0
M  V30 7774 O 748.064 1.61857 1.0103 0
M  V30 7775 C 745.204 3.14539 1.41983 0
M  V30 7776 C 744.317 4.24942 0.77773 0
M  V30 7777 C 743.452 4.98443 1.83652 0
M  V30 7778 C 742.491 6.00733 1.17413 0
M  V30 7779 N 741.628 6.6755 2.17533 0
M  V30 7780 H 746.468 2.96167 -0.330051 0
M  V30 7781 H 744.005 1.4606 -0.174611 0
M  V30 7782 H 745.963 3.62877 2.05855 0
M  V30 7783 H 744.593 2.48749 2.05727 0
M  V30 7784 H 743.645 3.80391 0.0266924 0
M  V30 7785 H 744.957 4.98151 0.254362 0
M  V30 7786 H 744.111 5.50449 2.55129 0
M  V30 7787 H 742.85 4.24917 2.39367 0
M  V30 7788 H 741.855 5.47997 0.444944 0
M  V30 7789 H 743.08 6.76227 0.624006 0
M  V30 7790 H 741.026 5.96823 2.72284 0
M  V30 7791 H 740.943 7.36603 1.70154 0
M  V30 7792 H 742.211 7.24178 2.88421 0
M  V30 7793 N 746.441 0.193421 1.56409 0
M  V30 7794 C 747.687 -0.446449 1.97825 0
M  V30 7795 C 748.02 -1.61386 1.08019 0
M  V30 7796 O 747.295 -1.94053 0.131839 0
M  V30 7797 C 747.578 -0.908199 3.48459 0
M  V30 7798 C 747.431 0.260914 4.49043 0
M  V30 7799 C 748.75 -1.77428 4.0275 0
M  V30 7800 H 745.869 -0.160807 0.719243 0
M  V30 7801 H 748.511 0.284006 1.87865 0
M  V30 7802 H 746.661 -1.53062 3.57077 0
M  V30 7803 H 748.333 0.898548 4.52464 0
M  V30 7804 H 746.576 0.912949 4.24085 0
M  V30 7805 H 747.247 -0.104657 5.51901 0
M  V30 7806 H 749.723 -1.24936 3.96901 0
M  V30 7807 H 748.599 -2.06633 5.08521 0
M  V30 7808 H 748.86 -2.72788 3.47907 0
M  V30 7809 N 747.919 -1.57396 -0.0801906 0
M  V30 7810 C 748.849 -2.06145 -1.09665 0
M  V30 7811 C 749.83 -0.953273 -1.40878 0
M  V30 7812 O 751.015 -1.22548 -1.50651 0
M  V30 7813 C 748.145 -2.49836 -2.41245 0
M  V30 7814 C 747.099 -3.64454 -2.24405 0
M  V30 7815 C 746.425 -3.94172 -3.61293 0
M  V30 7816 C 747.725 -4.94807 -1.67223 0
M  V30 7817 H 749.419 -2.91316 -0.691028 0
M  V30 7818 H 746.965 -1.40145 -0.330957 0
M  V30 7819 H 748.918 -2.82552 -3.12638 0
M  V30 7820 H 747.642 -1.61683 -2.83771 0
M  V30 7821 H 746.301 -3.32008 -1.55454 0
M  V30 7822 H 745.949 -3.03163 -4.01374 0
M  V30 7823 H 745.649 -4.71345 -3.50867 0
M  V30 7824 H 747.173 -4.29376 -4.3413 0
M  V30 7825 H 748.587 -5.25807 -2.28472 0
M  V30 7826 H 746.984 -5.76245 -1.67515 0
M  V30 7827 H 748.054 -4.80751 -0.632944 0
M  V30 7828 N 749.397 0.351382 -1.53633 0
M  V30 7829 C 750.637 1.10102 -1.72212 0
M  V30 7830 C 751.001 1.86128 -0.471198 0
M  V30 7831 O 752.202 2.63445 -0.533887 0
M  V30 7832 C 750.473 2.02348 -2.94602 0
M  V30 7833 S 752.032 2.84641 -3.33954 0
M  V30 7834 H 748.85 0.372145 -0.60583 0
M  V30 7835 H 751.452 0.38044 -1.91763 0
M  V30 7836 H 750.156 1.45283 -3.83824 0
M  V30 7837 H 749.687 2.78856 -2.77493 0
M  V30 7838 H 751.702 4.04724 -2.87076 0
M  V30 7839 N 750.875 1.45233 0.611969 0
M  V30 7840 C 751.785 1.56098 1.7513 0
M  V30 7841 C 752.801 0.445646 1.68196 0
M  V30 7842 O 753.977 0.705718 1.88631 0
M  V30 7843 C 751.042 1.52052 3.11579 0
M  V30 7844 C 750.103 2.74589 3.29999 0
M  V30 7845 C 749.336 2.70726 4.59938 0
M  V30 7846 O 749.559 1.77806 5.41979 0
M  V30 7847 O 748.493 3.61864 4.80976 0
M  V30 7848 H 752.319 2.52392 1.68914 0
M  V30 7849 H 749.904 1.27695 0.775528 0
M  V30 7850 H 751.786 1.52387 3.92882 0
M  V30 7851 H 750.461 0.589085 3.18295 0
M  V30 7852 H 749.368 2.79817 2.48301 0
M  V30 7853 H 750.701 3.66843 3.28157 0
M  V30 7854 N 752.353 -0.854086 1.3245 0
M  V30 7855 C 753.581 -1.64074 1.26045 0
M  V30 7856 C 753.996 -1.8802 -0.171456 0
M  V30 7857 O 753.353 -1.4496 -1.10873 0
M  V30 7858 C 753.404 -2.9997 2.01743 0
M  V30 7859 O 753.125 -2.77084 3.39346 0
M  V30 7860 C 754.626 -3.94414 2.02368 0
M  V30 7861 H 751.846 -0.511015 0.434862 0
M  V30 7862 H 754.39 -1.06494 1.74583 0
M  V30 7863 H 752.545 -3.54193 1.56926 0
M  V30 7864 H 752.959 -3.63514 3.78098 0
M  V30 7865 H 754.433 -4.87032 2.59815 0
M  V30 7866 H 754.91 -4.27427 1.01009 0
M  V30 7867 H 755.516 -3.46127 2.47135 0
M  V30 7868 N 753.831 -1.1567 -1.07043 0
M  V30 7869 C 755.077 -0.9349 -1.79965 0
M  V30 7870 C 755.41 0.536464 -1.86643 0
M  V30 7871 O 754.685 1.39781 -1.35247 0
M  V30 7872 C 754.968 -1.55371 -3.24857 0
M  V30 7873 C 754.821 -3.09589 -3.26305 0
M  V30 7874 C 756.14 -1.24209 -4.22209 0
M  V30 7875 H 753.259 -0.341061 -0.653335 0
M  V30 7876 H 755.901 -1.42883 -1.25237 0
M  V30 7877 H 754.051 -1.13368 -3.71591 0
M  V30 7878 H 755.723 -3.60521 -2.87789 0
M  V30 7879 H 753.966 -3.43315 -2.65174 0
M  V30 7880 H 754.637 -3.48002 -4.28484 0
M  V30 7881 H 757.113 -1.60548 -3.8388 0
M  V30 7882 H 755.989 -1.70119 -5.21872 0
M  V30 7883 H 756.25 -0.15964 -4.41812 0
M  V30 7884 N 755.309 1.25446 -0.953992 0
M  V30 7885 C 756.256 2.25912 -0.472485 0
M  V30 7886 C 757.226 1.59173 0.47469 0
M  V30 7887 O 758.411 1.86812 0.388082 0
M  V30 7888 C 755.551 3.44235 0.244218 0
M  V30 7889 C 754.664 4.25613 -0.740121 0
M  V30 7890 C 753.799 5.312 -0.000922267 0
M  V30 7891 C 752.838 6.04265 -0.976236 0
M  V30 7892 N 751.975 7.01589 -0.267952 0
M  V30 7893 H 756.815 2.66469 -1.3341 0
M  V30 7894 H 754.352 1.31005 -0.669045 0
M  V30 7895 H 756.31 4.11682 0.676314 0
M  V30 7896 H 754.94 3.04554 1.06988 0
M  V30 7897 H 753.992 3.57834 -1.2907 0
M  V30 7898 H 755.304 4.762 -1.48441 0
M  V30 7899 H 754.458 6.04719 0.48984 0
M  V30 7900 H 753.197 4.81484 0.776159 0
M  V30 7901 H 752.202 5.29561 -1.478 0
M  V30 7902 H 753.427 6.5607 -1.75354 0
M  V30 7903 H 751.373 6.54164 0.490403 0
M  V30 7904 H 751.29 7.4999 -0.951344 0
M  V30 7905 H 752.558 7.7924 0.201294 0
M  V30 7906 N 756.787 0.722489 1.40064 0
M  V30 7907 C 758.064 0.191829 1.94657 0
M  V30 7908 C 758.444 -1.30389 1.66018 0
M  V30 7909 O 757.792 -2.06342 0.981588 0
M  V30 7910 C 758.002 0.511978 3.45224 0
M  V30 7911 C 759.35 0.454426 4.22161 0
M  V30 7912 O 760.374 0.448438 3.53366 0
M  V30 7913 O 759.233 0.437986 5.44742 0
M  V30 7914 H 756.327 0.0307821 0.826427 0
M  V30 7915 H 758.873 0.800493 1.49634 0
M  V30 7916 H 757.645 1.54622 3.59455 0
M  V30 7917 H 757.268 -0.126296 3.97399 0
M  V30 7918 N 758.265 -1.50454 0.469181 0
M  V30 7919 C 759.512 -2.02315 -0.086469 0
M  V30 7920 C 759.84 -1.3513 -1.39893 0
M  V30 7921 O 759.095 -0.465341 -1.90087 0
M  V30 7922 C 759.394 -3.55963 -0.320207 0
M  V30 7923 C 759.06 -4.41615 0.910318 0
M  V30 7924 C 757.722 -4.64743 1.2477 0
M  V30 7925 C 760.074 -4.91661 1.72971 0
M  V30 7926 C 757.402 -5.35161 2.40457 0
M  V30 7927 C 759.754 -5.6335 2.87785 0
M  V30 7928 C 758.418 -5.84732 3.2194 0
M  V30 7929 H 757.688 -0.740324 -0.0316412 0
M  V30 7930 H 760.335 -1.81087 0.622872 0
M  V30 7931 H 758.64 -3.75695 -1.11177 0
M  V30 7932 H 760.337 -3.93653 -0.764071 0
M  V30 7933 H 756.927 -4.23833 0.637467 0
M  V30 7934 H 761.111 -4.73649 1.48224 0
M  V30 7935 H 756.367 -5.49924 2.67196 0
M  V30 7936 H 760.541 -6.0111 3.51624 0
M  V30 7937 H 758.168 -6.39074 4.1169 0
M  V30 7938 N 759.743 -0.201713 -1.56304 0
M  V30 7939 C 760.989 0.435952 -1.98059 0
M  V30 7940 C 761.322 1.60811 -1.08873 0
M  V30 7941 O 760.597 1.9398 -0.142128 0
M  V30 7942 C 760.88 0.889706 -3.48936 0
M  V30 7943 C 760.733 -0.284725 -4.48898 0
M  V30 7944 C 762.052 1.7529 -4.03685 0
M  V30 7945 H 759.171 0.15699 -0.720085 0
M  V30 7946 H 761.813 -0.293965 -1.87712 0
M  V30 7947 H 759.963 1.51166 -3.57884 0
M  V30 7948 H 761.635 -0.922531 -4.51981 0
M  V30 7949 H 759.878 -0.935427 -4.23594 0
M  V30 7950 H 760.549 0.0753865 -5.51949 0
M  V30 7951 H 763.025 1.2283 -3.97558 0
M  V30 7952 H 761.901 2.03933 -5.0961 0
M  V30 7953 H 762.162 2.70939 -3.49348 0
M  V30 7954 N 761.222 1.57436 0.0718424 0
M  V30 7955 C 762.185 2.02703 1.06977 0
M  V30 7956 C 763.185 0.924062 1.31597 0
M  V30 7957 O 764.375 1.18894 1.27318 0
M  V30 7958 C 761.507 2.40763 2.41342 0
M  V30 7959 H 762.7 2.92098 0.679619 0
M  V30 7960 H 760.253 1.5304 0.317565 0
M  V30 7961 H 760.988 1.54394 2.8519 0
M  V30 7962 H 760.773 3.21249 2.24814 0
M  V30 7963 H 762.263 2.76361 3.13073 0
M  V30 7964 N 762.7 -0.34323 1.53817 0
M  V30 7965 C 764.116 -0.686355 1.44088 0
M  V30 7966 C 764.316 -1.92426 0.597882 0
M  V30 7967 O 763.372 -2.52343 0.0889918 0
M  V30 7968 C 764.685 -0.878698 2.87575 0
M  V30 7969 C 766.233 -0.977296 2.97352 0
M  V30 7970 C 766.708 -1.20195 4.41947 0
M  V30 7971 N 768.199 -1.26915 4.45474 0
M  V30 7972 C 768.934 -1.46049 5.54488 0
M  V30 7973 N 768.43 -1.62354 6.73508 0
M  V30 7974 N 770.223 -1.48599 5.42102 0
M  V30 7975 H 762.374 0.470679 2.07119 0
M  V30 7976 H 764.637 0.148652 0.936273 0
M  V30 7977 H 764.343 -0.040602 3.51677 0
M  V30 7978 H 764.217 -1.78034 3.32541 0
M  V30 7979 H 766.604 -1.80591 2.3339 0
M  V30 7980 H 766.685 -0.0525498 2.55746 0
M  V30 7981 H 766.329 -0.378262 5.06489 0
M  V30 7982 H 766.259 -2.14027 4.81145 0
M  V30 7983 H 768.75 -1.15837 3.59708 0
M  V30 7984 H 769.063 -1.76591 7.52353 0
M  V30 7985 H 767.408 -1.5949 6.76453 0
M  V30 7986 H 770.599 -1.35443 4.48077 0
M  V30 7987 H 770.772 -1.6317 6.2712 0
M  V30 7988 N 764.178 -1.45556 -0.604258 0
M  V30 7989 C 765.424 -1.49968 -1.36519 0
M  V30 7990 C 765.757 -0.142236 -1.93678 0
M  V30 7991 O 765.032 0.843717 -1.75247 0
M  V30 7992 C 765.315 -2.58146 -2.51063 0
M  V30 7993 C 765.168 -4.03346 -1.99078 0
M  V30 7994 C 766.487 -2.62581 -3.53184 0
M  V30 7995 H 763.606 -0.545993 -0.495036 0
M  V30 7996 H 766.248 -1.77382 -0.680845 0
M  V30 7997 H 764.398 -2.34901 -3.09441 0
M  V30 7998 H 766.07 -4.37811 -1.45323 0
M  V30 7999 H 764.313 -4.13845 -1.30055 0
M  V30 8000 H 764.984 -4.74731 -2.81664 0
M  V30 8001 H 767.46 -2.83419 -3.04652 0
M  V30 8002 H 766.336 -3.40131 -4.30816 0
M  V30 8003 H 766.597 -1.67798 -4.09019 0
M  V30 8004 N 765.656 0.84705 -1.32902 0
M  V30 8005 C 766.904 1.5986 -1.2365 0
M  V30 8006 C 767.225 1.93974 0.199789 0
M  V30 8007 O 766.495 1.60273 1.12648 0
M  V30 8008 H 765.075 0.592696 -0.454665 0
M  V30 8009 H 767.737 1.01278 -1.66519 0
M  V30 8010 H 766.833 2.53218 -1.82448 0
M  V30 8011 N 767.134 1.16236 1.06428 0
M  V30 8012 C 768.081 0.86769 2.13869 0
M  V30 8013 C 769.051 -0.183298 1.65086 0
M  V30 8014 O 770.236 -0.0488002 1.90738 0
M  V30 8015 C 767.376 0.373427 3.43074 0
M  V30 8016 C 766.489 1.48708 4.05598 0
M  V30 8017 C 765.624 0.947977 5.22673 0
M  V30 8018 C 764.663 2.03793 5.77178 0
M  V30 8019 N 763.8 1.51451 6.85571 0
M  V30 8020 H 768.64 1.78781 2.38414 0
M  V30 8021 H 766.177 0.891892 1.16977 0
M  V30 8022 H 768.135 0.0685035 4.17144 0
M  V30 8023 H 766.765 -0.509752 3.1875 0
M  V30 8024 H 765.817 1.908 3.29089 0
M  V30 8025 H 767.129 2.30964 4.42105 0
M  V30 8026 H 766.283 0.596154 6.03764 0
M  V30 8027 H 765.022 0.0947081 4.87608 0
M  V30 8028 H 764.027 2.39847 4.94726 0
M  V30 8029 H 765.252 2.89514 6.14295 0
M  V30 8030 H 763.198 0.683755 6.52427 0
M  V30 8031 H 763.115 2.27325 7.21013 0
M  V30 8032 H 764.383 1.19123 7.70344 0
M  V30 8033 N 768.612 -1.24939 0.960631 0
M  V30 8034 C 769.575 -2.239 0.49006 0
M  V30 8035 C 770.575 -1.55497 -0.409535 0
M  V30 8036 O 771.765 -1.72978 -0.205984 0
M  V30 8037 C 768.897 -3.39654 -0.291193 0
M  V30 8038 H 770.09 -2.67044 1.36482 0
M  V30 8039 H 767.643 -1.37429 0.744505 0
M  V30 8040 H 768.378 -3.01939 -1.18336 0
M  V30 8041 H 768.163 -3.90496 0.354276 0
M  V30 8042 H 769.653 -4.13125 -0.609693 0
M  V30 8043 N 770.09 -0.729906 -1.39679 0
M  V30 8044 C 771.32 -0.285295 -2.04621 0
M  V30 8045 C 771.728 1.08304 -1.55135 0
M  V30 8046 O 771.071 1.6946 -0.709146 0
M  V30 8047 C 771.133 -0.203129 -3.58926 0
M  V30 8048 C 770.797 -1.50909 -4.31365 0
M  V30 8049 C 771.794 -2.45381 -4.58349 0
M  V30 8050 C 769.479 -1.77198 -4.70007 0
M  V30 8051 C 771.473 -3.64379 -5.22979 0
M  V30 8052 C 769.16 -2.96474 -5.34365 0
M  V30 8053 C 770.158 -3.89886 -5.60783 0
M  V30 8054 O 769.846 -5.07069 -6.23808 0
M  V30 8055 H 769.578 -0.123373 -0.664647 0
M  V30 8056 H 772.132 -0.992901 -1.79807 0
M  V30 8057 H 770.362 0.560538 -3.82616 0
M  V30 8058 H 772.051 0.208811 -4.05363 0
M  V30 8059 H 772.817 -2.2634 -4.28947 0
M  V30 8060 H 768.696 -1.05337 -4.48804 0
M  V30 8061 H 772.24 -4.37307 -5.43515 0
M  V30 8062 H 768.137 -3.15419 -5.63188 0
M  V30 8063 H 768.905 -5.07335 -6.42303 0
M  V30 8064 N 771.568 1.50203 -0.477153 0
M  V30 8065 C 772.478 2.32421 0.319027 0
M  V30 8066 C 773.494 1.43075 0.990233 0
M  V30 8067 O 774.67 1.76123 0.976873 0
M  V30 8068 C 771.735 3.17909 1.38328 0
M  V30 8069 C 770.796 4.23082 0.728036 0
M  V30 8070 C 770.029 5.04484 1.74158 0
M  V30 8071 O 770.252 4.8705 2.96881 0
M  V30 8072 O 769.186 5.8747 1.31006 0
M  V30 8073 H 773.012 3.01638 -0.353281 0
M  V30 8074 H 770.597 1.47478 -0.238891 0
M  V30 8075 H 772.479 3.70937 1.9996 0
M  V30 8076 H 771.154 2.51413 2.03895 0
M  V30 8077 H 770.061 3.7403 0.07261 0
M  V30 8078 H 771.394 4.92065 0.115216 0
M  V30 8079 N 773.046 0.209999 1.56195 0
M  V30 8080 C 773.993 -0.704854 2.19774 0
M  V30 8081 C 774.963 -1.19886 1.14964 0
M  V30 8082 O 776.148 -1.26005 1.43274 0
M  V30 8083 C 773.288 -1.91241 2.87265 0
M  V30 8084 C 772.401 -1.45838 4.06639 0
M  V30 8085 C 771.536 -2.6226 4.61945 0
M  V30 8086 C 770.575 -2.13537 5.73645 0
M  V30 8087 N 769.712 -3.2319 6.23292 0
M  V30 8088 H 774.552 -0.155944 2.97592 0
M  V30 8089 H 772.089 -0.0652235 1.46955 0
M  V30 8090 H 774.047 -2.62123 3.24573 0
M  V30 8091 H 772.677 -2.43439 2.11985 0
M  V30 8092 H 771.729 -0.644897 3.74894 0
M  V30 8093 H 773.041 -1.06103 4.87384 0
M  V30 8094 H 772.195 -3.41243 5.01636 0
M  V30 8095 H 770.934 -3.05278 3.80338 0
M  V30 8096 H 769.939 -1.33013 5.33468 0
M  V30 8097 H 771.164 -1.71533 6.57079 0
M  V30 8098 H 769.11 -3.65711 5.44602 0
M  V30 8099 H 769.027 -2.8767 6.99129 0
M  V30 8100 H 770.295 -4.02342 6.67639 0
M  V30 8101 N 774.524 -1.57472 -0.0634922 0
M  V30 8102 C 775.752 -1.91887 -0.773767 0
M  V30 8103 C 776.167 -0.806733 -1.70696 0
M  V30 8104 O 775.524 0.219383 -1.81177 0
M  V30 8105 C 775.575 -3.26092 -1.56034 0
M  V30 8106 O 775.296 -4.33029 -0.66464 0
M  V30 8107 C 776.797 -3.74573 -2.37087 0
M  V30 8108 H 774.017 -0.634074 -0.219525 0
M  V30 8109 H 776.561 -2.04476 -0.0312828 0
M  V30 8110 H 774.716 -3.15004 -2.25502 0
M  V30 8111 H 775.13 -5.10291 -1.21258 0
M  V30 8112 H 776.604 -4.71084 -2.87722 0
M  V30 8113 H 777.081 -3.04003 -3.16984 0
M  V30 8114 H 777.687 -3.88631 -1.72759 0
M  V30 8115 N 776.003 0.335068 -1.53997 0
M  V30 8116 C 777.231 1.09418 -1.756 0
M  V30 8117 C 777.646 1.82083 -0.499138 0
M  V30 8118 O 777.003 1.74646 0.529631 0
M  V30 8119 C 777.054 2.10115 -2.94166 0
M  V30 8120 O 776.775 1.40404 -4.14992 0
M  V30 8121 C 778.276 2.98336 -3.27888 0
M  V30 8122 H 775.496 0.32595 -0.586513 0
M  V30 8123 H 778.04 0.384693 -2.00849 0
M  V30 8124 H 776.195 2.76616 -2.71224 0
M  V30 8125 H 776.609 2.07743 -4.81605 0
M  V30 8126 H 778.083 3.6491 -4.1418 0
M  V30 8127 H 778.56 3.64814 -2.44556 0
M  V30 8128 H 779.166 2.37412 -3.52868 0
M  V30 8129 N 777.481 1.45874 0.596531 0
M  V30 8130 C 778.391 1.57947 1.73464 0
M  V30 8131 C 779.407 0.463461 1.67714 0
M  V30 8132 O 780.583 0.725685 1.87872 0
M  V30 8133 C 777.648 1.55348 3.09948 0
M  V30 8134 C 776.709 2.78074 3.27068 0
M  V30 8135 C 775.942 2.75589 4.57041 0
M  V30 8136 O 776.165 1.83545 5.40063 0
M  V30 8137 O 775.099 3.66945 4.77111 0
M  V30 8138 H 778.925 2.54169 1.66228 0
M  V30 8139 H 776.51 1.2851 0.76194 0
M  V30 8140 H 778.392 1.56545 3.91244 0
M  V30 8141 H 777.067 0.622811 3.17652 0
M  V30 8142 H 775.974 2.82435 2.45319 0
M  V30 8143 H 777.307 3.70303 3.24248 0
M  V30 8144 N 778.959 -0.83999 1.33349 0
M  V30 8145 C 780.184 -1.63249 1.27924 0
M  V30 8146 C 780.609 -1.87523 -0.147193 0
M  V30 8147 O 779.967 -1.43853 -1.10345 0
M  V30 8148 C 780.015 -2.96046 2.05886 0
M  V30 8149 O 779.119 -3.87303 1.4167 0
M  V30 8150 H 778.46 -0.49715 0.440157 0
M  V30 8151 H 780.99 -1.04512 1.75893 0
M  V30 8152 H 781 -3.45752 2.16609 0
M  V30 8153 H 779.675 -2.77701 3.09605 0
M  V30 8154 H 778.252 -3.45789 1.39585 0
M  V30 8155 N 780.437 -1.16799 -1.0581 0
M  V30 8156 C 781.662 -0.977402 -1.82925 0
M  V30 8157 C 782.087 0.469514 -1.82146 0
M  V30 8158 O 781.445 1.33576 -1.22585 0
M  V30 8159 C 781.493 -1.51543 -3.27211 0
M  V30 8160 O 780.597 -0.725021 -4.05977 0
M  V30 8161 H 779.938 -0.347474 -0.565825 0
M  V30 8162 H 782.468 -1.55151 -1.33376 0
M  V30 8163 H 782.478 -1.53502 -3.78023 0
M  V30 8164 H 781.153 -2.56872 -3.27093 0
M  V30 8165 H 779.73 -0.77634 -3.64729 0
M  V30 8166 N 781.915 1.24427 -0.967243 0
M  V30 8167 C 782.825 2.29109 -0.504592 0
M  V30 8168 C 783.841 1.68495 0.434224 0
M  V30 8169 O 785.017 1.99041 0.307379 0
M  V30 8170 C 782.082 3.46133 0.198273 0
M  V30 8171 C 781.143 4.22149 -0.780313 0
M  V30 8172 C 780.376 5.33585 -0.110896 0
M  V30 8173 O 780.599 5.59676 1.10088 0
M  V30 8174 O 779.533 5.96522 -0.802823 0
M  V30 8175 H 783.359 2.708 -1.37482 0
M  V30 8176 H 780.944 1.30111 -0.73426 0
M  V30 8177 H 782.826 4.17205 0.593124 0
M  V30 8178 H 781.501 3.0642 1.04347 0
M  V30 8179 H 780.408 3.53454 -1.22561 0
M  V30 8180 H 781.741 4.65677 -1.59392 0
M  V30 8181 N 783.393 0.737304 1.3929 0
M  V30 8182 C 784.303 0.100464 2.34385 0
M  V30 8183 C 785.319 -0.719282 1.58437 0
M  V30 8184 O 786.495 -0.647216 1.90717 0
M  V30 8185 C 783.56 -0.794325 3.37478 0
M  V30 8186 C 782.621 0.0379345 4.29283 0
M  V30 8187 C 781.854 -0.814241 5.27452 0
M  V30 8188 O 782.077 -2.05288 5.32177 0
M  V30 8189 O 781.011 -0.241679 6.01415 0
M  V30 8190 H 784.837 0.885407 2.90507 0
M  V30 8191 H 782.422 0.497999 1.40856 0
M  V30 8192 H 784.304 -1.30622 4.00644 0
M  V30 8193 H 782.979 -1.55804 2.83737 0
M  V30 8194 H 781.886 0.595405 3.69331 0
M  V30 8195 H 783.219 0.763926 4.86236 0
M  V30 8196 N 784.871 -1.49948 0.485112 0
M  V30 8197 C 786.096 -2.073 -0.0645059 0
M  V30 8198 C 786.521 -1.345 -1.31497 0
M  V30 8199 O 785.879 -0.39687 -1.76903 0
M  V30 8200 C 785.927 -3.59201 -0.317304 0
M  V30 8201 O 785.031 -3.88085 -1.39514 0
M  V30 8202 H 784.372 -0.663723 0.0191822 0
M  V30 8203 H 786.902 -1.92963 0.680179 0
M  V30 8204 H 786.912 -4.04227 -0.553604 0
M  V30 8205 H 785.587 -4.11602 0.596387 0
M  V30 8206 H 784.164 -3.54885 -1.14504 0
M  V30 8207 N 786.349 -0.21828 -1.56081 0
M  V30 8208 C 787.259 0.704602 -2.23769 0
M  V30 8209 C 788.275 1.21633 -1.24425 0
M  V30 8210 O 789.451 1.25862 -1.57228 0
M  V30 8211 C 786.516 1.89725 -2.90182 0
M  V30 8212 C 785.577 1.42782 -4.0486 0
M  V30 8213 C 784.81 2.56361 -4.68097 0
M  V30 8214 O 785.033 3.74417 -4.30312 0
M  V30 8215 O 783.967 2.2775 -5.57148 0
M  V30 8216 H 787.793 0.158007 -3.03289 0
M  V30 8217 H 785.378 0.0120279 -1.49395 0
M  V30 8218 H 787.26 2.59382 -3.32113 0
M  V30 8219 H 785.935 2.432 -2.13624 0
M  V30 8220 H 784.842 0.699359 -3.67505 0
M  V30 8221 H 786.175 0.939474 -4.83151 0
M  V30 8222 N 787.827 1.57504 0.0551401 0
M  V30 8223 C 789.073 1.88334 0.752216 0
M  V30 8224 C 789.406 0.812742 1.76375 0
M  V30 8225 O 788.681 -0.175198 1.93709 0
M  V30 8226 C 788.964 3.29824 1.44528 0
M  V30 8227 C 788.817 4.47553 0.449026 0
M  V30 8228 C 790.136 3.69808 2.38601 0
M  V30 8229 H 787.255 0.684973 0.271995 0
M  V30 8230 H 789.897 1.89994 0.0151895 0
M  V30 8231 H 788.047 3.28539 2.07351 0
M  V30 8232 H 789.719 4.60967 -0.175277 0
M  V30 8233 H 787.962 4.33168 -0.234162 0
M  V30 8234 H 788.633 5.43376 0.971917 0
M  V30 8235 H 791.109 3.72293 1.85842 0
M  V30 8236 H 789.985 4.69665 2.84088 0
M  V30 8237 H 790.246 3.00641 3.24141 0
M  V30 8238 N 789.305 -0.326896 1.54172 0
M  V30 8239 C 790.238 -1.42591 1.78166 0
M  V30 8240 C 791.216 -1.49837 0.631484 0
M  V30 8241 O 792.4 -1.67298 0.868544 0
M  V30 8242 C 789.527 -2.8071 1.89524 0
M  V30 8243 C 788.573 -2.91012 3.11792 0
M  V30 8244 S 789.406 -2.55763 4.70474 0
M  V30 8245 C 790.562 -3.9596 4.84733 0
M  V30 8246 H 790.795 -1.22024 2.71104 0
M  V30 8247 H 788.328 -0.523539 1.45253 0
M  V30 8248 H 790.286 -3.60276 1.96753 0
M  V30 8249 H 788.947 -2.98562 0.975696 0
M  V30 8250 H 788.14 -3.92258 3.16464 0
M  V30 8251 H 787.742 -2.19414 3.02876 0
M  V30 8252 H 790.034 -4.90676 4.67166 0
M  V30 8253 H 790.977 -3.96273 5.86833 0
M  V30 8254 H 791.385 -3.8476 4.13062 0
M  V30 8255 N 790.784 -1.46188 -0.588786 0
M  V30 8256 C 791.747 -1.55882 -1.68029 0
M  V30 8257 C 792.747 -0.436515 -1.54762 0
M  V30 8258 O 793.937 -0.700626 -1.59489 0
M  V30 8259 C 791.069 -1.47332 -3.07418 0
M  V30 8260 H 792.262 -2.5315 -1.60795 0
M  V30 8261 H 789.815 -1.33908 -0.806116 0
M  V30 8262 H 790.55 -0.513193 -3.20214 0
M  V30 8263 H 790.335 -2.28753 -3.18456 0
M  V30 8264 H 791.825 -1.57187 -3.86887 0
M  V30 8265 N 792.262 0.832906 -1.33792 0
M  V30 8266 C 793.209 1.94314 -1.24541 0
M  V30 8267 C 794.179 1.65646 -0.122753 0
M  V30 8268 O 795.364 1.88394 -0.30204 0
M  V30 8269 C 792.504 3.30395 -0.996641 0
M  V30 8270 C 791.617 3.71422 -2.20612 0
M  V30 8271 C 790.752 4.96401 -1.89101 0
M  V30 8272 C 789.791 5.2998 -3.06247 0
M  V30 8273 N 788.928 6.46137 -2.74685 0
M  V30 8274 H 793.768 2.01559 -2.19495 0
M  V30 8275 H 791.305 0.986243 -1.09141 0
M  V30 8276 H 793.263 4.08803 -0.832817 0
M  V30 8277 H 791.893 3.22691 -0.0838242 0
M  V30 8278 H 790.945 2.88488 -2.47949 0
M  V30 8279 H 792.257 3.92215 -3.0817 0
M  V30 8280 H 791.411 5.82572 -1.69396 0
M  V30 8281 H 790.15 4.7759 -0.987882 0
M  V30 8282 H 789.155 4.42312 -3.26559 0
M  V30 8283 H 790.38 5.50737 -3.97323 0
M  V30 8284 H 788.326 6.28801 -1.86938 0
M  V30 8285 H 788.243 6.67054 -3.55774 0
M  V30 8286 H 789.511 7.35403 -2.58461 0
M  V30 8287 N 793.74 1.17359 1.05189 0
M  V30 8288 C 794.687 0.890325 2.12936 0
M  V30 8289 C 795.657 -0.165779 1.65271 0
M  V30 8290 O 796.842 -0.0285672 1.90779 0
M  V30 8291 C 793.982 0.409793 3.42658 0
M  V30 8292 C 793.095 1.53002 4.03998 0
M  V30 8293 C 792.23 1.00336 5.21638 0
M  V30 8294 C 791.269 2.09903 5.74984 0
M  V30 8295 N 790.406 1.58714 6.83926 0
M  V30 8296 H 795.246 1.81299 2.36505 0
M  V30 8297 H 792.783 0.904249 1.16025 0
M  V30 8298 H 794.741 0.112743 4.17048 0
M  V30 8299 H 793.371 -0.475915 3.19272 0
M  V30 8300 H 792.423 1.9428 3.27047 0
M  V30 8301 H 793.735 2.3564 4.39631 0
M  V30 8302 H 792.889 0.660158 6.03098 0
M  V30 8303 H 791.628 0.14642 4.8748 0
M  V30 8304 H 790.633 2.45081 4.92154 0
M  V30 8305 H 791.858 2.96013 6.1119 0
M  V30 8306 H 789.804 0.752915 6.51665 0
M  V30 8307 H 789.721 2.34959 7.18561 0
M  V30 8308 H 790.989 1.27287 7.69037 0
M  V30 8309 N 795.218 -1.23913 0.973828 0
M  V30 8310 C 796.458 -1.93889 0.647015 0
M  V30 8311 C 796.822 -1.74368 -0.803735 0
M  V30 8312 O 798.023 -2.38435 -1.24106 0
M  V30 8313 C 796.294 -3.4257 1.01885 0
M  V30 8314 S 797.853 -4.31306 0.807517 0
M  V30 8315 H 794.671 -0.670279 0.237165 0
M  V30 8316 H 797.273 -1.50144 1.25208 0
M  V30 8317 H 795.977 -3.54286 2.07146 0
M  V30 8318 H 795.508 -3.91312 0.404812 0
M  V30 8319 H 797.523 -4.95218 -0.311986 0
M  V30 8320 N 796.696 -0.74468 -1.38897 0
M  V30 8321 C 797.921 -0.306119 -2.05128 0
M  V30 8322 C 798.346 1.0541 -1.55789 0
M  V30 8323 O 797.704 1.66993 -0.705909 0
M  V30 8324 C 797.752 -0.328195 -3.59103 0
M  V30 8325 O 796.856 0.680876 -4.06741 0
M  V30 8326 H 796.197 -0.137209 -0.649669 0
M  V30 8327 H 798.727 -1.01331 -1.77745 0
M  V30 8328 H 798.737 -0.175956 -4.0762 0
M  V30 8329 H 797.412 -1.32067 -3.94374 0
M  V30 8330 H 795.989 0.49398 -3.69614 0
M  V30 8331 N 798.174 1.49689 -0.493057 0
M  V30 8332 C 799.42 2.02727 0.0543518 0
M  V30 8333 C 799.753 1.37264 1.37376 0
M  V30 8334 O 799.028 0.505644 1.87812 0
M  V30 8335 C 799.311 3.59456 0.215226 0
M  V30 8336 C 799.164 4.35459 -1.12675 0
M  V30 8337 C 800.483 4.29511 0.959586 0
M  V30 8338 H 797.602 0.736773 0.0182786 0
M  V30 8339 H 800.244 1.78792 -0.642924 0
M  V30 8340 H 798.394 3.79981 0.809122 0
M  V30 8341 H 800.066 4.2645 -1.75891 0
M  V30 8342 H 798.309 3.9833 -1.71801 0
M  V30 8343 H 798.98 5.43454 -0.967578 0
M  V30 8344 H 801.456 4.13594 0.455977 0
M  V30 8345 H 800.332 5.38939 1.04098 0
M  V30 8346 H 800.593 3.94202 2.00144 0
M  V30 8347 N 799.652 0.226554 1.55963 0
M  V30 8348 C 800.582 -0.676079 2.23498 0
M  V30 8349 C 801.563 -1.19718 1.20837 0
M  V30 8350 O 802.748 -1.24027 1.49436 0
M  V30 8351 C 799.878 -1.88217 2.91876 0
M  V30 8352 C 798.832 -1.4947 4.01052 0
M  V30 8353 C 798.158 -2.77997 4.56751 0
M  V30 8354 C 799.458 -0.680951 5.17842 0
M  V30 8355 H 801.152 -0.112989 2.99187 0
M  V30 8356 H 798.698 -0.0529046 1.43903 0
M  V30 8357 H 800.651 -2.51911 3.37815 0
M  V30 8358 H 799.375 -2.47031 2.13643 0
M  V30 8359 H 798.034 -0.881199 3.55852 0
M  V30 8360 H 797.682 -3.34966 3.75243 0
M  V30 8361 H 797.382 -2.52803 5.30438 0
M  V30 8362 H 798.906 -3.42625 5.05411 0
M  V30 8363 H 800.32 -1.22171 5.60131 0
M  V30 8364 H 798.717 -0.525898 5.97791 0
M  V30 8365 H 799.787 0.311346 4.83899 0
M  V30 8366 N 801.13 -1.57531 -0.0467866 0
M  V30 8367 C 802.077 -2.05387 -1.05285 0
M  V30 8368 C 803.047 -0.939385 -1.36985 0
M  V30 8369 O 804.232 -1.20877 -1.47626 0
M  V30 8370 C 801.372 -2.52343 -2.35408 0
M  V30 8371 C 800.485 -3.77512 -2.10022 0
M  V30 8372 C 799.62 -4.1315 -3.33887 0
M  V30 8373 C 798.659 -5.31286 -3.03976 0
M  V30 8374 N 797.796 -5.62441 -4.20243 0
M  V30 8375 H 802.636 -2.91095 -0.637788 0
M  V30 8376 H 800.173 -1.43939 -0.303322 0
M  V30 8377 H 802.131 -2.77628 -3.11413 0
M  V30 8378 H 800.761 -1.69577 -2.7467 0
M  V30 8379 H 799.813 -3.59417 -1.24594 0
M  V30 8380 H 801.125 -4.63644 -1.83945 0
M  V30 8381 H 800.279 -4.39469 -4.18273 0
M  V30 8382 H 799.018 -3.25634 -3.63062 0
M  V30 8383 H 798.023 -5.04738 -2.17991 0
M  V30 8384 H 799.248 -6.20441 -2.76098 0
M  V30 8385 H 797.194 -4.77885 -4.49402 0
M  V30 8386 H 797.111 -6.43046 -3.97528 0
M  V30 8387 H 798.379 -5.93327 -5.05553 0
M  V30 8388 N 802.608 0.318715 -1.54344 0
M  V30 8389 C 803.518 1.41535 -1.87097 0
M  V30 8390 C 804.534 1.56361 -0.763353 0
M  V30 8391 O 805.71 1.71365 -1.05811 0
M  V30 8392 C 802.775 2.76178 -2.09587 0
M  V30 8393 C 801.836 2.70486 -3.3337 0
M  V30 8394 C 801.069 3.98708 -3.54778 0
M  V30 8395 O 801.292 4.9721 -2.79532 0
M  V30 8396 O 800.226 4.01674 -4.48266 0
M  V30 8397 H 804.052 1.16764 -2.80357 0
M  V30 8398 H 801.637 0.51318 -1.4031 0
M  V30 8399 H 803.519 3.55873 -2.25682 0
M  V30 8400 H 802.194 3.00829 -1.19514 0
M  V30 8401 H 801.101 1.89325 -3.22656 0
M  V30 8402 H 802.434 2.50789 -4.23516 0
M  V30 8403 N 804.086 1.46499 0.581025 0
M  V30 8404 C 805.033 1.5719 1.68997 0
M  V30 8405 C 806.003 0.416114 1.60803 0
M  V30 8406 O 807.188 0.633086 1.79991 0
M  V30 8407 C 804.328 1.56973 3.07333 0
M  V30 8408 C 803.441 2.83298 3.26139 0
M  V30 8409 C 802.576 2.74574 4.54734 0
M  V30 8410 C 801.615 3.9583 4.66889 0
M  V30 8411 N 800.752 3.85482 5.86811 0
M  V30 8412 H 805.592 2.51914 1.59196 0
M  V30 8413 H 803.129 1.24975 0.775857 0
M  V30 8414 H 805.087 1.54832 3.87405 0
M  V30 8415 H 803.717 0.657803 3.16027 0
M  V30 8416 H 802.769 2.95411 2.3966 0
M  V30 8417 H 804.081 3.7316 3.30988 0
M  V30 8418 H 803.235 2.70548 5.43036 0
M  V30 8419 H 801.974 1.82354 4.52325 0
M  V30 8420 H 800.979 4.00186 3.77003 0
M  V30 8421 H 802.204 4.89148 4.71075 0
M  V30 8422 H 800.15 2.96051 5.85397 0
M  V30 8423 H 800.067 4.69002 5.92936 0
M  V30 8424 H 801.335 3.85434 6.7754 0
M  V30 8425 N 805.565 -0.825799 1.34232 0
M  V30 8426 C 806.495 -1.95151 1.28212 0
M  V30 8427 C 807.476 -1.69345 0.160123 0
M  V30 8428 O 808.661 -1.90983 0.352019 0
M  V30 8429 C 805.791 -3.31554 1.03388 0
M  V30 8430 C 804.745 -3.71793 2.12023 0
M  V30 8431 C 804.071 -5.06147 1.72392 0
M  V30 8432 C 805.371 -3.84193 3.53826 0
M  V30 8433 H 807.065 -2.00445 2.22401 0
M  V30 8434 H 804.611 -0.962996 1.07063 0
M  V30 8435 H 806.564 -4.09889 0.978225 0
M  V30 8436 H 805.288 -3.26551 0.0564142 0
M  V30 8437 H 803.947 -2.95731 2.16654 0
M  V30 8438 H 803.595 -4.97628 0.733137 0
M  V30 8439 H 803.295 -5.34041 2.451 0
M  V30 8440 H 804.819 -5.86943 1.68317 0
M  V30 8441 H 806.233 -4.52806 3.51624 0
M  V30 8442 H 804.63 -4.23538 4.2513 0
M  V30 8443 H 805.7 -2.86272 3.91377 0
M  V30 8444 N 807.043 -1.17915 -1.04565 0
M  V30 8445 C 808.32 -0.881187 -1.74627 0
M  V30 8446 C 808.7 0.617123 -2.01878 0
M  V30 8447 O 808.048 1.57032 -1.65991 0
M  V30 8448 C 808.258 -1.72299 -3.03503 0
M  V30 8449 C 809.606 -1.94688 -3.77335 0
M  V30 8450 O 810.63 -1.6931 -3.13389 0
M  V30 8451 O 809.489 -2.37379 -4.92253 0
M  V30 8452 H 806.583 -0.326864 -0.759664 0
M  V30 8453 H 809.129 -1.28642 -1.10676 0
M  V30 8454 H 807.901 -2.73891 -2.79462 0
M  V30 8455 H 807.524 -1.31593 -3.75192 0
M  V30 8456 N 808.521 1.23394 -0.980386 0
M  V30 8457 C 809.746 1.96384 -0.666935 0
M  V30 8458 C 810.171 1.72087 0.759456 0
M  V30 8459 O 809.529 0.992328 1.51732 0
M  V30 8460 C 809.577 3.47499 -0.963177 0
M  V30 8461 O 808.681 4.12363 -0.0552051 0
M  V30 8462 H 808.022 0.614797 -0.250839 0
M  V30 8463 H 810.552 1.56831 -1.31398 0
M  V30 8464 H 810.562 3.97953 -0.899877 0
M  V30 8465 H 809.237 3.6451 -2.00264 0
M  V30 8466 H 807.814 3.72499 -0.172914 0
M  V30 8467 N 809.999 0.752036 1.385 0
M  V30 8468 C 810.929 0.138718 2.33088 0
M  V30 8469 C 811.91 -0.705318 1.54788 0
M  V30 8470 O 813.095 -0.646821 1.83112 0
M  V30 8471 C 810.225 -0.75641 3.38963 0
M  V30 8472 C 809.179 -0.0152239 4.27997 0
M  V30 8473 C 808.505 -1.0285 5.24715 0
M  V30 8474 C 809.805 1.15226 5.09431 0
M  V30 8475 H 811.499 0.928852 2.84627 0
M  V30 8476 H 809.045 0.448111 1.3685 0
M  V30 8477 H 810.998 -1.19513 4.04097 0
M  V30 8478 H 809.722 -1.57885 2.85902 0
M  V30 8479 H 808.381 0.404061 3.64366 0
M  V30 8480 H 808.029 -1.84496 4.67943 0
M  V30 8481 H 807.729 -0.537238 5.85139 0
M  V30 8482 H 809.253 -1.46657 5.92726 0
M  V30 8483 H 810.667 0.791161 5.67815 0
M  V30 8484 H 809.064 1.57428 5.79082 0
M  V30 8485 H 810.134 1.9659 4.43261 0
M  V30 8486 N 811.477 -1.49425 0.500989 0
M  V30 8487 C 812.407 -2.31971 -0.266775 0
M  V30 8488 C 813.388 -1.40245 -0.962563 0
M  V30 8489 O 814.573 -1.69154 -0.953968 0
M  V30 8490 C 811.703 -3.20757 -1.33163 0
M  V30 8491 C 810.657 -4.21275 -0.75572 0
M  V30 8492 C 809.983 -4.98997 -1.92109 0
M  V30 8493 C 811.283 -5.21686 0.253213 0
M  V30 8494 H 812.977 -2.96408 0.422237 0
M  V30 8495 H 810.523 -1.4254 0.204505 0
M  V30 8496 H 812.476 -3.77315 -1.87646 0
M  V30 8497 H 811.2 -2.54263 -2.04983 0
M  V30 8498 H 809.859 -3.65861 -0.232637 0
M  V30 8499 H 809.507 -4.28951 -2.62698 0
M  V30 8500 H 809.207 -5.67011 -1.54182 0
M  V30 8501 H 810.731 -5.584 -2.47026 0
M  V30 8502 H 812.145 -5.72939 -0.203483 0
M  V30 8503 H 810.542 -5.9759 0.548322 0
M  V30 8504 H 811.612 -4.70596 1.16909 0
M  V30 8505 N 812.955 -0.234822 -1.55841 0
M  V30 8506 C 813.902 0.6698 -2.20867 0
M  V30 8507 C 814.872 1.18042 -1.16856 0
M  V30 8508 O 816.057 1.23709 -1.45261 0
M  V30 8509 C 813.197 1.86646 -2.90271 0
M  V30 8510 C 812.31 1.39351 -4.08908 0
M  V30 8511 C 811.445 2.54878 -4.66059 0
M  V30 8512 C 810.484 2.04384 -5.76969 0
M  V30 8513 N 809.621 3.13233 -6.28355 0
M  V30 8514 H 814.461 0.10858 -2.97802 0
M  V30 8515 H 811.998 0.041836 -1.4704 0
M  V30 8516 H 813.956 2.56926 -3.28702 0
M  V30 8517 H 812.586 2.40035 -2.15831 0
M  V30 8518 H 811.638 0.585173 -3.75872 0
M  V30 8519 H 812.95 0.983356 -4.89011 0
M  V30 8520 H 812.104 3.33219 -5.07001 0
M  V30 8521 H 810.843 2.99188 -3.85146 0
M  V30 8522 H 809.848 1.24509 -5.35516 0
M  V30 8523 H 811.073 1.61057 -6.59725 0
M  V30 8524 H 809.019 3.57 -5.50352 0
M  V30 8525 H 808.936 2.76511 -7.03618 0
M  V30 8526 H 810.204 3.91669 -6.73955 0
M  V30 8527 N 814.433 1.57553 0.0384317 0
M  V30 8528 C 815.661 1.93093 0.743141 0
M  V30 8529 C 816.076 0.833787 1.69391 0
M  V30 8530 O 815.433 -0.190532 1.81503 0
M  V30 8531 C 815.484 3.28533 1.50826 0
M  V30 8532 O 815.205 4.34032 0.595665 0
M  V30 8533 C 816.706 3.78297 2.31098 0
M  V30 8534 H 813.926 0.637486 0.20941 0
M  V30 8535 H 816.47 2.045 -0.00125154 0
M  V30 8536 H 814.625 3.18552 2.20462 0
M  V30 8537 H 815.039 5.12155 1.13124 0
M  V30 8538 H 816.513 4.75602 2.80191 0
M  V30 8539 H 816.99 3.09008 3.12107 0
M  V30 8540 H 817.596 3.91331 1.66555 0
M  V30 8541 N 815.911 -0.310526 1.54511 0
M  V30 8542 C 816.841 -1.38757 1.878 0
M  V30 8543 C 817.822 -1.53353 0.735991 0
M  V30 8544 O 819.007 -1.67018 0.990887 0
M  V30 8545 C 816.137 -2.75327 2.11689 0
M  V30 8546 C 815.091 -2.75506 3.27537 0
M  V30 8547 C 814.417 -4.15275 3.36824 0
M  V30 8548 C 815.717 -2.38093 4.64875 0
M  V30 8549 H 817.411 -1.11146 2.78005 0
M  V30 8550 H 814.957 -0.533232 1.33763 0
M  V30 8551 H 816.91 -3.50752 2.33562 0
M  V30 8552 H 815.634 -3.04443 1.18245 0
M  V30 8553 H 814.293 -2.02538 3.05572 0
M  V30 8554 H 813.941 -4.41553 2.40915 0
M  V30 8555 H 813.641 -4.16299 4.14692 0
M  V30 8556 H 815.165 -4.92493 3.60947 0
M  V30 8557 H 816.579 -3.03232 4.86542 0
M  V30 8558 H 814.976 -2.50345 5.45387 0
M  V30 8559 H 816.046 -1.33227 4.66239 0
M  V30 8560 N 817.389 -1.46805 -0.573248 0
M  V30 8561 C 818.666 -1.43082 -1.33368 0
M  V30 8562 C 819.046 -0.119252 -2.10763 0
M  V30 8563 O 818.394 0.899239 -2.10062 0
M  V30 8564 C 818.604 -2.66643 -2.25172 0
M  V30 8565 C 819.952 -3.13188 -2.86702 0
M  V30 8566 O 820.976 -2.67258 -2.35482 0
M  V30 8567 O 819.835 -3.92994 -3.79761 0
M  V30 8568 H 816.929 -0.569451 -0.599712 0
M  V30 8569 H 819.475 -1.58984 -0.59348 0
M  V30 8570 H 818.247 -3.53649 -1.67475 0
M  V30 8571 H 817.87 -2.53247 -3.06516 0
M  V30 8572 N 818.867 0.818669 -1.34668 0
M  V30 8573 C 820.144 1.56118 -1.17841 0
M  V30 8574 C 820.524 2.09646 0.24731 0
M  V30 8575 O 819.872 1.91329 1.24922 0
M  V30 8576 C 820.082 2.67922 -2.23649 0
M  V30 8577 C 821.43 3.36579 -2.58843 0
M  V30 8578 O 822.454 2.78182 -2.22471 0
M  V30 8579 O 821.313 4.42045 -3.21339 0
M  V30 8580 H 818.407 0.689216 -0.457067 0
M  V30 8581 H 820.953 0.859674 -1.46314 0
M  V30 8582 H 819.725 2.26153 -3.19328 0
M  V30 8583 H 819.348 3.45719 -1.96377 0
M  V30 8584 N 820.346 1.18468 1.03938 0
M  V30 8585 C 821.256 0.927889 2.1547 0
M  V30 8586 C 822.272 -0.108447 1.73662 0
M  V30 8587 O 823.448 0.0737636 2.01265 0
M  V30 8588 C 820.513 0.458494 3.43655 0
M  V30 8589 C 819.574 1.56295 3.99838 0
M  V30 8590 C 818.807 1.11586 5.21904 0
M  V30 8591 O 819.03 -0.0249057 5.70395 0
M  V30 8592 O 817.964 1.91412 5.70653 0
M  V30 8593 H 821.79 1.86116 2.39989 0
M  V30 8594 H 819.375 0.966607 1.13917 0
M  V30 8595 H 821.257 0.204861 4.20902 0
M  V30 8596 H 819.932 -0.446464 3.20606 0
M  V30 8597 H 818.839 1.87061 3.23974 0
M  V30 8598 H 820.172 2.44408 4.2723 0
M  V30 8599 N 821.824 -1.22873 0.986916 0
M  V30 8600 C 823.049 -1.96028 0.677341 0
M  V30 8601 C 823.474 -1.72487 -0.750319 0
M  V30 8602 O 822.832 -1.00036 -1.51203 0
M  V30 8603 C 822.88 -3.46983 0.981593 0
M  V30 8604 O 821.984 -4.12328 0.0770729 0
M  V30 8605 H 821.325 -0.613458 0.254096 0
M  V30 8606 H 823.855 -1.56132 1.32227 0
M  V30 8607 H 823.865 -3.9747 0.920969 0
M  V30 8608 H 822.54 -3.63442 2.02194 0
M  V30 8609 H 821.117 -3.72402 0.192666 0
M  V30 8610 N 823.302 -0.75937 -1.38099 0
M  V30 8611 C 824.234 -0.0956547 -2.29 0
M  V30 8612 C 825.247 0.677561 -1.4803 0
M  V30 8613 O 826.436 0.517696 -1.70828 0
M  V30 8614 C 823.536 0.88844 -3.27047 0
M  V30 8615 C 822.709 0.171652 -4.37063 0
M  V30 8616 C 821.768 1.06733 -5.15262 0
M  V30 8617 O 820.794 0.535698 -5.66674 0
M  V30 8618 N 821.996 2.39486 -5.28797 0
M  V30 8619 H 824.761 -0.876354 -2.86601 0
M  V30 8620 H 822.322 -0.61065 -1.49942 0
M  V30 8621 H 824.314 1.49079 -3.76241 0
M  V30 8622 H 822.884 1.57018 -2.70304 0
M  V30 8623 H 822.104 -0.611473 -3.89429 0
M  V30 8624 H 823.392 -0.324121 -5.07767 0
M  V30 8625 H 822.79 2.85127 -4.88589 0
M  V30 8626 H 821.347 2.94758 -5.81344 0
M  V30 8627 N 824.78 1.49157 -0.508906 0
M  V30 8628 C 825.743 2.27784 0.25434 0
M  V30 8629 C 826.743 1.34132 0.88686 0
M  V30 8630 O 827.933 1.5722 0.750168 0
M  V30 8631 C 825.065 3.12347 1.36573 0
M  V30 8632 H 826.258 2.96718 -0.435714 0
M  V30 8633 H 823.811 1.54052 -0.264128 0
M  V30 8634 H 824.546 2.47997 2.08969 0
M  V30 8635 H 824.331 3.81213 0.917543 0
M  V30 8636 H 825.821 3.71712 1.90315 0
M  V30 8637 N 826.258 0.243083 1.55714 0
M  V30 8638 C 827.483 -0.389944 2.03701 0
M  V30 8639 C 827.908 -1.51025 1.12129 0
M  V30 8640 O 827.266 -1.80944 0.11352 0
M  V30 8641 C 827.314 -0.878649 3.49731 0
M  V30 8642 O 826.418 -1.98851 3.61292 0
M  V30 8643 H 825.759 -0.0855115 0.658471 0
M  V30 8644 H 828.289 0.368023 2.01263 0
M  V30 8645 H 828.299 -1.18287 3.90477 0
M  V30 8646 H 826.974 -0.0588107 4.15858 0
M  V30 8647 H 825.551 -1.68928 3.32442 0
M  V30 8648 N 827.736 -1.57571 -0.0300757 0
M  V30 8649 C 828.961 -1.93879 -0.736601 0
M  V30 8650 C 829.386 -0.842998 -1.68152 0
M  V30 8651 O 828.744 0.20135 -1.80178 0
M  V30 8652 C 828.792 -3.29247 -1.47066 0
M  V30 8653 O 827.896 -3.21426 -2.58378 0
M  V30 8654 H 827.237 -0.633735 -0.198181 0
M  V30 8655 H 829.767 -2.04595 0.0141485 0
M  V30 8656 H 829.777 -3.64113 -1.84081 0
M  V30 8657 H 828.452 -4.08565 -0.77764 0
M  V30 8658 H 827.029 -2.98189 -2.23914 0
M  V30 8659 N 829.214 0.302327 -1.54673 0
M  V30 8660 C 830.439 1.06103 -1.78205 0
M  V30 8661 C 830.864 1.80204 -0.53926 0
M  V30 8662 O 830.222 1.73975 0.510142 0
M  V30 8663 C 830.27 2.01829 -2.98827 0
M  V30 8664 O 829.374 3.10108 -2.71858 0
M  V30 8665 H 828.715 0.30487 -0.589873 0
M  V30 8666 H 831.245 0.340153 -2.01753 0
M  V30 8667 H 831.255 2.44319 -3.2676 0
M  V30 8668 H 829.93 1.473 -3.88942 0
M  V30 8669 H 828.507 2.72142 -2.54937 0
M  V30 8670 N 830.692 1.47107 0.565454 0
M  V30 8671 C 831.622 1.61846 1.68309 0
M  V30 8672 C 832.603 0.468159 1.63531 0
M  V30 8673 O 833.788 0.696504 1.8128 0
M  V30 8674 C 830.918 1.62474 3.06952 0
M  V30 8675 C 829.872 2.76649 3.26572 0
M  V30 8676 C 829.198 2.62345 4.65917 0
M  V30 8677 C 830.498 4.18319 3.12741 0
M  V30 8678 H 832.192 2.55407 1.5623 0
M  V30 8679 H 829.738 1.22916 0.750179 0
M  V30 8680 H 831.691 1.71378 3.84977 0
M  V30 8681 H 830.415 0.654692 3.19971 0
M  V30 8682 H 829.074 2.67242 2.50952 0
M  V30 8683 H 828.722 1.63386 4.75725 0
M  V30 8684 H 828.422 3.38936 4.79996 0
M  V30 8685 H 829.946 2.73165 5.46089 0
M  V30 8686 H 831.36 4.28745 3.80593 0
M  V30 8687 H 829.757 4.95632 3.38333 0
M  V30 8688 H 830.827 4.37263 2.09592 0
M  V30 8689 N 832.17 -0.811516 1.35101 0
M  V30 8690 C 833.581 -1.38515 1.25182 0
M  V30 8691 C 833.932 -1.95846 -0.117883 0
M  V30 8692 O 833.057 -1.90925 -1.01866 0
M  V30 8693 C 833.652 -2.51813 2.26662 0
M  V30 8694 C 832.211 -3.05052 2.20499 0
M  V30 8695 C 831.358 -1.77987 2.12641 0
M  V30 8696 H 834.309 -0.614959 1.46301 0
M  V30 8697 H 834.33 -3.30228 1.89023 0
M  V30 8698 H 833.842 -2.10057 3.2634 0
M  V30 8699 H 831.943 -3.51285 1.24215 0
M  V30 8700 H 832.056 -3.63368 3.1225 0
M  V30 8701 H 830.42 -1.99342 1.5854 0
M  V30 8702 H 831.203 -1.38389 3.14171 0
M  V30 8703 N 833.648 -1.19017 -1.03309 0
M  V30 8704 C 834.596 -0.920627 -2.13605 0
M  V30 8705 C 835.59 0.121969 -1.6896 0
M  V30 8706 O 836.796 -0.0268854 -1.7998 0
M  V30 8707 H 833.171 -0.280284 -0.697814 0
M  V30 8708 H 835.142 -1.85755 -2.33533 0
M  V30 8709 C 833.891 -0.471198 -3.44492 0
M  V30 8710 H 833.214 -1.26499 -3.7926 0
M  V30 8711 H 834.654 -0.321663 -4.22778 0
M  V30 8712 C 833.113 0.81411 -3.26916 0
M  V30 8713 O 833.643 1.87654 -3.55175 0
M  V30 8714 N 831.849 0.769695 -2.80221 0
M  V30 8715 H 831.396 -0.0951278 -2.57424 0
M  V30 8716 H 831.354 1.63008 -2.68842 0
M  V30 8717 N 835.127 1.22348 -0.993418 0
M  V30 8718 C 836.538 1.72893 -0.704616 0
M  V30 8719 C 836.889 1.80095 0.778483 0
M  V30 8720 O 836.014 1.4476 1.60853 0
M  V30 8721 C 836.609 3.14 -1.27237 0
M  V30 8722 C 835.168 3.61949 -1.03294 0
M  V30 8723 C 834.315 2.39816 -1.39225 0
M  V30 8724 H 837.266 1.07688 -1.16572 0
M  V30 8725 H 837.287 3.74886 -0.651212 0
M  V30 8726 H 836.799 3.08727 -2.3518 0
M  V30 8727 H 834.9 3.72588 0.0298329 0
M  V30 8728 H 835.013 4.48051 -1.69668 0
M  V30 8729 H 833.377 2.41448 -0.810849 0
M  V30 8730 H 834.16 2.37203 -2.48172 0
M  V30 8731 N 836.605 0.766683 1.37694 0
M  V30 8732 C 838.016 0.394761 1.82479 0
M  V30 8733 C 838.367 -1.07842 1.63904 0
M  V30 8734 O 837.492 -1.83479 1.14737 0
M  V30 8735 C 838.087 0.70974 3.31283 0
M  V30 8736 C 836.646 0.390936 3.74364 0
M  V30 8737 C 835.793 0.956192 2.60293 0
M  V30 8738 H 838.744 0.961756 1.26238 0
M  V30 8739 H 838.765 -0.00742144 3.80499 0
M  V30 8740 H 838.277 1.782 3.4477 0
M  V30 8741 H 836.378 -0.674213 3.66449 0
M  V30 8742 H 836.491 0.895645 4.70654 0
M  V30 8743 H 834.855 0.380744 2.51838 0
M  V30 8744 H 835.638 2.03375 2.76575 0
M  V30 8745 N 838.083 -1.48885 0.516809 0
M  V30 8746 C 839.494 -1.86557 0.0729921 0
M  V30 8747 C 839.845 -1.42767 -1.34581 0
M  V30 8748 O 838.97 -0.812514 -2.00567 0
M  V30 8749 C 839.565 -3.38567 0.125686 0
M  V30 8750 C 838.124 -3.75481 -0.262867 0
M  V30 8751 C 837.271 -2.72913 0.491281 0
M  V30 8752 H 840.222 -1.40978 0.728767 0
M  V30 8753 H 840.243 -3.74629 -0.665831 0
M  V30 8754 H 839.755 -3.70408 1.15842 0
M  V30 8755 H 837.856 -3.49251 -1.29824 0
M  V30 8756 H 837.969 -4.79052 0.067579 0
M  V30 8757 H 836.333 -2.54627 -0.0608525 0
M  V30 8758 H 837.116 -3.07599 1.5244 0
M  V30 8759 N 839.561 -0.251338 -1.55583 0
M  V30 8760 C 840.789 0.376187 -2.03451 0
M  V30 8761 C 841.204 1.51215 -1.13047 0
M  V30 8762 O 840.561 1.81917 -0.145769 0
M  V30 8763 C 840.612 0.879779 -3.50631 0
M  V30 8764 O 840.333 -0.210917 -4.37592 0
M  V30 8765 C 841.834 1.57754 -4.14281 0
M  V30 8766 H 839.054 0.0888722 -0.665089 0
M  V30 8767 H 841.598 -0.376497 -2.01004 0
M  V30 8768 H 839.753 1.58263 -3.53598 0
M  V30 8769 H 840.167 0.172203 -5.24217 0
M  V30 8770 H 841.641 1.88158 -5.18942 0
M  V30 8771 H 842.118 2.50103 -3.61034 0
M  V30 8772 H 842.724 0.919154 -4.15249 0
M  V30 8773 N 841.039 1.57585 0.0217189 0
M  V30 8774 C 842.288 1.88786 0.710125 0
M  V30 8775 C 842.601 0.850819 1.76126 0
M  V30 8776 O 843.807 1.0523 2.50277 0
M  V30 8777 C 842.263 3.3505 1.31413 0
M  V30 8778 C 841.871 4.47001 0.298959 0
M  V30 8779 C 843.615 3.7539 1.98199 0
M  V30 8780 C 841.522 5.8433 0.911727 0
M  V30 8781 H 840.452 0.704388 0.268986 0
M  V30 8782 H 843.103 1.83466 -0.0352638 0
M  V30 8783 H 841.485 3.35138 2.10947 0
M  V30 8784 H 842.659 4.58395 -0.470203 0
M  V30 8785 H 840.974 4.15542 -0.267222 0
M  V30 8786 H 843.571 4.75314 2.4491 0
M  V30 8787 H 843.914 3.07766 2.80331 0
M  V30 8788 H 844.447 3.77508 1.2543 0
M  V30 8789 H 841.186 6.55372 0.129659 0
M  V30 8790 H 840.706 5.76643 1.65056 0
M  V30 8791 H 842.385 6.31295 1.41688 0
M  V30 8792 N 842.517 -0.29412 1.54831 0
M  V30 8793 C 843.48 -1.3461 1.85507 0
M  V30 8794 C 844.48 -1.43359 0.728343 0
M  V30 8795 O 845.67 -1.42875 0.996609 0
M  V30 8796 C 842.802 -2.73012 2.0415 0
M  V30 8797 H 843.995 -1.08651 2.79526 0
M  V30 8798 H 841.548 -0.531138 1.46999 0
M  V30 8799 H 842.283 -3.04183 1.12441 0
M  V30 8800 H 842.068 -2.68051 2.86166 0
M  V30 8801 H 843.558 -3.49061 2.29229 0
M  V30 8802 N 843.995 -1.47404 -0.557645 0
M  V30 8803 C 844.905 -1.62491 -1.69216 0
M  V30 8804 C 845.921 -0.507764 -1.66426 0
M  V30 8805 O 847.097 -0.775241 -1.85882 0
M  V30 8806 C 844.162 -1.63511 -3.05721 0
M  V30 8807 C 843.223 -2.86648 -3.1958 0
M  V30 8808 C 842.456 -2.87609 -4.49574 0
M  V30 8809 O 842.679 -1.97799 -5.35006 0
M  V30 8810 O 841.613 -3.79465 -4.67215 0
M  V30 8811 H 845.439 -2.58487 -1.59431 0
M  V30 8812 H 843.024 -1.30485 -0.7276 0
M  V30 8813 H 844.906 -1.66863 -3.86956 0
M  V30 8814 H 843.581 -0.706812 -3.15889 0
M  V30 8815 H 842.488 -2.8884 -2.37744 0
M  V30 8816 H 843.821 -3.7877 -3.14316 0
M  V30 8817 N 845.473 0.80434 -1.35529 0
M  V30 8818 C 846.383 1.94784 -1.30753 0
M  V30 8819 C 847.399 1.72703 -0.212071 0
M  V30 8820 O 848.575 1.96494 -0.441841 0
M  V30 8821 C 845.64 3.29406 -1.08133 0
M  V30 8822 C 844.701 3.64367 -2.27013 0
M  V30 8823 C 843.934 4.92566 -2.05463 0
M  V30 8824 O 844.157 5.61166 -1.02222 0
M  V30 8825 O 843.091 5.25838 -2.92879 0
M  V30 8826 H 846.917 2.01761 -2.26994 0
M  V30 8827 H 844.502 0.942448 -1.15924 0
M  V30 8828 H 846.384 4.09995 -0.973756 0
M  V30 8829 H 845.059 3.23355 -0.149444 0
M  V30 8830 H 843.966 2.84146 -2.43335 0
M  V30 8831 H 845.299 3.75125 -3.18656 0
M  V30 8832 N 846.951 1.19563 1.02676 0
M  V30 8833 C 847.914 0.937182 2.09164 0
M  V30 8834 C 848.914 -0.0831927 1.60585 0
M  V30 8835 O 850.104 0.15178 1.73538 0
M  V30 8836 C 847.236 0.408912 3.38439 0
M  V30 8837 H 848.429 1.88164 2.33526 0
M  V30 8838 H 845.982 1.00959 1.19319 0
M  V30 8839 H 846.717 -0.541497 3.19747 0
M  V30 8840 H 846.502 1.14464 3.7502 0
M  V30 8841 H 847.992 0.247242 4.16867 0
M  V30 8842 N 848.429 -1.21819 0.999893 0
M  V30 8843 C 849.339 -2.27691 0.565159 0
M  V30 8844 C 850.355 -1.69587 -0.389398 0
M  V30 8845 O 851.531 -1.99786 -0.254499 0
M  V30 8846 C 848.596 -3.46537 -0.106432 0
M  V30 8847 C 847.657 -4.19932 0.891964 0
M  V30 8848 C 846.89 -5.33103 0.252327 0
M  V30 8849 O 847.113 -5.62398 -0.952103 0
M  V30 8850 O 846.047 -5.94184 0.960698 0
M  V30 8851 H 849.873 -2.67059 1.44613 0
M  V30 8852 H 847.458 -1.28119 0.768499 0
M  V30 8853 H 849.34 -4.18631 -0.482301 0
M  V30 8854 H 848.015 -3.09079 -0.961865 0
M  V30 8855 H 846.922 -3.5008 1.3189 0
M  V30 8856 H 848.255 -4.61287 1.71682 0
M  V30 8857 N 849.908 -0.773975 -1.37286 0
M  V30 8858 C 851.185 -0.263942 -1.93811 0
M  V30 8859 C 851.565 1.24138 -1.70743 0
M  V30 8860 O 850.913 2.02557 -1.05749 0
M  V30 8861 C 851.123 -0.639753 -3.43086 0
M  V30 8862 C 852.471 -0.610796 -4.20184 0
M  V30 8863 O 853.495 -0.579278 -3.51458 0
M  V30 8864 O 852.354 -0.639862 -5.42741 0
M  V30 8865 H 849.448 -0.0614331 -0.824715 0
M  V30 8866 H 851.994 -0.855477 -1.46559 0
M  V30 8867 H 850.766 -1.67856 -3.53469 0
M  V30 8868 H 850.389 -0.0212827 -3.97594 0
M  V30 8869 N 851.386 1.48609 -0.524698 0
M  V30 8870 C 852.634 2.02097 0.0112991 0
M  V30 8871 C 852.955 1.40455 1.35268 0
M  V30 8872 O 852.225 0.56807 1.87483 0
M  V30 8873 H 850.805 0.746966 0.00716426 0
M  V30 8874 H 853.467 1.82378 -0.687329 0
M  V30 8875 H 852.563 3.11855 0.123531 0
M  V30 8876 N 852.864 0.259585 1.55447 0
M  V30 8877 C 854.141 -0.412595 1.91199 0
M  V30 8878 C 854.521 -1.74909 1.18194 0
M  V30 8879 O 853.869 -2.26474 0.303603 0
M  V30 8880 C 854.079 -0.568195 3.44344 0
M  V30 8881 C 855.427 -0.858253 4.15836 0
M  V30 8882 O 856.451 -0.653588 3.50152 0
M  V30 8883 O 855.31 -1.24874 5.32042 0
M  V30 8884 H 852.404 -0.223403 0.796254 0
M  V30 8885 H 854.95 0.30459 1.66944 0
M  V30 8886 H 853.722 0.372989 3.89518 0
M  V30 8887 H 853.345 -1.33544 3.74502 0
M  V30 8888 N 854.342 -1.57594 -0.0133615 0
M  V30 8889 C 855.59 -1.89605 -0.699596 0
M  V30 8890 C 855.911 -0.85926 -1.75048 0
M  V30 8891 O 855.181 0.105112 -1.95618 0
M  V30 8892 H 853.761 -0.699776 -0.261385 0
M  V30 8893 H 856.423 -1.94885 0.0244044 0
M  V30 8894 H 855.519 -2.88962 -1.17928 0
M  V30 8895 N 855.82 0.285905 -1.54985 0
M  V30 8896 C 857.045 1.04207 -1.7932 0
M  V30 8897 C 857.47 1.79622 -0.558343 0
M  V30 8898 O 856.828 1.74506 0.491661 0
M  V30 8899 C 856.876 1.98648 -3.0095 0
M  V30 8900 O 855.98 3.07207 -2.75132 0
M  V30 8901 H 855.321 0.298596 -0.593074 0
M  V30 8902 H 857.851 0.318736 -2.02102 0
M  V30 8903 H 857.861 2.4084 -3.29333 0
M  V30 8904 H 856.536 1.43167 -3.90482 0
M  V30 8905 H 855.113 2.69423 -2.57809 0
M  V30 8906 N 857.298 1.47698 0.54982 0
M  V30 8907 C 858.546 1.54397 1.30407 0
M  V30 8908 C 858.867 0.211026 1.93855 0
M  V30 8909 O 858.137 -0.765701 1.80316 0
M  V30 8910 H 856.717 0.568747 0.484289 0
M  V30 8911 H 859.379 1.84042 0.641444 0
M  V30 8912 H 858.475 2.31449 2.09375 0
M  V30 8913 N 858.776 -0.797141 1.35954 0
M  V30 8914 C 860.001 -1.59097 1.33053 0
M  V30 8915 C 860.426 -1.87897 -0.0874592 0
M  V30 8916 O 859.784 -1.47291 -1.05712 0
M  V30 8917 C 859.832 -2.89346 2.152 0
M  V30 8918 O 858.936 -3.826 1.5392 0
M  V30 8919 H 858.277 -0.482895 0.45575 0
M  V30 8920 H 860.807 -0.988633 1.79129 0
M  V30 8921 H 860.817 -3.38686 2.27499 0
M  V30 8922 H 859.492 -2.6771 3.18283 0
M  V30 8923 H 858.069 -3.41174 1.50516 0
M  V30 8924 N 860.254 -1.20106 -1.0204 0
M  V30 8925 C 861.503 -1.00316 -1.74985 0
M  V30 8926 C 861.816 0.465814 -1.89972 0
M  V30 8927 O 863.022 0.782749 -2.59972 0
M  V30 8928 C 861.478 -1.74608 -3.14706 0
M  V30 8929 C 861.086 -3.25573 -3.07744 0
M  V30 8930 C 862.83 -1.63172 -3.91887 0
M  V30 8931 C 860.737 -3.92419 -4.42449 0
M  V30 8932 H 859.667 -0.371728 -0.655999 0
M  V30 8933 H 862.318 -1.43688 -1.14131 0
M  V30 8934 H 860.7 -1.24021 -3.76078 0
M  V30 8935 H 861.874 -3.83345 -2.55702 0
M  V30 8936 H 860.189 -3.3738 -2.44057 0
M  V30 8937 H 862.786 -2.10457 -4.9154 0
M  V30 8938 H 863.129 -0.58728 -4.12137 0
M  V30 8939 H 863.662 -2.11152 -3.37135 0
M  V30 8940 H 860.401 -4.96998 -4.27403 0
M  V30 8941 H 859.921 -3.39436 -4.94513 0
M  V30 8942 H 861.6 -3.96453 -5.11306 0
M  V30 8943 N 861.732 1.21287 -1.00634 0
M  V30 8944 C 862.972 1.92106 -0.698194 0
M  V30 8945 C 863.336 1.76437 0.757222 0
M  V30 8946 O 864.537 2.41641 1.17741 0
M  V30 8947 C 862.808 3.39748 -1.10932 0
M  V30 8948 S 864.367 4.29013 -0.921586 0
M  V30 8949 H 861.185 0.663755 -0.254853 0
M  V30 8950 H 863.787 1.46772 -1.29145 0
M  V30 8951 H 862.491 3.48669 -2.16467 0
M  V30 8952 H 862.022 3.90101 -0.508419 0
M  V30 8953 H 864.037 4.95871 0.180578 0
M  V30 8954 N 863.21 0.781244 1.36873 0
M  V30 8955 C 864.458 0.349198 1.9906 0
M  V30 8956 C 864.779 -1.0806 1.62321 0
M  V30 8957 O 864.049 -1.74351 0.893229 0
M  V30 8958 H 862.629 0.126126 0.736275 0
M  V30 8959 H 865.291 1.00148 1.67202 0
M  V30 8960 H 864.387 0.434451 3.09061 0
M  V30 8961 N 864.689 -1.48329 0.532571 0
M  V30 8962 C 865.914 -2.074 0.00147755 0
M  V30 8963 C 866.339 -1.38615 -1.27151 0
M  V30 8964 O 865.697 -0.452949 -1.75551 0
M  V30 8965 C 865.745 -3.60029 -0.202866 0
M  V30 8966 O 864.849 -3.92327 -1.27097 0
M  V30 8967 H 864.19 -0.662777 0.0402883 0
M  V30 8968 H 866.72 -1.90701 0.741224 0
M  V30 8969 H 866.73 -4.05783 -0.424722 0
M  V30 8970 H 865.405 -4.09496 0.727033 0
M  V30 8971 H 863.982 -3.58348 -1.03156 0
M  V30 8972 N 866.167 -0.267825 -1.55308 0
M  V30 8973 C 867.395 0.354587 -2.03839 0
M  V30 8974 C 867.81 1.50007 -1.14644 0
M  V30 8975 O 867.167 1.81752 -0.165055 0
M  V30 8976 C 867.218 0.84254 -3.51544 0
M  V30 8977 O 866.939 -0.257318 -4.37344 0
M  V30 8978 C 868.44 1.53351 -4.15931 0
M  V30 8979 H 865.66 0.0818131 -0.665994 0
M  V30 8980 H 868.204 -0.397795 -2.00594 0
M  V30 8981 H 866.359 1.54503 -3.55257 0
M  V30 8982 H 866.773 0.116593 -5.2437 0
M  V30 8983 H 868.247 1.82643 -5.20908 0
M  V30 8984 H 868.724 2.4626 -3.63666 0
M  V30 8985 H 869.33 0.87506 -4.162 0
M  V30 8986 N 867.645 1.57599 0.00500368 0
M  V30 8987 C 868.893 1.89973 0.68953 0
M  V30 8988 C 869.214 0.868531 1.7459 0
M  V30 8989 O 868.484 -0.0947367 1.95671 0
M  V30 8990 H 867.064 0.701153 0.25767 0
M  V30 8991 H 869.726 1.94869 -0.0347392 0
M  V30 8992 H 868.822 2.89584 1.16394 0
M  V30 8993 N 869.123 -0.277682 1.55134 0
M  V30 8994 C 870.4 -1.0309 1.66228 0
M  V30 8995 C 870.78 -2.0445 0.525701 0
M  V30 8996 O 870.128 -2.23512 -0.474816 0
M  V30 8997 C 870.338 -1.6919 3.05247 0
M  V30 8998 C 871.686 -2.20526 3.62841 0
M  V30 8999 O 872.71 -1.79185 3.07849 0
M  V30 9000 O 871.569 -2.96342 4.59177 0
M  V30 9001 H 868.663 -0.4779 0.674937 0
M  V30 9002 H 871.209 -0.273912 1.67475 0
M  V30 9003 H 869.981 -0.957163 3.79413 0
M  V30 9004 H 869.604 -2.51587 3.07879 0
M  V30 9005 N 870.601 -1.47988 -0.541979 0
M  V30 9006 C 872.017 -1.33843 -0.869383 0
M  V30 9007 C 872.217 -0.340374 -1.98604 0
M  V30 9008 O 871.273 0.242696 -2.51331 0
M  V30 9009 C 872.586 -2.73568 -1.24823 0
M  V30 9010 C 874.134 -2.81967 -1.3588 0
M  V30 9011 C 874.609 -4.22368 -1.77114 0
M  V30 9012 N 876.1 -4.24983 -1.84237 0
M  V30 9013 C 876.835 -5.30547 -2.17503 0
M  V30 9014 N 876.331 -6.46401 -2.49275 0
M  V30 9015 N 878.124 -5.17933 -2.18406 0
M  V30 9016 H 870.275 -2.11503 0.195001 0
M  V30 9017 H 872.538 -0.947681 0.0245862 0
M  V30 9018 H 872.244 -3.48107 -0.501435 0
M  V30 9019 H 872.118 -3.06322 -2.20106 0
M  V30 9020 H 874.505 -2.07692 -2.09638 0
M  V30 9021 H 874.586 -2.52848 -0.387478 0
M  V30 9022 H 874.23 -4.97155 -1.0392 0
M  V30 9023 H 874.16 -4.48922 -2.75275 0
M  V30 9024 H 876.651 -3.41411 -1.62009 0
M  V30 9025 H 876.964 -7.22698 -2.73729 0
M  V30 9026 H 875.309 -6.49696 -2.46821 0
M  V30 9027 H 878.5 -4.26445 -1.93034 0
M  V30 9028 H 878.673 -6.00307 -2.44 0
M  V30 9029 N 872.079 0.78992 -1.36375 0
M  V30 9030 C 873.009 1.91683 -1.33341 0
M  V30 9031 C 873.99 1.68861 -0.204965 0
M  V30 9032 O 875.175 1.89982 -0.402531 0
M  V30 9033 C 872.305 3.28696 -1.12143 0
M  V30 9034 C 871.259 3.66041 -2.21806 0
M  V30 9035 C 870.585 5.01399 -1.85751 0
M  V30 9036 C 871.885 3.74677 -3.63888 0
M  V30 9037 H 873.579 1.94478 -2.27637 0
M  V30 9038 H 871.125 0.934271 -1.09578 0
M  V30 9039 H 873.078 4.07151 -1.08656 0
M  V30 9040 H 871.802 3.26287 -0.142974 0
M  V30 9041 H 870.461 2.89883 -2.24418 0
M  V30 9042 H 870.109 4.9551 -0.864817 0
M  V30 9043 H 869.809 5.27355 -2.59173 0
M  V30 9044 H 871.333 5.82274 -1.83819 0
M  V30 9045 H 872.747 4.43324 -3.63506 0
M  V30 9046 H 871.144 4.12118 -4.3621 0
M  V30 9047 H 872.214 2.75795 -3.9883 0
M  V30 9048 N 873.557 1.20646 1.01402 0
M  V30 9049 C 874.803 1.0197 1.753 0
M  V30 9050 C 875.136 -0.446803 1.8899 0
M  V30 9051 O 874.411 -1.33169 1.41762 0
M  V30 9052 C 874.694 1.70693 3.17074 0
M  V30 9053 C 874.547 3.24805 3.11162 0
M  V30 9054 C 875.866 1.44212 4.15802 0
M  V30 9055 H 872.985 0.371844 0.636318 0
M  V30 9056 H 875.627 1.48696 1.18277 0
M  V30 9057 H 873.777 1.30968 3.65759 0
M  V30 9058 H 875.449 3.73841 2.70261 0
M  V30 9059 H 873.692 3.55576 2.48492 0
M  V30 9060 H 874.363 3.68049 4.11393 0
M  V30 9061 H 876.839 1.7868 3.75783 0
M  V30 9062 H 875.715 1.94825 5.13161 0
M  V30 9063 H 875.976 0.370252 4.40547 0
M  V30 9064 N 875.035 -1.20752 1.01276 0
M  V30 9065 C 875.998 -2.2162 0.584583 0
M  V30 9066 C 876.998 -1.57094 -0.343215 0
M  V30 9067 O 878.188 -1.73696 -0.132433 0
M  V30 9068 C 875.32 -3.40583 -0.146872 0
M  V30 9069 H 876.513 -2.61015 1.47686 0
M  V30 9070 H 874.066 -1.34148 0.802123 0
M  V30 9071 H 874.801 -3.06686 -1.05424 0
M  V30 9072 H 874.586 -3.88642 0.51958 0
M  V30 9073 H 876.076 -4.15339 -0.433924 0
M  V30 9074 N 876.513 -0.788492 -1.36457 0
M  V30 9075 C 877.738 -0.371224 -2.04051 0
M  V30 9076 C 878.163 1.004 -1.59064 0
M  V30 9077 O 877.521 1.64663 -0.758679 0
M  V30 9078 C 877.569 -0.442275 -3.57877 0
M  V30 9079 O 876.673 0.55113 -4.08701 0
M  V30 9080 H 876.014 -0.157808 -0.644975 0
M  V30 9081 H 878.544 -1.06935 -1.74431 0
M  V30 9082 H 878.554 -0.305548 -4.06854 0
M  V30 9083 H 877.229 -1.44547 -3.89973 0
M  V30 9084 H 875.806 0.37614 -3.70998 0
M  V30 9085 N 877.991 1.48044 -0.54043 0
M  V30 9086 C 878.954 2.28273 0.205966 0
M  V30 9087 C 879.954 1.35983 0.858209 0
M  V30 9088 O 881.144 1.58776 0.716651 0
M  V30 9089 C 878.276 3.15174 1.29917 0
M  V30 9090 H 879.469 2.95727 -0.498555 0
M  V30 9091 H 877.022 1.53457 -0.296745 0
M  V30 9092 H 877.757 2.52374 2.03661 0
M  V30 9093 H 877.542 3.83074 0.836475 0
M  V30 9094 H 879.032 3.75666 1.82387 0
M  V30 9095 N 879.47 0.276058 1.55163 0
M  V30 9096 C 880.71 -0.341634 2.01525 0
M  V30 9097 C 881.074 -1.52979 1.16023 0
M  V30 9098 O 882.275 -2.21718 1.51968 0
M  V30 9099 C 880.546 -0.713294 3.5021 0
M  V30 9100 S 882.105 -1.31739 4.18558 0
M  V30 9101 H 878.923 -0.1062 0.703024 0
M  V30 9102 H 881.525 0.398112 1.91404 0
M  V30 9103 H 880.229 0.160311 4.10087 0
M  V30 9104 H 879.76 -1.48448 3.64317 0
M  V30 9105 H 881.775 -2.60595 4.22261 0
M  V30 9106 N 880.948 -1.576 0.00335426 0
M  V30 9107 C 882.359 -1.7875 -0.539008 0
M  V30 9108 C 882.71 -0.911097 -1.73763 0
M  V30 9109 O 881.835 -0.114476 -2.16097 0
M  V30 9110 C 882.43 -3.24177 -0.984611 0
M  V30 9111 C 880.989 -3.46412 -1.47226 0
M  V30 9112 C 880.136 -2.74024 -0.425004 0
M  V30 9113 H 883.087 -1.57032 0.229511 0
M  V30 9114 H 883.108 -3.32474 -1.85044 0
M  V30 9115 H 882.62 -3.87938 -0.112035 0
M  V30 9116 H 880.721 -2.8787 -2.36562 0
M  V30 9117 H 880.834 -4.55098 -1.49741 0
M  V30 9118 H 879.198 -2.38741 -0.887394 0
M  V30 9119 H 879.981 -3.40486 0.438662 0
M  V30 9120 N 882.426 0.269451 -1.5528 0
M  V30 9121 C 883.389 1.31642 -1.87625 0
M  V30 9122 C 884.389 1.42182 -0.751058 0
M  V30 9123 O 885.579 1.41272 -1.01921 0
M  V30 9124 C 882.711 2.6973 -2.08467 0
M  V30 9125 H 883.904 1.0419 -2.81219 0
M  V30 9126 H 881.457 0.507685 -1.47825 0
M  V30 9127 H 882.192 3.02356 -1.17266 0
M  V30 9128 H 881.977 2.63465 -2.90394 0
M  V30 9129 H 883.467 3.4537 -2.34753 0
M  V30 9130 N 883.904 1.48273 0.534124 0
M  V30 9131 C 885.32 1.34302 0.862272 0
M  V30 9132 C 885.52 0.350902 1.98421 0
M  V30 9133 O 884.576 -0.229364 2.51456 0
M  V30 9134 C 885.889 2.74227 1.23371 0
M  V30 9135 C 887.437 2.82684 1.34383 0
M  V30 9136 C 887.912 4.23301 1.74871 0
M  V30 9137 N 889.403 4.25954 1.81981 0
M  V30 9138 C 890.138 5.31693 2.14686 0
M  V30 9139 N 889.634 6.47714 2.45844 0
M  V30 9140 N 891.427 5.19084 2.15657 0
M  V30 9141 H 883.578 2.11397 -0.206215 0
M  V30 9142 H 885.841 0.947537 -0.0296116 0
M  V30 9143 H 885.547 3.48368 0.482967 0
M  V30 9144 H 885.421 3.07485 2.18478 0
M  V30 9145 H 887.808 2.08801 2.08534 0
M  V30 9146 H 887.889 2.5305 0.374063 0
M  V30 9147 H 887.533 4.97699 1.01282 0
M  V30 9148 H 887.463 4.50376 2.7289 0
M  V30 9149 H 889.954 3.42266 1.60196 0
M  V30 9150 H 890.267 7.2414 2.69892 0
M  V30 9151 H 888.612 6.50995 2.43372 0
M  V30 9152 H 891.803 4.27463 1.9077 0
M  V30 9153 H 891.976 6.01592 2.40813 0
M  V30 9154 N 885.382 -0.782676 1.36792 0
M  V30 9155 C 886.793 -1.35828 1.28092 0
M  V30 9156 C 887.144 -1.96052 -0.076315 0
M  V30 9157 O 886.269 -1.93042 -0.977935 0
M  V30 9158 C 886.864 -2.46949 2.31952 0
M  V30 9159 C 885.423 -3.00307 2.2692 0
M  V30 9160 C 884.57 -1.73436 2.16368 0
M  V30 9161 H 887.521 -0.583788 1.47572 0
M  V30 9162 H 887.542 -3.26144 1.95986 0
M  V30 9163 H 887.054 -2.03087 3.30722 0
M  V30 9164 H 885.155 -3.48571 1.31639 0
M  V30 9165 H 885.268 -3.56663 3.19887 0
M  V30 9166 H 883.632 -1.95934 1.62733 0
M  V30 9167 H 884.415 -1.31693 3.17036 0
M  V30 9168 N 886.86 -1.21182 -1.00761 0
M  V30 9169 C 887.792 -0.926523 -2.09638 0
M  V30 9170 C 888.805 0.0892511 -1.62555 0
M  V30 9171 O 889.994 -0.142915 -1.77927 0
M  V30 9172 C 887.094 -0.369175 -3.36883 0
M  V30 9173 C 886.267 -1.43866 -4.13063 0
M  V30 9174 C 885.326 -0.891015 -5.18601 0
M  V30 9175 O 884.352 -1.57384 -5.47009 0
M  V30 9176 N 885.554 0.295057 -5.7975 0
M  V30 9177 H 888.319 -1.8638 -2.34697 0
M  V30 9178 H 885.88 -1.11671 -1.17223 0
M  V30 9179 H 887.872 0.011534 -4.04698 0
M  V30 9180 H 886.442 0.472861 -3.09003 0
M  V30 9181 H 885.662 -1.99332 -3.40089 0
M  V30 9182 H 886.95 -2.15866 -4.60738 0
M  V30 9183 H 886.348 0.8669 -5.59018 0
M  V30 9184 H 884.905 0.617306 -6.4887 0
M  V30 9185 N 888.338 1.20213 -1.01915 0
M  V30 9186 C 889.587 1.88968 -0.705261 0
M  V30 9187 C 889.9 1.79869 0.768531 0
M  V30 9188 O 891.106 2.43783 1.19508 0
M  V30 9189 C 889.562 3.38911 -1.21109 0
M  V30 9190 C 889.17 3.5659 -2.71197 0
M  V30 9191 C 890.914 4.13204 -0.97275 0
M  V30 9192 C 888.821 5.00372 -3.15248 0
M  V30 9193 H 887.751 0.707715 -0.260107 0
M  V30 9194 H 890.402 1.35977 -1.23217 0
M  V30 9195 H 888.784 3.9124 -0.612152 0
M  V30 9196 H 889.958 3.14635 -3.36662 0
M  V30 9197 H 888.273 2.95671 -2.93202 0
M  V30 9198 H 890.87 5.19221 -1.27726 0
M  V30 9199 H 891.213 4.16201 0.09072 0
M  V30 9200 H 891.746 3.66983 -1.5352 0
M  V30 9201 H 888.485 5.02532 -4.20882 0
M  V30 9202 H 888.005 5.43127 -2.54505 0
M  V30 9203 H 889.684 5.68969 -3.08032 0
M  V30 9204 N 889.816 0.795718 1.36037 0
M  V30 9205 C 891.063 0.371024 1.99072 0
M  V30 9206 C 891.391 -1.05896 1.63145 0
M  V30 9207 O 890.646 -1.7474 0.881163 0
M  V30 9208 C 890.945 0.489038 3.54038 0
M  V30 9209 C 890.611 1.88075 4.09803 0
M  V30 9210 C 889.273 2.26152 4.24745 0
M  V30 9211 C 891.625 2.79174 4.40126 0
M  V30 9212 C 888.953 3.54718 4.67324 0
M  V30 9213 C 891.305 4.07175 4.8414 0
M  V30 9214 C 889.969 4.45266 4.97287 0
M  V30 9215 H 889.239 0.135767 0.728456 0
M  V30 9216 H 891.886 1.0144 1.62426 0
M  V30 9217 H 890.191 -0.237823 3.91078 0
M  V30 9218 H 891.888 0.141374 4.00751 0
M  V30 9219 H 888.478 1.57488 3.98617 0
M  V30 9220 H 892.662 2.51009 4.28145 0
M  V30 9221 H 887.918 3.84093 4.75691 0
M  V30 9222 H 892.092 4.77875 5.06565 0
M  V30 9223 H 889.719 5.44943 5.30038 0
M  V30 9224 N 891.294 -1.47756 0.548274 0
M  V30 9225 C 892.71 -1.58247 0.207401 0
M  V30 9226 C 892.91 -1.54804 -1.28988 0
M  V30 9227 O 891.966 -1.44673 -2.06944 0
M  V30 9228 C 893.279 -2.89129 0.826142 0
M  V30 9229 C 894.827 -3.02695 0.79655 0
M  V30 9230 C 895.302 -4.36264 1.3942 0
M  V30 9231 N 896.793 -4.42877 1.35698 0
M  V30 9232 C 897.528 -5.44773 1.78913 0
M  V30 9233 N 897.024 -6.53528 2.29942 0
M  V30 9234 N 898.817 -5.35765 1.70038 0
M  V30 9235 H 890.968 -1.48236 1.52117 0
M  V30 9236 H 893.231 -0.704957 0.633829 0
M  V30 9237 H 892.937 -2.97358 1.87806 0
M  V30 9238 H 892.811 -3.75891 0.313916 0
M  V30 9239 H 895.198 -2.94067 -0.246655 0
M  V30 9240 H 895.279 -2.17496 1.34644 0
M  V30 9241 H 894.923 -4.45646 2.43642 0
M  V30 9242 H 894.853 -5.20179 0.819827 0
M  V30 9243 H 897.344 -3.64874 0.983623 0
M  V30 9244 H 897.657 -7.27441 2.60863 0
M  V30 9245 H 896.002 -6.54442 2.33947 0
M  V30 9246 H 899.193 -4.49699 1.29955 0
M  V30 9247 H 899.366 -6.1504 2.04035 0
M  V30 9248 N 892.772 -0.284283 -1.55015 0
M  V30 9249 C 894.183 0.211681 -1.85496 0
M  V30 9250 C 894.534 1.54735 -1.2063 0
M  V30 9251 O 893.659 2.10594 -0.497918 0
M  V30 9252 C 894.254 0.390864 -3.36538 0
M  V30 9253 C 892.813 0.831055 -3.67111 0
M  V30 9254 C 891.96 -0.0703581 -2.77211 0
M  V30 9255 H 894.911 -0.505803 -1.50424 0
M  V30 9256 H 894.932 1.22803 -3.60138 0
M  V30 9257 H 894.444 -0.581409 -3.8372 0
M  V30 9258 H 892.545 1.81447 -3.25434 0
M  V30 9259 H 892.658 0.662026 -4.74504 0
M  V30 9260 H 891.022 0.447528 -2.50737 0
M  V30 9261 H 891.805 -1.03868 -3.2721 0
M  V30 9262 N 894.251 1.57596 -0.0117121 0
M  V30 9263 C 895.667 1.55837 0.344506 0
M  V30 9264 C 895.867 1.01557 1.74036 0
M  V30 9265 O 894.923 0.654563 2.43868 0
M  V30 9266 C 896.236 2.99973 0.209023 0
M  V30 9267 C 897.784 3.11717 0.283092 0
M  V30 9268 C 898.259 4.57659 0.176599 0
M  V30 9269 N 899.75 4.62608 0.234133 0
M  V30 9270 C 900.485 5.73132 0.175252 0
M  V30 9271 N 899.981 6.92768 0.0662888 0
M  V30 9272 N 901.774 5.61638 0.227972 0
M  V30 9273 H 893.925 1.91215 -0.924692 0
M  V30 9274 H 896.188 0.878807 -0.355531 0
M  V30 9275 H 895.894 3.4357 -0.751826 0
M  V30 9276 H 895.768 3.64075 0.98635 0
M  V30 9277 H 898.155 2.68043 1.23439 0
M  V30 9278 H 898.236 2.50369 -0.52431 0
M  V30 9279 H 897.88 5.02011 -0.771205 0
M  V30 9280 H 897.81 5.16967 1.00264 0
M  V30 9281 H 900.301 3.76549 0.319203 0
M  V30 9282 H 900.614 7.72795 0.0275765 0
M  V30 9283 H 898.959 6.94993 0.0317502 0
M  V30 9284 H 902.15 4.67063 0.311377 0
M  V30 9285 H 902.323 6.47754 0.178621 0
M  V30 9286 N 895.729 -0.261212 1.5542 0
M  V30 9287 C 896.639 -1.34493 1.92221 0
M  V30 9288 C 897.655 -1.53421 0.82086 0
M  V30 9289 O 898.831 -1.6732 1.12099 0
M  V30 9290 C 895.896 -2.68209 2.19692 0
M  V30 9291 C 894.957 -2.57927 3.43179 0
M  V30 9292 C 894.19 -3.85266 3.69331 0
M  V30 9293 O 894.413 -4.86493 2.97793 0
M  V30 9294 O 893.347 -3.8476 4.62865 0
M  V30 9295 H 897.173 -1.06278 2.84497 0
M  V30 9296 H 894.758 -0.460752 1.42118 0
M  V30 9297 H 896.64 -3.47252 2.38734 0
M  V30 9298 H 895.315 -2.96186 1.30597 0
M  V30 9299 H 894.222 -1.77219 3.2946 0
M  V30 9300 H 895.555 -2.34898 4.32532 0
M  V30 9301 N 897.207 -1.48554 -0.526253 0
M  V30 9302 C 898.139 -1.59446 -1.6465 0
M  V30 9303 C 899.152 -0.478525 -1.55608 0
M  V30 9304 O 900.341 -0.74953 -1.62001 0
M  V30 9305 C 897.441 -1.51164 -3.03319 0
M  V30 9306 C 896.614 -2.77861 -3.37805 0
M  V30 9307 C 895.673 -2.62982 -4.5577 0
M  V30 9308 O 894.699 -3.36876 -4.58806 0
M  V30 9309 N 895.901 -1.72847 -5.5417 0
M  V30 9310 H 898.666 -2.56055 -1.55743 0
M  V30 9311 H 896.227 -1.45325 -0.713606 0
M  V30 9312 H 898.219 -1.389 -3.80117 0
M  V30 9313 H 896.789 -0.625147 -3.06285 0
M  V30 9314 H 896.009 -3.04663 -2.50149 0
M  V30 9315 H 897.297 -3.61908 -3.57632 0
M  V30 9316 H 896.695 -1.12022 -5.54498 0
M  V30 9317 H 895.252 -1.6652 -6.3017 0
M  V30 9318 N 898.685 0.775411 -1.37205 0
M  V30 9319 C 899.615 1.90258 -1.35367 0
M  V30 9320 C 900.596 1.68634 -0.222864 0
M  V30 9321 O 901.781 1.89545 -0.422659 0
M  V30 9322 C 898.911 3.27488 -1.15623 0
M  V30 9323 C 897.865 3.63668 -2.25676 0
M  V30 9324 C 897.191 4.994 -1.91059 0
M  V30 9325 C 898.491 3.70797 -3.67841 0
M  V30 9326 H 900.185 1.92053 -2.29687 0
M  V30 9327 H 897.731 0.922597 -1.10563 0
M  V30 9328 H 899.684 4.05976 -1.12968 0
M  V30 9329 H 898.408 3.26117 -0.177573 0
M  V30 9330 H 897.067 2.87486 -2.2748 0
M  V30 9331 H 896.715 4.94565 -0.917324 0
M  V30 9332 H 896.415 5.24576 -2.64751 0
M  V30 9333 H 897.939 5.80291 -1.89985 0
M  V30 9334 H 899.353 4.39444 -3.68187 0
M  V30 9335 H 897.75 4.07468 -4.40556 0
M  V30 9336 H 898.82 2.71549 -4.01732 0
M  V30 9337 N 900.163 1.21714 1.00117 0
M  V30 9338 C 901.096 0.923113 2.08696 0
M  V30 9339 C 902.074 -0.130827 1.62073 0
M  V30 9340 O 903.258 -0.00103064 1.885 0
M  V30 9341 C 900.385 0.386807 3.36484 0
M  V30 9342 C 899.431 1.42414 4.0202 0
M  V30 9343 S 900.264 2.99466 4.43937 0
M  V30 9344 C 901.42 2.47452 5.74907 0
M  V30 9345 H 901.653 1.84258 2.33315 0
M  V30 9346 H 899.186 1.0473 1.1345 0
M  V30 9347 H 901.144 0.0839547 4.10414 0
M  V30 9348 H 899.805 -0.511413 3.09909 0
M  V30 9349 H 898.998 0.998593 4.94008 0
M  V30 9350 H 898.6 1.67527 3.34381 0
M  V30 9351 H 900.892 1.88177 6.50842 0
M  V30 9352 H 901.835 3.37898 6.22279 0
M  V30 9353 H 902.243 1.89027 5.31911 0
M  V30 9354 N 901.641 -1.19671 1.02551 0
M  V30 9355 C 902.571 -2.25009 0.623965 0
M  V30 9356 C 903.552 -1.66129 -0.36538 0
M  V30 9357 O 904.737 -1.92599 -0.248842 0
M  V30 9358 C 901.867 -3.47287 -0.0294869 0
M  V30 9359 C 900.821 -4.18818 0.881781 0
M  V30 9360 C 900.147 -5.34618 0.0936189 0
M  V30 9361 C 901.447 -4.73986 2.19396 0
M  V30 9362 H 903.141 -2.58851 1.50454 0
M  V30 9363 H 900.687 -1.24425 0.724872 0
M  V30 9364 H 902.64 -4.20168 -0.322016 0
M  V30 9365 H 901.364 -3.12635 -0.944838 0
M  V30 9366 H 900.023 -3.47815 1.15845 0
M  V30 9367 H 899.671 -4.9621 -0.823661 0
M  V30 9368 H 899.371 -5.83409 0.700568 0
M  V30 9369 H 900.895 -6.10297 -0.192249 0
M  V30 9370 H 902.309 -5.38639 1.96319 0
M  V30 9371 H 900.706 -5.3325 2.75254 0
M  V30 9372 H 901.776 -3.92238 2.85092 0
M  V30 9373 N 903.119 -0.802921 -1.35613 0
M  V30 9374 C 904.535 -0.486214 -1.52014 0
M  V30 9375 C 904.735 0.993219 -1.75321 0
M  V30 9376 O 903.791 1.77835 -1.79251 0
M  V30 9377 C 905.104 -1.32839 -2.69767 0
M  V30 9378 C 906.652 -1.32346 -2.83643 0
M  V30 9379 C 907.127 -2.14967 -4.04417 0
M  V30 9380 N 908.618 -2.12484 -4.11588 0
M  V30 9381 C 909.353 -2.73173 -5.04147 0
M  V30 9382 N 908.849 -3.42774 -6.02061 0
M  V30 9383 N 910.642 -2.62834 -4.96865 0
M  V30 9384 H 902.793 -1.76109 -1.18741 0
M  V30 9385 H 905.056 -0.74936 -0.580658 0
M  V30 9386 H 904.762 -2.37813 -2.5911 0
M  V30 9387 H 904.636 -0.979058 -3.64272 0
M  V30 9388 H 907.023 -0.281586 -2.93753 0
M  V30 9389 H 907.104 -1.71264 -1.90006 0
M  V30 9390 H 906.748 -3.19193 -3.95068 0
M  V30 9391 H 906.678 -1.73411 -4.97228 0
M  V30 9392 H 909.169 -1.61839 -3.41492 0
M  V30 9393 H 909.482 -3.86378 -6.69277 0
M  V30 9394 H 907.827 -3.46878 -6.02246 0
M  V30 9395 H 911.018 -2.08049 -4.19325 0
M  V30 9396 H 911.191 -3.10421 -5.68808 0
M  V30 9397 N 904.597 1.47463 -0.556102 0
M  V30 9398 C 905.56 2.28478 0.181743 0
M  V30 9399 C 906.56 1.36886 0.843738 0
M  V30 9400 O 907.75 1.59527 0.69977 0
M  V30 9401 C 904.882 3.16534 1.26566 0
M  V30 9402 H 906.075 2.95182 -0.529892 0
M  V30 9403 H 903.628 1.53134 -0.313005 0
M  V30 9404 H 904.363 2.5452 2.00973 0
M  V30 9405 H 904.148 3.83939 0.795798 0
M  V30 9406 H 905.638 3.77579 1.78393 0
M  V30 9407 N 906.075 0.2925 1.54862 0
M  V30 9408 C 907.023 -0.603186 2.24643 0
M  V30 9409 C 908.017 -1.1439 1.24946 0
M  V30 9410 O 909.223 -1.09552 1.42823 0
M  V30 9411 H 905.598 -0.213105 0.721173 0
M  V30 9412 H 907.569 0.00799278 2.98399 0
M  V30 9413 C 906.318 -1.76769 2.99413 0
M  V30 9414 H 905.641 -1.36084 3.75927 0
M  V30 9415 H 907.081 -2.37066 3.51533 0
M  V30 9416 C 905.54 -2.66669 2.05886 0
M  V30 9417 O 906.07 -3.67525 1.62136 0
M  V30 9418 N 904.276 -2.34216 1.7202 0
M  V30 9419 H 903.823 -1.52246 2.07795 0
M  V30 9420 H 903.781 -2.94635 1.09717 0
M  V30 9421 N 907.553 -1.57587 0.0200696 0
M  V30 9422 C 908.778 -1.96124 -0.674547 0
M  V30 9423 C 909.203 -0.896068 -1.65385 0
M  V30 9424 O 908.561 0.143925 -1.80728 0
M  V30 9425 C 908.609 -3.3376 -1.36517 0
M  V30 9426 O 907.713 -3.29483 -2.48022 0
M  V30 9427 H 907.054 -0.639719 -0.177919 0
M  V30 9428 H 909.584 -2.04447 0.0792317 0
M  V30 9429 H 909.594 -3.69785 -1.72403 0
M  V30 9430 H 908.269 -4.10832 -0.647265 0
M  V30 9431 H 906.846 -3.05162 -2.14314 0
M  V30 9432 N 909.032 0.252966 -1.55557 0
M  V30 9433 C 909.962 1.31691 -1.9282 0
M  V30 9434 C 910.943 1.50516 -0.7924 0
M  V30 9435 O 912.128 1.63225 -1.05219 0
M  V30 9436 C 909.258 2.67281 -2.21762 0
M  V30 9437 C 908.212 2.6316 -3.37536 0
M  V30 9438 C 907.538 4.02488 -3.52005 0
M  V30 9439 C 908.838 2.20675 -4.73392 0
M  V30 9440 H 910.532 1.00751 -2.81939 0
M  V30 9441 H 908.078 0.483219 -1.3565 0
M  V30 9442 H 910.031 3.41842 -2.46419 0
M  V30 9443 H 908.755 2.99845 -1.29463 0
M  V30 9444 H 907.414 1.91057 -3.12878 0
M  V30 9445 H 907.062 4.32307 -2.57137 0
M  V30 9446 H 906.762 4.00621 -4.29857 0
M  V30 9447 H 908.286 4.78758 -3.78977 0
M  V30 9448 H 909.7 2.84965 -4.97461 0
M  V30 9449 H 908.097 2.29931 -5.54303 0
M  V30 9450 H 909.167 1.15831 -4.70862 0
M  V30 9451 N 910.51 1.48831 0.518367 0
M  V30 9452 C 911.457 1.64216 1.62178 0
M  V30 9453 C 912.427 0.483942 1.58894 0
M  V30 9454 O 913.612 0.708857 1.77144 0
M  V30 9455 C 910.752 1.69867 3.00399 0
M  V30 9456 C 909.865 2.96875 3.1383 0
M  V30 9457 C 909 2.93613 4.42679 0
M  V30 9458 C 908.039 4.15276 4.4968 0
M  V30 9459 N 907.176 4.10024 5.69934 0
M  V30 9460 H 912.016 2.58439 1.48368 0
M  V30 9461 H 909.553 1.28154 0.722152 0
M  V30 9462 H 911.511 1.71124 3.8049 0
M  V30 9463 H 910.141 0.791249 3.12952 0
M  V30 9464 H 909.193 3.0531 2.26914 0
M  V30 9465 H 910.505 3.86863 3.14863 0
M  V30 9466 H 909.659 2.93337 5.31073 0
M  V30 9467 H 908.398 2.01375 4.44184 0
M  V30 9468 H 907.403 4.15816 3.59691 0
M  V30 9469 H 908.628 5.08687 4.49904 0
M  V30 9470 H 906.574 3.20613 5.72314 0
M  V30 9471 H 906.491 4.93728 5.72511 0
M  V30 9472 H 907.759 4.13824 6.60583 0
M  V30 9473 N 911.988 -0.768124 1.37614 0
M  V30 9474 C 912.935 -1.88151 1.33671 0
M  V30 9475 C 913.905 -1.64871 0.201645 0
M  V30 9476 O 915.09 -1.86739 0.391582 0
M  V30 9477 C 912.23 -3.25264 1.15314 0
M  V30 9478 C 911.343 -3.60473 2.38082 0
M  V30 9479 C 910.478 -4.86814 2.12569 0
M  V30 9480 C 909.517 -5.14765 3.31184 0
M  V30 9481 N 908.654 -6.32295 3.052 0
M  V30 9482 H 913.494 -1.90857 2.28862 0
M  V30 9483 H 911.031 -0.933048 1.13722 0
M  V30 9484 H 912.989 -4.04364 1.02691 0
M  V30 9485 H 911.619 -3.21924 0.237689 0
M  V30 9486 H 910.671 -2.7633 2.61431 0
M  V30 9487 H 911.983 -3.77065 3.26532 0
M  V30 9488 H 911.137 -5.73826 1.96999 0
M  V30 9489 H 909.876 -4.72333 1.21462 0
M  V30 9490 H 908.881 -4.26227 3.4729 0
M  V30 9491 H 910.106 -5.31153 4.23147 0
M  V30 9492 H 908.052 -6.19166 2.16726 0
M  V30 9493 H 907.969 -6.4932 3.87195 0
M  V30 9494 H 909.237 -7.22234 2.93254 0
M  V30 9495 N 913.466 -1.22244 -0.994698 0
M  V30 9496 C 914.429 -0.992308 -2.06606 0
M  V30 9497 C 915.429 0.0405872 -1.60749 0
M  V30 9498 O 916.619 -0.197737 -1.73074 0
M  V30 9499 C 913.751 -0.498499 -3.37236 0
M  V30 9500 H 914.944 -1.9429 -2.28455 0
M  V30 9501 H 912.497 -1.04087 -1.166 0
M  V30 9502 H 913.232 0.456531 -3.21071 0
M  V30 9503 H 913.017 -1.24367 -3.71854 0
M  V30 9504 H 914.507 -0.35768 -4.16065 0
M  V30 9505 N 914.944 1.19125 -1.03184 0
M  V30 9506 C 916.193 1.8821 -0.725264 0
M  V30 9507 C 916.506 1.80674 0.749411 0
M  V30 9508 O 917.712 2.45037 1.16915 0
M  V30 9509 C 916.168 3.37607 -1.24697 0
M  V30 9510 C 915.776 3.53693 -2.74964 0
M  V30 9511 C 917.52 4.12149 -1.01652 0
M  V30 9512 C 915.427 4.97001 -3.20538 0
M  V30 9513 H 914.357 0.704916 -0.267599 0
M  V30 9514 H 917.008 1.34663 -1.24652 0
M  V30 9515 H 915.39 3.90569 -0.653614 0
M  V30 9516 H 916.564 3.11046 -3.39981 0
M  V30 9517 H 914.879 2.92544 -2.96322 0
M  V30 9518 H 917.476 5.17837 -1.33226 0
M  V30 9519 H 917.819 4.16274 0.0465712 0
M  V30 9520 H 918.352 3.65334 -1.57403 0
M  V30 9521 H 915.091 4.9804 -4.26189 0
M  V30 9522 H 914.611 5.40398 -2.60251 0
M  V30 9523 H 916.29 5.65669 -3.14049 0
M  V30 9524 N 916.422 0.810101 1.35185 0
M  V30 9525 C 917.838 0.494269 1.51754 0
M  V30 9526 C 918.038 -0.983907 1.75845 0
M  V30 9527 O 917.094 -1.76882 1.80191 0
M  V30 9528 C 918.407 1.34268 2.69059 0
M  V30 9529 C 919.955 1.33848 2.82938 0
M  V30 9530 C 920.43 2.17109 4.03271 0
M  V30 9531 N 921.921 2.14664 4.10456 0
M  V30 9532 C 922.656 2.75843 5.02691 0
M  V30 9533 N 922.152 3.45962 6.00235 0
M  V30 9534 N 923.945 2.65465 4.95464 0
M  V30 9535 H 916.096 1.76736 1.17805 0
M  V30 9536 H 918.359 0.752429 0.576676 0
M  V30 9537 H 918.065 2.39183 2.57845 0
M  V30 9538 H 917.939 0.998362 3.63748 0
M  V30 9539 H 920.326 0.29716 2.936 0
M  V30 9540 H 920.407 1.72269 1.89095 0
M  V30 9541 H 920.051 3.21283 3.93369 0
M  V30 9542 H 919.981 1.76046 4.96302 0
M  V30 9543 H 922.472 1.63648 3.40628 0
M  V30 9544 H 922.785 3.89922 6.67219 0
M  V30 9545 H 921.13 3.50067 6.00398 0
M  V30 9546 H 924.321 2.1027 4.18215 0
M  V30 9547 H 924.494 3.13433 5.67154 0
M  V30 9548 N 917.9 -1.47166 0.563914 0
M  V30 9549 C 918.832 -2.28165 -0.217583 0
M  V30 9550 C 919.845 -1.37405 -0.873134 0
M  V30 9551 O 921.034 -1.6217 -0.745857 0
M  V30 9552 C 918.134 -3.11873 -1.32621 0
M  V30 9553 C 917.307 -4.30637 -0.766177 0
M  V30 9554 C 916.366 -4.95889 -1.76014 0
M  V30 9555 O 915.392 -5.54071 -1.3036 0
M  V30 9556 N 916.594 -4.91191 -3.09373 0
M  V30 9557 H 919.359 -2.95876 0.477256 0
M  V30 9558 H 916.92 -1.5687 0.40043 0
M  V30 9559 H 918.912 -3.52392 -1.99003 0
M  V30 9560 H 917.482 -2.46361 -1.92419 0
M  V30 9561 H 916.702 -3.94129 0.0745998 0
M  V30 9562 H 917.99 -5.07442 -0.371472 0
M  V30 9563 H 917.388 -4.45133 -3.49104 0
M  V30 9564 H 915.945 -5.35708 -3.71295 0
M  V30 9565 N 919.378 -0.300708 -1.54705 0
M  V30 9566 C 920.627 0.309428 -1.99312 0
M  V30 9567 C 920.94 1.55027 -1.19272 0
M  V30 9568 O 922.146 2.23498 -1.54146 0
M  V30 9569 C 920.602 0.601856 -3.54832 0
M  V30 9570 C 920.21 -0.620636 -4.4368 0
M  V30 9571 C 921.954 1.1732 -4.07966 0
M  V30 9572 C 919.861 -0.301376 -5.90632 0
M  V30 9573 H 918.791 0.119395 -0.744487 0
M  V30 9574 H 921.442 -0.409368 -1.78875 0
M  V30 9575 H 919.824 1.38024 -3.71168 0
M  V30 9576 H 920.998 -1.39685 -4.39118 0
M  V30 9577 H 919.313 -1.1106 -4.01316 0
M  V30 9578 H 921.91 1.42631 -5.15326 0
M  V30 9579 H 922.253 2.11537 -3.5855 0
M  V30 9580 H 922.786 0.456534 -3.95172 0
M  V30 9581 H 919.525 -1.21209 -6.44196 0
M  V30 9582 H 919.045 0.437574 -5.98202 0
M  V30 9583 H 920.724 0.097164 -6.46927 0
M  V30 9584 N 920.856 1.57574 -0.0284266 0
M  V30 9585 C 922.105 1.9095 0.649704 0
M  V30 9586 C 922.418 0.906421 1.7333 0
M  V30 9587 O 923.624 1.1314 2.46803 0
M  V30 9588 C 922.08 3.39061 1.20687 0
M  V30 9589 C 921.688 4.47726 0.156597 0
M  V30 9590 C 923.432 3.81505 1.86156 0
M  V30 9591 C 921.339 5.86935 0.725365 0
M  V30 9592 H 920.269 0.712589 0.24644 0
M  V30 9593 H 922.92 1.83261 -0.0936143 0
M  V30 9594 H 921.302 3.41679 2.00178 0
M  V30 9595 H 922.476 4.56667 -0.6158 0
M  V30 9596 H 920.791 4.14481 -0.399288 0
M  V30 9597 H 923.388 4.82865 2.29665 0
M  V30 9598 H 923.731 3.16529 2.70398 0
M  V30 9599 H 924.264 3.81307 1.13356 0
M  V30 9600 H 921.003 6.55453 -0.0789081 0
M  V30 9601 H 920.523 5.81602 1.46627 0
M  V30 9602 H 922.202 6.35483 1.21532 0
M  V30 9603 N 922.334 -0.244713 1.55689 0
M  V30 9604 C 923.244 -1.32447 1.93636 0
M  V30 9605 C 924.26 -1.52541 0.837086 0
M  V30 9606 O 925.436 -1.66121 1.13867 0
M  V30 9607 C 922.501 -2.65864 2.22525 0
M  V30 9608 C 921.562 -2.54273 3.45896 0
M  V30 9609 C 920.795 -3.81327 3.73397 0
M  V30 9610 O 921.018 -4.83307 3.02936 0
M  V30 9611 O 919.952 -3.79829 4.66919 0
M  V30 9612 H 923.778 -1.03255 2.85608 0
M  V30 9613 H 921.363 -0.445652 1.42598 0
M  V30 9614 H 923.245 -3.447 2.42404 0
M  V30 9615 H 921.92 -2.94784 1.33731 0
M  V30 9616 H 920.827 -1.73715 3.31321 0
M  V30 9617 H 922.16 -2.30297 4.34999 0
M  V30 9618 N 923.813 -1.49104 -0.510467 0
M  V30 9619 C 924.763 -1.6147 -1.6097 0
M  V30 9620 C 925.747 -0.470797 -1.53858 0
M  V30 9621 O 926.939 -0.723266 -1.61548 0
M  V30 9622 C 924.068 -1.67575 -2.99622 0
M  V30 9623 C 923.154 -2.87511 -3.11766 0
M  V30 9624 N 923.545 -4.11704 -2.93826 0
M  V30 9625 C 921.843 -2.85251 -3.42852 0
M  V30 9626 C 922.544 -4.92276 -3.09902 0
M  V30 9627 N 921.52 -4.2546 -3.38355 0
M  V30 9628 H 925.322 -2.5522 -1.45739 0
M  V30 9629 H 922.836 -1.45745 -0.716383 0
M  V30 9630 H 924.833 -1.74531 -3.78609 0
M  V30 9631 H 923.493 -0.749557 -3.1593 0
M  V30 9632 H 924.504 -4.41834 -2.70191 0
M  V30 9633 H 921.181 -2.0197 -3.65396 0
M  V30 9634 H 922.571 -6.00905 -3.00604 0
M  V30 9635 N 925.291 0.760815 -1.38019 0
M  V30 9636 C 926.519 1.55001 -1.37048 0
M  V30 9637 C 926.934 1.88754 0.0415261 0
M  V30 9638 O 926.291 1.52254 1.00624 0
M  V30 9639 C 926.342 2.8536 -2.21928 0
M  V30 9640 O 926.063 2.53049 -3.57628 0
M  V30 9641 C 927.564 3.79536 -2.29057 0
M  V30 9642 H 924.784 0.479844 -0.469032 0
M  V30 9643 H 927.328 0.942148 -1.81504 0
M  V30 9644 H 925.483 3.42542 -1.80953 0
M  V30 9645 H 925.897 3.36604 -4.02241 0
M  V30 9646 H 927.371 4.67977 -2.92749 0
M  V30 9647 H 927.848 4.19453 -1.30213 0
M  V30 9648 H 928.454 3.28281 -2.70392 0
M  V30 9649 N 926.769 1.22769 0.988202 0
M  V30 9650 C 927.679 1.01844 2.11341 0
M  V30 9651 C 928.695 -0.0346937 1.73965 0
M  V30 9652 O 929.871 0.159061 2.00771 0
M  V30 9653 C 926.936 0.603837 3.41401 0
M  V30 9654 C 925.997 1.73113 3.92849 0
M  V30 9655 C 925.23 1.33621 5.16702 0
M  V30 9656 O 925.453 0.217041 5.69987 0
M  V30 9657 O 924.387 2.15444 5.62021 0
M  V30 9658 H 928.213 1.96127 2.31879 0
M  V30 9659 H 925.798 1.01405 1.09715 0
M  V30 9660 H 927.68 0.383196 4.19654 0
M  V30 9661 H 926.355 -0.310082 3.22211 0
M  V30 9662 H 925.262 2.00634 3.15748 0
M  V30 9663 H 926.595 2.62308 4.1648 0
M  V30 9664 N 928.247 -1.18576 1.03814 0
M  V30 9665 C 929.194 -2.2212 0.626988 0
M  V30 9666 C 930.164 -1.62064 -0.363912 0
M  V30 9667 O 931.349 -1.89041 -0.258469 0
M  V30 9668 C 928.489 -3.45099 -0.00650133 0
M  V30 9669 C 927.602 -4.19503 1.03156 0
M  V30 9670 C 926.737 -5.29932 0.366852 0
M  V30 9671 C 925.776 -5.96104 1.39018 0
M  V30 9672 N 924.913 -6.98076 0.750625 0
M  V30 9673 H 929.753 -2.56646 1.51449 0
M  V30 9674 H 927.29 -1.26084 0.757702 0
M  V30 9675 H 929.248 -4.15363 -0.391108 0
M  V30 9676 H 927.878 -3.11201 -0.857536 0
M  V30 9677 H 926.93 -3.48092 1.53414 0
M  V30 9678 H 928.242 -4.64843 1.80893 0
M  V30 9679 H 927.396 -6.06657 -0.0720979 0
M  V30 9680 H 926.135 -4.85687 -0.442631 0
M  V30 9681 H 925.14 -5.18122 1.8393 0
M  V30 9682 H 926.365 -6.42432 2.20132 0
M  V30 9683 H 924.311 -6.55989 -0.0385981 0
M  V30 9684 H 924.228 -7.41655 1.46574 0
M  V30 9685 H 925.496 -7.78776 0.335986 0
M  V30 9686 N 929.725 -0.817259 -1.34754 0
M  V30 9687 C 930.688 -0.240611 -2.27934 0
M  V30 9688 C 931.688 0.578219 -1.50044 0
M  V30 9689 O 932.878 0.395148 -1.69659 0
M  V30 9690 C 930.01 0.663318 -3.34384 0
M  V30 9691 H 931.203 -1.06257 -2.80445 0
M  V30 9692 H 928.756 -0.588697 -1.4479 0
M  V30 9693 H 929.491 1.50855 -2.87077 0
M  V30 9694 H 929.276 0.0777388 -3.92023 0
M  V30 9695 H 930.766 1.06076 -4.03903 0
M  V30 9696 N 931.203 1.46865 -0.571711 0
M  V30 9697 C 932.449 2.0273 -0.0531858 0
M  V30 9698 C 932.782 1.44353 1.29907 0
M  V30 9699 O 932.057 0.604488 1.84868 0
M  V30 9700 C 932.34 3.60092 0.0243831 0
M  V30 9701 C 932.193 4.28874 -1.35599 0
M  V30 9702 C 933.512 4.33994 0.730563 0
M  V30 9703 H 930.631 0.736706 -0.0208018 0
M  V30 9704 H 933.273 1.75132 -0.736794 0
M  V30 9705 H 931.423 3.83736 0.606565 0
M  V30 9706 H 933.095 4.16527 -1.98249 0
M  V30 9707 H 931.338 3.88664 -1.92674 0
M  V30 9708 H 932.009 5.37561 -1.25429 0
M  V30 9709 H 934.485 4.1543 0.236098 0
M  V30 9710 H 933.361 5.43699 0.753836 0
M  V30 9711 H 933.622 4.04257 1.78967 0
M  V30 9712 N 932.681 0.308908 1.54543 0
M  V30 9713 C 933.958 -0.351558 1.92415 0
M  V30 9714 C 934.338 -1.71061 1.23699 0
M  V30 9715 O 933.686 -2.25394 0.3755 0
M  V30 9716 C 933.896 -0.458357 3.45977 0
M  V30 9717 C 935.244 -0.725524 4.18355 0
M  V30 9718 O 936.268 -0.541859 3.52054 0
M  V30 9719 O 935.127 -1.07884 5.35745 0
M  V30 9720 H 932.221 -0.197957 0.802958 0
M  V30 9721 H 934.767 0.357548 1.65891 0
M  V30 9722 H 933.539 0.496723 3.88134 0
M  V30 9723 H 933.162 -1.21562 3.78561 0
M  V30 9724 N 934.159 -1.57557 0.0367827 0
M  V30 9725 C 935.069 -2.14148 -0.958017 0
M  V30 9726 C 936.085 -1.09564 -1.35173 0
M  V30 9727 O 937.261 -1.4166 -1.43158 0
M  V30 9728 C 934.326 -2.6636 -2.21931 0
M  V30 9729 C 933.387 -3.85688 -1.8853 0
M  V30 9730 C 932.62 -4.35401 -3.08645 0
M  V30 9731 O 932.843 -3.8425 -4.21554 0
M  V30 9732 O 931.777 -5.27158 -2.90497 0
M  V30 9733 H 935.603 -2.99442 -0.506797 0
M  V30 9734 H 933.188 -1.48259 -0.184275 0
M  V30 9735 H 935.07 -2.99976 -2.9596 0
M  V30 9736 H 933.745 -1.84145 -2.66219 0
M  V30 9737 H 932.652 -3.56985 -1.11861 0
M  V30 9738 H 933.985 -4.69089 -1.49052 0
M  V30 9739 N 935.637 0.236453 -1.55816 0
M  V30 9740 C 936.569 1.31602 -1.87653 0
M  V30 9741 C 937.582 1.43782 -0.763584 0
M  V30 9742 O 938.771 1.44945 -1.04178 0
M  V30 9743 C 935.871 2.69342 -2.05689 0
M  V30 9744 C 935.044 2.79298 -3.36617 0
M  V30 9745 C 934.103 3.97952 -3.44268 0
M  V30 9746 O 933.129 3.86989 -4.17406 0
M  V30 9747 N 934.331 5.11594 -2.74321 0
M  V30 9748 H 937.096 1.04623 -2.80845 0
M  V30 9749 H 934.657 0.426534 -1.5618 0
M  V30 9750 H 936.649 3.47074 -2.08138 0
M  V30 9751 H 935.219 2.88984 -1.19192 0
M  V30 9752 H 934.439 1.8816 -3.46395 0
M  V30 9753 H 935.727 2.82908 -4.22895 0
M  V30 9754 H 935.125 5.23394 -2.14651 0
M  V30 9755 H 933.682 5.87422 -2.8245 0
M  V30 9756 N 937.115 1.49373 0.502552 0
M  V30 9757 C 938.063 1.66411 1.62512 0
M  V30 9758 C 939.057 0.530062 1.60893 0
M  V30 9759 O 940.263 0.709648 1.65421 0
M  V30 9760 H 936.638 0.524707 0.538689 0
M  V30 9761 H 938.609 2.60639 1.45293 0
M  V30 9762 C 937.358 1.74648 3.00655 0
M  V30 9763 H 936.681 2.61285 3.02606 0
M  V30 9764 H 938.121 1.90605 3.78742 0
M  V30 9765 C 936.58 0.490963 3.33303 0
M  V30 9766 O 937.11 -0.384039 3.9986 0
M  V30 9767 N 935.316 0.354375 2.88431 0
M  V30 9768 H 934.863 1.06742 2.34444 0
M  V30 9769 H 934.821 -0.484593 3.10643 0
M  V30 9770 N 938.594 -0.753485 1.38421 0
M  V30 9771 C 939.557 -1.84888 1.35459 0
M  V30 9772 C 940.557 -1.58764 0.255083 0
M  V30 9773 O 941.747 -1.66507 0.511978 0
M  V30 9774 C 938.879 -3.22361 1.10888 0
M  V30 9775 H 940.072 -1.88922 2.32913 0
M  V30 9776 H 937.625 -0.955199 1.23716 0
M  V30 9777 H 938.36 -3.23996 0.1404 0
M  V30 9778 H 938.145 -3.42717 1.90492 0
M  V30 9779 H 939.635 -4.02437 1.1151 0
M  V30 9780 N 940.072 -1.23292 -0.981677 0
M  V30 9781 C 941.004 -0.970782 -2.07626 0
M  V30 9782 C 942.017 0.0547506 -1.62708 0
M  V30 9783 O 943.206 -0.180623 -1.77584 0
M  V30 9784 C 940.306 -0.44055 -3.36024 0
M  V30 9785 C 939.479 -1.52595 -4.09919 0
M  V30 9786 C 938.538 -1.00082 -5.16595 0
M  V30 9787 O 937.564 -1.68951 -5.43548 0
M  V30 9788 N 938.766 0.172017 -5.80245 0
M  V30 9789 H 941.531 -1.91316 -2.30691 0
M  V30 9790 H 939.092 -1.14133 -1.14828 0
M  V30 9791 H 941.084 -0.0743111 -4.04632 0
M  V30 9792 H 939.654 0.407211 -3.09936 0
M  V30 9793 H 938.874 -2.06501 -3.35784 0
M  V30 9794 H 940.162 -2.2559 -4.56055 0
M  V30 9795 H 939.56 0.748129 -5.60731 0
M  V30 9796 H 938.117 0.479532 -6.50034 0
M  V30 9797 N 941.55 1.18024 -1.04442 0
M  V30 9798 C 942.778 1.92032 -0.770161 0
M  V30 9799 C 943.193 1.76391 0.673181 0
M  V30 9800 O 942.55 1.09604 1.45922 0
M  V30 9801 C 942.601 3.43328 -1.13173 0
M  V30 9802 O 942.322 3.5848 -2.51841 0
M  V30 9803 C 943.823 4.34427 -0.882523 0
M  V30 9804 H 941.043 0.609518 -0.280586 0
M  V30 9805 H 943.587 1.49711 -1.39308 0
M  V30 9806 H 941.742 3.83423 -0.553704 0
M  V30 9807 H 942.156 4.52166 -2.65794 0
M  V30 9808 H 943.63 5.39123 -1.18533 0
M  V30 9809 H 944.107 4.3882 0.18257 0
M  V30 9810 H 944.713 4.00035 -1.44403 0
M  V30 9811 N 943.028 0.824394 1.34319 0
M  V30 9812 C 943.96 0.204805 2.28283 0
M  V30 9813 C 944.973 -0.606162 1.51094 0
M  V30 9814 O 946.162 -0.435602 1.73103 0
M  V30 9815 C 943.262 -0.73139 3.30914 0
M  V30 9816 C 942.435 0.0370723 4.37384 0
M  V30 9817 C 941.494 -0.820272 5.19767 0
M  V30 9818 O 940.52 -0.264721 5.68584 0
M  V30 9819 N 941.722 -2.13984 5.39621 0
M  V30 9820 H 944.487 1.0121 2.82093 0
M  V30 9821 H 942.048 0.681494 1.46858 0
M  V30 9822 H 944.04 -1.30958 3.82926 0
M  V30 9823 H 942.61 -1.43943 2.77487 0
M  V30 9824 H 941.83 0.796578 3.86068 0
M  V30 9825 H 943.118 0.566014 5.05642 0
M  V30 9826 H 942.516 -2.61492 5.01636 0
M  V30 9827 H 941.073 -2.66685 5.94746 0
M  V30 9828 N 944.506 -1.46559 0.579492 0
M  V30 9829 C 945.416 -2.34066 -0.15816 0
M  V30 9830 C 946.432 -1.49556 -0.88932 0
M  V30 9831 O 947.608 -1.82434 -0.853226 0
M  V30 9832 C 944.673 -3.26683 -1.161 0
M  V30 9833 C 943.734 -4.27092 -0.434855 0
M  V30 9834 C 942.967 -5.15283 -1.38992 0
M  V30 9835 O 943.19 -5.06345 -2.62623 0
M  V30 9836 O 942.124 -5.95099 -0.902253 0
M  V30 9837 H 945.95 -2.98488 0.560234 0
M  V30 9838 H 943.535 -1.45482 0.339918 0
M  V30 9839 H 945.417 -3.8383 -1.73932 0
M  V30 9840 H 944.092 -2.64862 -1.86091 0
M  V30 9841 H 942.999 -3.73641 0.185224 0
M  V30 9842 H 944.332 -4.9169 0.224031 0
M  V30 9843 N 945.984 -0.3171 -1.54377 0
M  V30 9844 C 946.916 0.58571 -2.2159 0
M  V30 9845 C 947.929 1.08495 -1.21378 0
M  V30 9846 O 949.118 0.999638 -1.47883 0
M  V30 9847 C 946.218 1.8157 -2.86156 0
M  V30 9848 C 945.391 1.45625 -4.12447 0
M  V30 9849 C 944.45 2.54308 -4.60667 0
M  V30 9850 O 943.476 2.18724 -5.25498 0
M  V30 9851 N 944.678 3.85129 -4.34345 0
M  V30 9852 H 947.443 0.0102247 -2.99698 0
M  V30 9853 H 945.004 -0.140011 -1.61293 0
M  V30 9854 H 946.996 2.53657 -3.15341 0
M  V30 9855 H 945.566 2.29919 -2.11793 0
M  V30 9856 H 944.786 0.567294 -3.90097 0
M  V30 9857 H 946.074 1.19169 -4.94648 0
M  V30 9858 H 945.472 4.16841 -3.8244 0
M  V30 9859 H 944.029 4.53466 -4.68201 0
M  V30 9860 N 947.462 1.57535 -0.0451378 0
M  V30 9861 C 948.372 2.14653 0.946646 0
M  V30 9862 C 949.388 1.10279 1.3459 0
M  V30 9863 O 950.564 1.42417 1.42405 0
M  V30 9864 C 947.629 2.67533 2.20515 0
M  V30 9865 C 946.69 3.86682 1.86481 0
M  V30 9866 C 945.923 4.37031 3.06332 0
M  V30 9867 O 946.146 3.86481 4.1951 0
M  V30 9868 O 945.08 5.28691 2.87697 0
M  V30 9869 H 948.906 2.99706 0.49091 0
M  V30 9870 H 946.491 1.48355 0.17641 0
M  V30 9871 H 948.373 3.01542 2.94365 0
M  V30 9872 H 947.048 1.85554 2.65238 0
M  V30 9873 H 945.955 3.57573 1.09966 0
M  V30 9874 H 947.288 4.69873 1.46562 0
M  V30 9875 N 948.94 -0.228186 1.55939 0
M  V30 9876 C 950.188 -0.951668 1.78291 0
M  V30 9877 C 950.509 -1.85132 0.612474 0
M  V30 9878 O 949.779 -1.92356 -0.370942 0
M  V30 9879 H 948.359 -0.354388 0.657585 0
M  V30 9880 H 951.021 -0.241635 1.93396 0
M  V30 9881 H 950.117 -1.56239 2.70177 0
M  V30 9882 N 950.418 -1.49637 -0.494624 0
M  V30 9883 C 951.665 -1.59445 -1.24834 0
M  V30 9884 C 951.993 -0.284028 -1.92415 0
M  V30 9885 O 951.248 0.728519 -1.81634 0
M  V30 9886 C 951.547 -2.70749 -2.33302 0
M  V30 9887 C 951.213 -4.12034 -1.83135 0
M  V30 9888 C 949.875 -4.50482 -1.69173 0
M  V30 9889 C 952.227 -5.00432 -1.4566 0
M  V30 9890 C 949.555 -5.75093 -1.16124 0
M  V30 9891 C 951.907 -6.25568 -0.940608 0
M  V30 9892 C 950.571 -6.62839 -0.787432 0
M  V30 9893 H 949.841 -0.583451 -0.456799 0
M  V30 9894 H 952.488 -1.8349 -0.548044 0
M  V30 9895 H 950.793 -2.407 -3.09145 0
M  V30 9896 H 952.49 -2.75546 -2.91334 0
M  V30 9897 H 949.08 -3.8169 -1.94964 0
M  V30 9898 H 953.264 -4.71379 -1.55291 0
M  V30 9899 H 948.52 -6.02665 -1.02982 0
M  V30 9900 H 952.694 -6.93439 -0.641467 0
M  V30 9901 H 950.321 -7.59279 -0.374191 0
M  V30 9902 N 951.896 0.746133 -1.38819 0
M  V30 9903 C 953.142 1.50768 -1.35635 0
M  V30 9904 C 953.475 1.94132 0.0512435 0
M  V30 9905 O 952.75 1.65979 1.01396 0
M  V30 9906 C 953.033 2.7551 -2.31875 0
M  V30 9907 C 952.886 2.38236 -3.81528 0
M  V30 9908 C 954.205 3.77566 -2.26124 0
M  V30 9909 H 951.324 0.546922 -0.494009 0
M  V30 9910 H 953.966 0.854017 -1.69725 0
M  V30 9911 H 952.116 3.31285 -2.02935 0
M  V30 9912 H 953.788 1.88178 -4.21173 0
M  V30 9913 H 952.031 1.70601 -3.98846 0
M  V30 9914 H 952.702 3.27517 -4.44339 0
M  V30 9915 H 955.178 3.31349 -2.51689 0
M  V30 9916 H 954.054 4.62531 -2.95561 0
M  V30 9917 H 954.315 4.23689 -1.26254 0
M  V30 9918 N 953.375 1.23811 0.975125 0
M  V30 9919 C 954.305 1.04846 2.08638 0
M  V30 9920 C 955.286 -0.0362859 1.70061 0
M  V30 9921 O 956.471 0.12937 1.93769 0
M  V30 9922 C 953.601 0.644534 3.41267 0
M  V30 9923 C 952.555 1.67722 3.93768 0
M  V30 9924 C 951.881 1.12857 5.22654 0
M  V30 9925 C 953.181 3.07147 4.22443 0
M  V30 9926 H 954.875 1.97795 2.24761 0
M  V30 9927 H 952.421 0.952397 1.08006 0
M  V30 9928 H 954.374 0.498887 4.18436 0
M  V30 9929 H 953.098 -0.320641 3.25022 0
M  V30 9930 H 951.757 1.81095 3.18748 0
M  V30 9931 H 951.405 0.154227 5.02764 0
M  V30 9932 H 951.105 1.81862 5.58749 0
M  V30 9933 H 952.629 0.994891 6.0244 0
M  V30 9934 H 954.043 2.97045 4.90344 0
M  V30 9935 H 952.44 3.73437 4.6975 0
M  V30 9936 H 953.51 3.55743 3.29507 0
M  V30 9937 N 954.853 -1.17469 1.05066 0
M  V30 9938 C 956.101 -1.87327 0.758485 0
M  V30 9939 C 956.422 -1.81358 -0.716549 0
M  V30 9940 O 955.692 -1.23868 -1.51768 0
M  V30 9941 H 954.272 -0.693512 0.277579 0
M  V30 9942 H 956.934 -1.4251 1.32954 0
M  V30 9943 H 956.03 -2.93101 1.0723 0
M  V30 9944 N 956.331 -0.831506 -1.3388 0
M  V30 9945 C 957.261 -0.274378 -2.31882 0
M  V30 9946 C 958.242 0.613872 -1.58637 0
M  V30 9947 O 959.427 0.538961 -1.86571 0
M  V30 9948 C 956.557 0.557498 -3.42796 0
M  V30 9949 C 955.511 -0.234337 -4.27358 0
M  V30 9950 C 954.837 0.720825 -5.29819 0
M  V30 9951 C 956.137 -1.44732 -5.01847 0
M  V30 9952 H 957.831 -1.09322 -2.78728 0
M  V30 9953 H 955.377 -0.527136 -1.34005 0
M  V30 9954 H 957.33 0.957501 -4.10378 0
M  V30 9955 H 956.054 1.40947 -2.94621 0
M  V30 9956 H 954.713 -0.61581 -3.61391 0
M  V30 9957 H 954.361 1.569 -4.77903 0
M  V30 9958 H 954.061 0.195171 -5.87276 0
M  V30 9959 H 955.585 1.1185 -6.00268 0
M  V30 9960 H 956.999 -1.12087 -5.62236 0
M  V30 9961 H 955.396 -1.90923 -5.68919 0
M  V30 9962 H 956.466 -2.22099 -4.31045 0
M  V30 9963 N 957.809 1.4625 -0.587256 0
M  V30 9964 C 959.034 2.07252 -0.0784517 0
M  V30 9965 C 959.459 1.43239 1.21919 0
M  V30 9966 O 958.817 0.517791 1.73749 0
M  V30 9967 C 958.865 3.60534 0.0691037 0
M  V30 9968 O 957.969 3.96773 1.12448 0
M  V30 9969 H 957.31 0.660825 -0.064859 0
M  V30 9970 H 959.84 1.87819 -0.811491 0
M  V30 9971 H 959.85 4.0708 0.273826 0
M  V30 9972 H 958.525 4.06516 -0.878514 0
M  V30 9973 H 957.102 3.6193 0.897852 0
M  V30 9974 N 959.287 0.325282 1.54207 0
M  V30 9975 C 960.197 -0.548778 2.28091 0
M  V30 9976 C 961.213 -1.12772 1.32508 0
M  V30 9977 O 962.389 -1.14732 1.65525 0
M  V30 9978 C 959.454 -1.69284 3.02562 0
M  V30 9979 C 958.515 -1.14553 4.13734 0
M  V30 9980 C 957.748 -2.23506 4.84645 0
M  V30 9981 O 957.971 -3.43884 4.55082 0
M  V30 9982 O 956.905 -1.88828 5.71513 0
M  V30 9983 H 960.731 0.0512974 3.03657 0
M  V30 9984 H 958.316 0.0909159 1.49123 0
M  V30 9985 H 960.198 -2.35887 3.49192 0
M  V30 9986 H 958.873 -2.27906 2.2987 0
M  V30 9987 H 957.78 -0.444532 3.71449 0
M  V30 9988 H 959.113 -0.60441 4.88475 0
M  V30 9989 N 960.765 -1.57509 0.0534917 0
M  V30 9990 C 961.99 -1.97511 -0.632794 0
M  V30 9991 C 962.415 -0.930947 -1.63447 0
M  V30 9992 O 961.773 0.105558 -1.80992 0
M  V30 9993 C 961.821 -3.3658 -1.29407 0
M  V30 9994 O 960.925 -3.3467 -2.40977 0
M  V30 9995 H 960.266 -0.643349 -0.16431 0
M  V30 9996 H 962.796 -2.04232 0.12258 0
M  V30 9997 H 962.806 -3.73359 -1.64521 0
M  V30 9998 H 961.481 -4.12113 -0.559976 0
M  V30 9999 H 960.058 -3.09639 -2.07793 0
M  V30 10000 N 962.243 0.219913 -1.56058 0
M  V30 10001 C 963.153 1.29349 -1.95719 0
M  V30 10002 C 964.169 1.5119 -0.861248 0
M  V30 10003 O 965.345 1.64289 -1.16495 0
M  V30 10004 C 962.41 2.6229 -2.26726 0
M  V30 10005 C 961.471 2.48738 -3.49897 0
M  V30 10006 C 960.704 3.75339 -3.79416 0
M  V30 10007 O 960.927 4.78427 -3.10586 0
M  V30 10008 O 959.861 3.72352 -4.72903 0
M  V30 10009 H 963.687 0.986979 -2.87215 0
M  V30 10010 H 961.272 0.42291 -1.43289 0
M  V30 10011 H 963.154 3.408 -2.47857 0
M  V30 10012 H 961.829 2.92619 -1.38404 0
M  V30 10013 H 960.736 1.68422 -3.34043 0
M  V30 10014 H 962.069 2.23347 -4.38608 0
M  V30 10015 N 963.721 1.49897 0.486681 0
M  V30 10016 C 964.631 1.70379 1.6127 0
M  V30 10017 C 965.647 0.58659 1.63814 0
M  V30 10018 O 966.823 0.863044 1.81971 0
M  V30 10019 C 963.888 1.77911 2.97571 0
M  V30 10020 C 962.949 3.01569 3.0554 0
M  V30 10021 C 962.182 3.08732 4.35339 0
M  V30 10022 O 962.405 2.23099 5.2496 0
M  V30 10023 O 961.339 4.01325 4.48578 0
M  V30 10024 H 965.165 2.65799 1.46916 0
M  V30 10025 H 962.75 1.33808 0.664516 0
M  V30 10026 H 964.632 1.85135 3.78554 0
M  V30 10027 H 963.307 0.856722 3.12157 0
M  V30 10028 H 962.214 2.99854 2.23693 0
M  V30 10029 H 963.547 3.93335 2.95886 0
M  V30 10030 N 965.199 -0.738761 1.39212 0
M  V30 10031 C 966.146 -1.85273 1.37631 0
M  V30 10032 C 967.116 -1.64407 0.236572 0
M  V30 10033 O 968.301 -1.85866 0.431104 0
M  V30 10034 C 965.441 -3.22745 1.22188 0
M  V30 10035 C 964.554 -3.55342 2.45674 0
M  V30 10036 C 963.689 -4.82195 2.22847 0
M  V30 10037 C 962.728 -5.07625 3.42029 0
M  V30 10038 N 961.865 -6.25679 3.18543 0
M  V30 10039 H 966.705 -1.85959 2.32859 0
M  V30 10040 H 964.242 -0.908716 1.15675 0
M  V30 10041 H 966.2 -4.02095 1.11245 0
M  V30 10042 H 964.83 -3.21347 0.30592 0
M  V30 10043 H 963.882 -2.70722 2.67233 0
M  V30 10044 H 965.194 -3.70054 3.34457 0
M  V30 10045 H 964.348 -5.69518 2.09126 0
M  V30 10046 H 963.087 -4.6965 1.31454 0
M  V30 10047 H 962.092 -4.18765 3.56253 0
M  V30 10048 H 963.317 -5.22058 4.34319 0
M  V30 10049 H 961.263 -6.14429 2.2981 0
M  V30 10050 H 961.18 -6.40961 4.0088 0
M  V30 10051 H 962.448 -7.15851 3.08508 0
M  V30 10052 N 966.677 -1.24326 -0.968545 0
M  V30 10053 C 967.61 -0.978121 -2.06175 0
M  V30 10054 C 968.588 0.0878107 -1.62363 0
M  V30 10055 O 969.772 -0.0489472 -1.88436 0
M  V30 10056 C 966.899 -0.475884 -3.3534 0
M  V30 10057 C 965.945 -1.53023 -3.98103 0
M  V30 10058 S 966.778 -3.11131 -4.35841 0
M  V30 10059 C 967.934 -2.62608 -5.68144 0
M  V30 10060 H 968.167 -1.9038 -2.28348 0
M  V30 10061 H 965.7 -1.07701 -1.10633 0
M  V30 10062 H 967.658 -0.192739 -4.10047 0
M  V30 10063 H 966.319 0.429067 -3.11156 0
M  V30 10064 H 965.512 -1.12922 -4.91187 0
M  V30 10065 H 965.114 -1.76334 -3.29822 0
M  V30 10066 H 967.406 -2.05367 -6.45624 0
M  V30 10067 H 968.349 -3.54277 -6.13101 0
M  V30 10068 H 968.757 -2.03063 -5.26712 0
M  V30 10069 N 968.156 1.1691 -1.05688 0
M  V30 10070 C 969.433 1.83266 -0.683601 0
M  V30 10071 C 969.813 1.93858 0.835602 0
M  V30 10072 O 969.161 1.47696 1.7435 0
M  V30 10073 C 969.371 3.20625 -1.37842 0
M  V30 10074 C 970.719 3.96473 -1.51967 0
M  V30 10075 O 971.743 3.30122 -1.33783 0
M  V30 10076 O 970.602 5.15393 -1.81749 0
M  V30 10077 H 967.696 0.791028 -0.241254 0
M  V30 10078 H 970.242 1.24165 -1.15677 0
M  V30 10079 H 969.014 3.07914 -2.41463 0
M  V30 10080 H 968.637 3.87398 -0.894921 0
M  V30 10081 N 969.634 0.838594 1.33437 0
M  V30 10082 C 970.584 0.243681 2.26694 0
M  V30 10083 C 971.568 -0.601168 1.49247 0
M  V30 10084 O 972.76 -0.453181 1.711 0
M  V30 10085 C 969.889 -0.580525 3.38356 0
M  V30 10086 C 968.975 0.275819 4.23202 0
M  V30 10087 N 969.366 1.3544 4.87329 0
M  V30 10088 C 967.664 0.0628047 4.45956 0
M  V30 10089 C 968.365 1.87991 5.50486 0
M  V30 10090 N 967.341 1.18143 5.30607 0
M  V30 10091 H 971.143 1.06849 2.73789 0
M  V30 10092 H 968.657 0.683019 1.47338 0
M  V30 10093 H 970.654 -1.02301 4.04153 0
M  V30 10094 H 969.314 -1.40331 2.92809 0
M  V30 10095 H 970.325 1.73729 4.87892 0
M  V30 10096 H 967.002 -0.726563 4.11129 0
M  V30 10097 H 968.392 2.78312 6.11549 0
M  V30 10098 N 971.112 -1.45937 0.595003 0
M  V30 10099 C 972.528 -1.57507 0.257641 0
M  V30 10100 C 972.728 -1.58829 -1.23998 0
M  V30 10101 O 971.784 -1.51183 -2.02237 0
M  V30 10102 C 973.097 -2.86354 0.917708 0
M  V30 10103 C 974.645 -3.00007 0.892446 0
M  V30 10104 C 975.12 -4.31607 1.53229 0
M  V30 10105 N 976.611 -4.38336 1.49719 0
M  V30 10106 C 977.346 -5.38805 1.96154 0
M  V30 10107 N 976.842 -6.45882 2.50617 0
M  V30 10108 N 978.635 -5.30084 1.86997 0
M  V30 10109 H 970.786 -1.43322 1.56756 0
M  V30 10110 H 973.049 -0.684436 0.655936 0
M  V30 10111 H 972.755 -2.91233 1.97171 0
M  V30 10112 H 972.629 -3.74703 0.433344 0
M  V30 10113 H 975.016 -2.94703 -0.152975 0
M  V30 10114 H 975.097 -2.13103 1.41495 0
M  V30 10115 H 974.741 -4.3767 2.57697 0
M  V30 10116 H 974.671 -5.17308 0.984903 0
M  V30 10117 H 977.162 -3.6156 1.09921 0
M  V30 10118 H 977.475 -7.18774 2.83874 0
M  V30 10119 H 975.82 -6.46668 2.54649 0
M  V30 10120 H 979.011 -4.45337 1.44196 0
M  V30 10121 H 979.184 -6.08237 2.23499 0
M  V30 10122 N 972.59 -0.333456 -1.54032 0
M  V30 10123 C 973.836 0.266527 -2.01041 0
M  V30 10124 C 974.169 1.51006 -1.2211 0
M  V30 10125 O 973.444 1.92078 -0.306016 0
M  V30 10126 C 973.727 0.59078 -3.55221 0
M  V30 10127 C 973.58 -0.664143 -4.4487 0
M  V30 10128 C 974.899 1.40447 -4.17088 0
M  V30 10129 H 972.018 0.0953979 -0.7308 0
M  V30 10130 H 974.66 -0.451995 -1.84545 0
M  V30 10131 H 972.81 1.20292 -3.69408 0
M  V30 10132 H 974.482 -1.30227 -4.42537 0
M  V30 10133 H 972.725 -1.29106 -4.14143 0
M  V30 10134 H 973.396 -0.392664 -5.50602 0
M  V30 10135 H 975.872 0.886946 -4.06537 0
M  V30 10136 H 974.748 1.6001 -5.2506 0
M  V30 10137 H 975.009 2.40357 -3.71054 0
M  V30 10138 N 974.068 1.57479 -0.061844 0
M  V30 10139 C 975.308 1.94982 0.613309 0
M  V30 10140 C 975.672 0.940729 1.67375 0
M  V30 10141 O 976.873 1.20307 2.40374 0
M  V30 10142 C 975.144 3.37208 1.18429 0
M  V30 10143 S 976.703 3.96678 1.87596 0
M  V30 10144 H 973.521 0.681969 0.201096 0
M  V30 10145 H 976.123 1.95045 -0.133328 0
M  V30 10146 H 974.827 4.08441 0.400522 0
M  V30 10147 H 974.358 3.40665 1.96751 0
M  V30 10148 H 976.373 3.82772 3.15754 0
M  V30 10149 N 975.546 -0.211634 1.56173 0
M  V30 10150 C 976.957 -0.777776 1.69728 0
M  V30 10151 C 977.308 -1.84566 0.66558 0
M  V30 10152 O 976.433 -2.15639 -0.181338 0
M  V30 10153 C 977.028 -1.41757 3.07718 0
M  V30 10154 C 975.587 -1.93098 3.23094 0
M  V30 10155 C 974.734 -0.794785 2.65666 0
M  V30 10156 H 977.685 0.0131839 1.58695 0
M  V30 10157 H 977.706 -2.28662 3.04128 0
M  V30 10158 H 977.218 -0.640114 3.82785 0
M  V30 10159 H 975.319 -2.73615 2.52914 0
M  V30 10160 H 975.432 -2.10414 4.30422 0
M  V30 10161 H 973.796 -1.20473 2.24407 0
M  V30 10162 H 974.579 -0.0298408 3.43287 0
M  V30 10163 N 977.024 -1.50153 -0.478725 0
M  V30 10164 C 978.435 -1.53706 -1.05978 0
M  V30 10165 C 978.786 -0.336112 -1.933 0
M  V30 10166 O 977.911 0.551803 -2.09246 0
M  V30 10167 C 978.506 -2.78541 -1.92874 0
M  V30 10168 C 977.065 -2.848 -2.46102 0
M  V30 10169 C 976.212 -2.47902 -1.24257 0
M  V30 10170 H 979.163 -1.56528 -0.261664 0
M  V30 10171 H 979.184 -2.59964 -2.77847 0
M  V30 10172 H 978.696 -3.6593 -1.29293 0
M  V30 10173 H 976.797 -2.01744 -3.13257 0
M  V30 10174 H 976.91 -3.87511 -2.81731 0
M  V30 10175 H 975.274 -2.0017 -1.57493 0
M  V30 10176 H 976.057 -3.3759 -0.62351 0
M  V30 10177 N 978.502 0.731368 -1.39602 0
M  V30 10178 C 979.432 1.85855 -1.41351 0
M  V30 10179 C 980.413 1.67839 -0.2764 0
M  V30 10180 O 981.598 1.88104 -0.482747 0
M  V30 10181 C 978.728 3.23644 -1.25983 0
M  V30 10182 C 977.682 3.56304 -2.37132 0
M  V30 10183 C 977.008 4.93069 -2.0685 0
M  V30 10184 C 978.308 3.58906 -3.79452 0
M  V30 10185 H 980.002 1.84648 -2.3568 0
M  V30 10186 H 977.548 0.886955 -1.13442 0
M  V30 10187 H 979.501 4.02176 -1.25826 0
M  V30 10188 H 978.225 3.25387 -0.281234 0
M  V30 10189 H 976.884 2.80104 -2.36511 0
M  V30 10190 H 976.532 4.91396 -1.0742 0
M  V30 10191 H 976.232 5.15888 -2.81306 0
M  V30 10192 H 977.756 5.73953 -2.0835 0
M  V30 10193 H 979.17 4.27508 -3.81982 0
M  V30 10194 H 977.567 3.93246 -4.53297 0
M  V30 10195 H 978.637 2.58631 -4.10168 0
M  V30 10196 N 979.98 1.24838 0.961938 0
M  V30 10197 C 981.205 1.11967 1.7458 0
M  V30 10198 C 981.63 -0.323287 1.85301 0
M  V30 10199 O 980.988 -1.23412 1.32812 0
M  V30 10200 C 981.036 1.77066 3.14134 0
M  V30 10201 O 980.14 1.04534 3.98932 0
M  V30 10202 H 979.481 0.391338 0.536424 0
M  V30 10203 H 982.011 1.65259 1.20626 0
M  V30 10204 H 982.021 1.83056 3.64629 0
M  V30 10205 H 980.696 2.82052 3.05646 0
M  V30 10206 H 979.273 1.06372 3.57407 0
M  V30 10207 N 981.458 -1.16348 1.06306 0
M  V30 10208 C 982.408 -2.18717 0.643947 0
M  V30 10209 C 983.392 -1.57574 -0.325445 0
M  V30 10210 O 984.584 -1.76439 -0.140868 0
M  V30 10211 C 981.713 -3.43285 0.0320266 0
M  V30 10212 C 980.799 -4.11504 1.02592 0
M  V30 10213 N 981.19 -4.55374 2.20155 0
M  V30 10214 C 979.488 -4.37691 0.856887 0
M  V30 10215 C 980.189 -5.08149 2.83124 0
M  V30 10216 N 979.165 -5.01042 2.10851 0
M  V30 10217 H 982.967 -2.50353 1.53951 0
M  V30 10218 H 980.481 -1.328 0.934763 0
M  V30 10219 H 982.478 -4.15917 -0.286064 0
M  V30 10220 H 981.138 -3.13137 -0.858786 0
M  V30 10221 H 982.149 -4.49101 2.57931 0
M  V30 10222 H 978.826 -4.17496 0.0180742 0
M  V30 10223 H 980.216 -5.52131 3.82885 0
M  V30 10224 N 982.937 -0.845659 -1.3299 0
M  V30 10225 C 984.162 -0.457435 -2.02293 0
M  V30 10226 C 984.587 0.935634 -1.63179 0
M  V30 10227 O 983.945 1.61297 -0.827835 0
M  V30 10228 C 983.993 -0.593665 -3.5568 0
M  V30 10229 O 983.097 0.37729 -4.10671 0
M  V30 10230 H 982.438 -0.185022 -0.637701 0
M  V30 10231 H 984.968 -1.14237 -1.69738 0
M  V30 10232 H 984.978 -0.477834 -4.05192 0
M  V30 10233 H 983.653 -1.60957 -3.83491 0
M  V30 10234 H 982.23 0.218448 -3.7226 0
M  V30 10235 N 984.415 1.45619 -0.602734 0
M  V30 10236 C 985.325 2.34288 0.120902 0
M  V30 10237 C 986.341 1.50952 0.865414 0
M  V30 10238 O 987.517 1.83768 0.824094 0
M  V30 10239 C 984.582 3.28489 1.10888 0
M  V30 10240 C 983.643 4.2773 0.366853 0
M  V30 10241 C 982.876 5.17429 1.30776 0
M  V30 10242 O 983.099 5.10459 2.54535 0
M  V30 10243 O 982.033 5.96459 0.807464 0
M  V30 10244 H 985.859 2.97559 -0.60765 0
M  V30 10245 H 983.444 1.44922 -0.363019 0
M  V30 10246 H 985.326 3.86549 1.67803 0
M  V30 10247 H 984.001 2.67789 1.81854 0
M  V30 10248 H 982.908 3.73299 -0.244643 0
M  V30 10249 H 984.241 4.91271 -0.302226 0
M  V30 10250 N 985.893 0.34162 1.53853 0
M  V30 10251 C 987.118 -0.259608 2.05769 0
M  V30 10252 C 987.543 -1.43588 1.21507 0
M  V30 10253 O 986.901 -1.79856 0.228364 0
M  V30 10254 C 986.949 -0.654455 3.54611 0
M  V30 10255 O 986.053 -1.75472 3.73207 0
M  V30 10256 H 985.394 -0.0434621 0.662576 0
M  V30 10257 H 987.924 0.495274 1.98515 0
M  V30 10258 H 987.934 -0.932142 3.97209 0
M  V30 10259 H 986.609 0.205779 4.15391 0
M  V30 10260 H 985.186 -1.47444 3.42512 0
M  V30 10261 N 987.371 -1.57444 0.0701946 0
M  V30 10262 C 988.618 -1.93429 -0.59929 0
M  V30 10263 C 988.946 -0.9501 -1.69715 0
M  V30 10264 O 988.201 0.0345377 -1.9567 0
M  V30 10265 C 988.5 -3.36044 -1.21694 0
M  V30 10266 C 988.166 -4.50232 -0.245374 0
M  V30 10267 C 986.828 -4.81195 0.0219161 0
M  V30 10268 C 989.18 -5.1951 0.419396 0
M  V30 10269 C 986.508 -5.78775 0.96109 0
M  V30 10270 C 988.86 -6.18095 1.34688 0
M  V30 10271 C 987.524 -6.47477 1.62265 0
M  V30 10272 H 986.794 -0.707807 -0.219296 0
M  V30 10273 H 989.441 -1.90982 0.14073 0
M  V30 10274 H 987.746 -3.34948 -2.03265 0
M  V30 10275 H 989.443 -3.61176 -1.74221 0
M  V30 10276 H 986.033 -4.26082 -0.463887 0
M  V30 10277 H 990.217 -4.95785 0.226009 0
M  V30 10278 H 985.473 -5.99865 1.18202 0
M  V30 10279 H 989.647 -6.7088 1.86795 0
M  V30 10280 H 987.274 -7.229 2.352 0
M  V30 10281 N 988.849 0.203349 -1.56283 0
M  V30 10282 C 990.097 0.923183 -1.79782 0
M  V30 10283 C 990.418 1.84134 -0.64185 0
M  V30 10284 O 989.688 1.92922 0.340292 0
M  V30 10285 H 988.268 0.343881 -0.66314 0
M  V30 10286 H 990.93 0.210837 -1.93756 0
M  V30 10287 H 990.026 1.51921 -2.72629 0
M  V30 10288 N 990.327 1.50405 0.470755 0
M  V30 10289 C 991.573 1.6165 1.22462 0
M  V30 10290 C 991.906 0.316034 1.91611 0
M  V30 10291 O 991.181 -0.682509 1.82132 0
M  V30 10292 C 991.464 2.79702 2.26801 0
M  V30 10293 C 991.317 4.19631 1.61955 0
M  V30 10294 C 992.636 2.93313 3.28109 0
M  V30 10295 H 989.755 0.588345 0.443868 0
M  V30 10296 H 992.397 1.82792 0.518376 0
M  V30 10297 H 990.547 2.61807 2.87036 0
M  V30 10298 H 992.219 4.49117 1.05316 0
M  V30 10299 H 990.462 4.23874 0.922674 0
M  V30 10300 H 991.133 4.98162 2.37779 0
M  V30 10301 H 993.609 3.09697 2.77897 0
M  V30 10302 H 992.485 3.77537 3.98443 0
M  V30 10303 H 992.746 2.03942 3.9225 0
M  V30 10304 N 991.805 -0.723954 1.39988 0
M  V30 10305 C 993.216 -1.30273 1.33738 0
M  V30 10306 C 993.567 -1.96199 0.00690581 0
M  V30 10307 O 992.692 -1.97016 -0.895179 0
M  V30 10308 C 993.287 -2.36889 2.42217 0
M  V30 10309 C 991.846 -2.90412 2.39453 0
M  V30 10310 C 990.993 -1.64103 2.2353 0
M  V30 10311 H 993.944 -0.520672 1.49916 0
M  V30 10312 H 993.965 -3.17538 2.09642 0
M  V30 10313 H 993.477 -1.88878 3.39038 0
M  V30 10314 H 991.578 -3.42674 1.46304 0
M  V30 10315 H 991.691 -3.42775 3.34727 0
M  V30 10316 H 990.055 -1.88855 1.70897 0
M  V30 10317 H 990.838 -1.18128 3.22336 0
M  V30 10318 N 993.283 -1.25346 -0.955304 0
M  V30 10319 C 994.23 -1.05672 -2.05188 0
M  V30 10320 C 995.2 0.0339217 -1.66065 0
M  V30 10321 O 996.385 -0.123126 -1.90402 0
M  V30 10322 C 993.525 -0.680791 -3.38318 0
M  V30 10323 C 992.638 -1.84622 -3.90562 0
M  V30 10324 C 991.773 -1.41471 -5.12015 0
M  V30 10325 C 990.812 -2.54931 -5.56486 0
M  V30 10326 N 989.949 -2.1256 -6.69151 0
M  V30 10327 H 994.789 -1.9952 -2.2135 0
M  V30 10328 H 992.326 -0.993588 -1.08472 0
M  V30 10329 H 994.284 -0.443794 -4.14833 0
M  V30 10330 H 992.914 0.2207 -3.22045 0
M  V30 10331 H 991.966 -2.19654 -3.10574 0
M  V30 10332 H 993.278 -2.6983 -4.19515 0
M  V30 10333 H 992.432 -1.13732 -5.95945 0
M  V30 10334 H 991.171 -0.533334 -4.84775 0
M  V30 10335 H 990.176 -2.83415 -4.71122 0
M  V30 10336 H 991.401 -3.43645 -5.85734 0
M  V30 10337 H 989.347 -1.26838 -6.43621 0
M  V30 10338 H 989.264 -2.91317 -6.97618 0
M  V30 10339 H 990.532 -1.87996 -7.5649 0
M  V30 10340 N 994.761 1.15782 -1.06922 0
M  V30 10341 C 996.009 1.86097 -0.788192 0
M  V30 10342 C 996.33 1.82475 0.687606 0
M  V30 10343 O 995.6 1.26266 1.49778 0
M  V30 10344 H 994.18 0.689008 -0.288577 0
M  V30 10345 H 996.842 1.40377 -1.35205 0
M  V30 10346 H 995.938 2.91358 -1.1188 0
M  V30 10347 N 996.239 0.8527 1.3254 0
M  V30 10348 C 997.655 0.542298 1.50104 0
M  V30 10349 C 997.855 -0.927465 1.78886 0
M  V30 10350 O 996.911 -1.7106 1.85728 0
M  V30 10351 C 998.224 1.4276 2.64651 0
M  V30 10352 C 999.772 1.42782 2.78536 0
M  V30 10353 C 1000.25 2.29828 3.9616 0
M  V30 10354 N 1001.74 2.27613 4.03418 0
M  V30 10355 C 1002.47 2.91696 4.93661 0
M  V30 10356 N 1001.97 3.64883 5.88925 0
M  V30 10357 N 1003.76 2.81094 4.86768 0
M  V30 10358 H 995.913 1.80395 1.12123 0
M  V30 10359 H 998.176 0.770394 0.552446 0
M  V30 10360 H 997.882 2.47266 2.50105 0
M  V30 10361 H 997.756 1.11358 3.60388 0
M  V30 10362 H 1000.14 0.390417 2.92506 0
M  V30 10363 H 1000.22 1.78198 1.83519 0
M  V30 10364 H 999.868 3.33635 3.82949 0
M  V30 10365 H 999.798 1.91746 4.9045 0
M  V30 10366 H 1002.29 1.74402 3.3525 0
M  V30 10367 H 1002.6 4.10952 6.54476 0
M  V30 10368 H 1000.95 3.68991 5.88957 0
M  V30 10369 H 1004.14 2.23469 4.11314 0
M  V30 10370 H 1004.31 3.31318 5.56895 0
M  V30 10371 N 997.718 -1.45297 0.610449 0
M  V30 10372 C 998.943 -2.07101 0.111414 0
M  V30 10373 C 999.368 -1.45161 -1.19625 0
M  V30 10374 O 998.726 -0.545368 -1.72903 0
M  V30 10375 C 998.774 -3.60598 -0.0117372 0
M  V30 10376 O 997.878 -3.98512 -1.06122 0
M  V30 10377 H 997.219 -0.659709 0.075364 0
M  V30 10378 H 999.749 -1.86504 0.841269 0
M  V30 10379 H 999.759 -4.07464 -0.209028 0
M  V30 10380 H 998.434 -4.05067 0.943076 0
M  V30 10381 H 997.011 -3.63312 -0.840158 0
M  V30 10382 N 999.196 -0.349774 -1.5367 0
M  V30 10383 C 1000.13 0.538575 -2.22782 0
M  V30 10384 C 1001.14 1.05896 -1.23652 0
M  V30 10385 O 1002.33 0.968045 -1.4997 0
M  V30 10386 C 999.43 1.7546 -2.89943 0
M  V30 10387 C 998.603 1.36843 -4.15443 0
M  V30 10388 C 997.662 2.4448 -4.65957 0
M  V30 10389 O 996.688 2.07528 -5.3002 0
M  V30 10390 N 997.89 3.75829 -4.42417 0
M  V30 10391 H 1000.65 -0.053348 -2.99653 0
M  V30 10392 H 998.216 -0.174193 -1.6096 0
M  V30 10393 H 1000.21 2.46911 -3.20651 0
M  V30 10394 H 998.778 2.25375 -2.16622 0
M  V30 10395 H 997.998 0.484421 -3.91212 0
M  V30 10396 H 999.286 1.0865 -4.97064 0
M  V30 10397 H 998.684 4.08635 -3.91196 0
M  V30 10398 H 997.241 4.43432 -4.77714 0
M  V30 10399 N 1000.67 1.57404 -0.0785433 0
M  V30 10400 C 1002.09 1.57158 0.2781 0
M  V30 10401 C 1002.29 1.08847 1.69572 0
M  V30 10402 O 1001.35 0.757407 2.40873 0
M  V30 10403 C 1002.66 3.00589 0.0816067 0
M  V30 10404 C 1004.21 3.12637 0.150627 0
M  V30 10405 C 1004.68 4.57997 -0.0176685 0
M  V30 10406 N 1006.17 4.63185 0.0377145 0
M  V30 10407 C 1006.91 5.7336 -0.0679907 0
M  V30 10408 N 1006.4 6.92426 -0.227598 0
M  V30 10409 N 1008.2 5.62099 -0.0104424 0
M  V30 10410 H 1000.35 1.87121 -1.00496 0
M  V30 10411 H 1002.61 0.862937 -0.392484 0
M  V30 10412 H 1002.32 3.40072 -0.896869 0
M  V30 10413 H 1002.19 3.67931 0.831046 0
M  V30 10414 H 1004.58 2.73037 1.11959 0
M  V30 10415 H 1004.66 2.4792 -0.630028 0
M  V30 10416 H 1004.3 4.98288 -0.983431 0
M  V30 10417 H 1004.23 5.20754 0.782475 0
M  V30 10418 H 1006.72 3.77564 0.159208 0
M  V30 10419 H 1007.04 7.72217 -0.300217 0
M  V30 10420 H 1005.38 6.94502 -0.263049 0
M  V30 10421 H 1008.57 4.67964 0.112999 0
M  V30 10422 H 1008.75 6.47928 -0.0962747 0
M  V30 10423 N 1002.15 -0.195058 1.56388 0
M  V30 10424 C 1003.1 -1.24175 1.94549 0
M  V30 10425 C 1004.07 -1.45229 0.806089 0
M  V30 10426 O 1005.25 -1.58362 1.06425 0
M  V30 10427 C 1002.39 -2.58145 2.29031 0
M  V30 10428 C 1001.51 -2.44669 3.56035 0
M  V30 10429 C 1000.64 -3.71342 3.7984 0
M  V30 10430 C 999.681 -3.52699 5.0027 0
M  V30 10431 N 998.818 -4.71385 5.20328 0
M  V30 10432 H 1003.66 -0.909319 2.83788 0
M  V30 10433 H 1001.19 -0.437641 1.40439 0
M  V30 10434 H 1003.15 -3.36195 2.4704 0
M  V30 10435 H 1001.78 -2.8943 1.42933 0
M  V30 10436 H 1000.83 -1.57916 3.46073 0
M  V30 10437 H 1002.15 -2.26827 4.44242 0
M  V30 10438 H 1001.3 -4.57832 3.98088 0
M  V30 10439 H 1000.04 -3.92138 2.89964 0
M  V30 10440 H 999.045 -2.64594 4.81944 0
M  V30 10441 H 1000.27 -3.33349 5.91655 0
M  V30 10442 H 998.216 -4.92444 4.33399 0
M  V30 10443 H 998.133 -4.56368 6.02714 0
M  V30 10444 H 999.401 -5.59226 5.43035 0
M  V30 10445 N 1003.63 -1.50653 -0.462772 0
M  V30 10446 C 1004.88 -1.62297 -1.21603 0
M  V30 10447 C 1005.21 -0.326191 -1.91441 0
M  V30 10448 O 1004.48 0.67284 -1.82491 0
M  V30 10449 C 1004.77 -2.80901 -2.25315 0
M  V30 10450 C 1004.62 -4.20484 -1.59728 0
M  V30 10451 C 1005.94 -2.95049 -3.26549 0
M  V30 10452 H 1003.06 -0.590691 -0.440741 0
M  V30 10453 H 1005.7 -1.83064 -0.508675 0
M  V30 10454 H 1003.85 -2.63325 -2.85643 0
M  V30 10455 H 1005.52 -4.49669 -1.02932 0
M  V30 10456 H 1003.76 -4.24357 -0.900181 0
M  V30 10457 H 1004.44 -4.99416 -2.35133 0
M  V30 10458 H 1006.91 -3.11166 -2.76251 0
M  V30 10459 H 1005.79 -3.79645 -3.96435 0
M  V30 10460 H 1006.05 -2.06019 -3.91163 0
M  V30 10461 N 1005.11 0.71652 -1.4037 0
M  V30 10462 C 1006.33 1.51069 -1.42102 0
M  V30 10463 C 1006.76 1.88087 -0.0222387 0
M  V30 10464 O 1006.12 1.53204 0.969448 0
M  V30 10465 C 1006.16 2.76307 -2.31704 0
M  V30 10466 O 1005.27 3.72975 -1.75964 0
M  V30 10467 H 1004.61 0.455502 -0.483129 0
M  V30 10468 H 1007.14 0.882514 -1.84588 0
M  V30 10469 H 1007.15 3.24846 -2.46859 0
M  V30 10470 H 1005.82 2.48698 -3.3335 0
M  V30 10471 H 1004.4 3.31818 -1.70151 0
M  V30 10472 N 1006.59 1.25851 0.948643 0
M  V30 10473 C 1007.53 1.06759 2.04625 0
M  V30 10474 C 1008.5 -0.0251144 1.66081 0
M  V30 10475 O 1009.69 0.133221 1.90334 0
M  V30 10476 C 1006.83 0.698724 3.37952 0
M  V30 10477 C 1005.94 1.8669 3.89578 0
M  V30 10478 C 1005.08 1.44184 5.11258 0
M  V30 10479 C 1004.12 2.57878 5.55126 0
M  V30 10480 N 1003.25 2.16106 6.68014 0
M  V30 10481 H 1008.09 2.00691 2.20289 0
M  V30 10482 H 1005.63 0.999327 1.07944 0
M  V30 10483 H 1007.59 0.465788 4.14592 0
M  V30 10484 H 1006.22 -0.203618 3.22157 0
M  V30 10485 H 1005.27 2.21298 3.09405 0
M  V30 10486 H 1006.58 2.72051 4.18079 0
M  V30 10487 H 1005.74 1.16891 5.95333 0
M  V30 10488 H 1004.47 0.559035 4.84485 0
M  V30 10489 H 1003.48 2.85909 4.69612 0
M  V30 10490 H 1004.7 3.46747 5.83904 0
M  V30 10491 H 1002.65 1.3025 6.42939 0
M  V30 10492 H 1002.57 2.95012 6.96063 0
M  V30 10493 H 1003.84 1.92005 7.55483 0
M  V30 10494 N 1008.06 -1.15214 1.07534 0
M  V30 10495 C 1009.29 -1.90463 0.820883 0
M  V30 10496 C 1009.71 -1.77578 -0.620305 0
M  V30 10497 O 1009.07 -1.10976 -1.43366 0
M  V30 10498 C 1009.12 -3.38746 1.23627 0
M  V30 10499 O 1008.22 -4.1062 0.382715 0
M  V30 10500 H 1007.57 -0.59292 0.298901 0
M  V30 10501 H 1010.1 -1.45893 1.43445 0
M  V30 10502 H 1010.11 -3.89543 1.21327 0
M  V30 10503 H 1008.78 -3.47443 2.28596 0
M  V30 10504 H 1007.36 -3.69947 0.468374 0
M  V30 10505 N 1009.54 -0.859717 -1.32086 0
M  V30 10506 C 1010.95 -0.519529 -1.79326 0
M  V30 10507 C 1011.3 0.96295 -1.70944 0
M  V30 10508 O 1010.43 1.75139 -1.27104 0
M  V30 10509 C 1011.02 -0.936267 -3.25606 0
M  V30 10510 C 1009.58 -0.647899 -3.70782 0
M  V30 10511 C 1008.73 -1.13323 -2.53087 0
M  V30 10512 H 1011.68 -1.04643 -1.19312 0
M  V30 10513 H 1011.7 -0.254714 -3.79646 0
M  V30 10514 H 1011.21 -2.01527 -3.31675 0
M  V30 10515 H 1009.32 0.420172 -3.70223 0
M  V30 10516 H 1009.43 -1.21774 -4.63366 0
M  V30 10517 H 1007.79 -0.553325 -2.48617 0
M  V30 10518 H 1008.58 -2.21945 -2.61907 0
M  V30 10519 N 1011.02 1.44971 -0.618145 0
M  V30 10520 C 1012.26 2.04044 -0.120625 0
M  V30 10521 C 1012.62 1.47472 1.22947 0
M  V30 10522 O 1013.83 1.97965 1.81834 0
M  V30 10523 C 1012.1 3.57279 -0.0930863 0
M  V30 10524 S 1013.66 4.37468 0.341705 0
M  V30 10525 H 1010.47 0.708891 -0.0547272 0
M  V30 10526 H 1013.08 1.77535 -0.818621 0
M  V30 10527 H 1011.78 3.95961 -1.07903 0
M  V30 10528 H 1011.31 3.88378 0.62657 0
M  V30 10529 H 1013.33 4.70073 1.58888 0
M  V30 10530 N 1012.5 0.357919 1.53482 0
M  V30 10531 C 1013.41 -0.500273 2.29204 0
M  V30 10532 C 1014.42 -1.09936 1.3487 0
M  V30 10533 O 1015.6 -1.11195 1.67921 0
M  V30 10534 C 1012.67 -1.62828 3.06085 0
M  V30 10535 C 1011.73 -1.05751 4.16071 0
M  V30 10536 C 1010.96 -2.13176 4.89277 0
M  V30 10537 O 1011.18 -3.34153 4.62274 0
M  V30 10538 O 1010.12 -1.76663 5.7539 0
M  V30 10539 H 1013.94 0.115696 3.0348 0
M  V30 10540 H 1011.53 0.122527 1.48897 0
M  V30 10541 H 1013.41 -2.28427 3.54117 0
M  V30 10542 H 1012.08 -2.22979 2.34653 0
M  V30 10543 H 1010.99 -0.365642 3.72309 0
M  V30 10544 H 1012.32 -0.500661 4.89647 0
M  V30 10545 N 1013.98 -1.5736 0.0868897 0
M  V30 10546 C 1014.92 -2.13571 -0.874996 0
M  V30 10547 C 1015.89 -1.0521 -1.2853 0
M  V30 10548 O 1017.08 -1.32954 -1.3685 0
M  V30 10549 C 1014.22 -2.71386 -2.13175 0
M  V30 10550 C 1013.33 -3.93953 -1.77272 0
M  V30 10551 C 1012.47 -4.3996 -2.97671 0
M  V30 10552 C 1011.51 -5.55137 -2.57856 0
M  V30 10553 N 1010.64 -5.96034 -3.71064 0
M  V30 10554 H 1015.48 -2.95453 -0.388789 0
M  V30 10555 H 1013.02 -1.45992 -0.180242 0
M  V30 10556 H 1014.98 -3.03022 -2.86764 0
M  V30 10557 H 1013.61 -1.92245 -2.5931 0
M  V30 10558 H 1012.66 -3.68683 -0.936845 0
M  V30 10559 H 1013.97 -4.77565 -1.43989 0
M  V30 10560 H 1013.13 -4.73337 -3.79522 0
M  V30 10561 H 1011.86 -3.55232 -3.34158 0
M  V30 10562 H 1010.87 -5.21397 -1.7443 0
M  V30 10563 H 1012.09 -6.41608 -2.22522 0
M  V30 10564 H 1010.04 -5.14253 -4.07284 0
M  V30 10565 H 1009.96 -6.74423 -3.41599 0
M  V30 10566 H 1011.23 -6.34038 -4.53449 0
M  V30 10567 N 1015.45 0.186762 -1.56489 0
M  V30 10568 C 1016.38 1.23395 -1.98232 0
M  V30 10569 C 1017.37 1.4702 -0.855526 0
M  V30 10570 O 1018.55 1.58616 -1.12048 0
M  V30 10571 C 1015.68 2.57635 -2.32898 0
M  V30 10572 C 1014.63 2.48607 -3.48394 0
M  V30 10573 C 1013.96 3.87196 -3.68759 0
M  V30 10574 C 1015.26 2.00398 -4.82325 0
M  V30 10575 H 1016.95 0.887026 -2.85958 0
M  V30 10576 H 1014.5 0.42525 -1.37578 0
M  V30 10577 H 1016.45 3.31082 -2.60696 0
M  V30 10578 H 1015.18 2.94084 -1.42064 0
M  V30 10579 H 1013.84 1.77615 -3.207 0
M  V30 10580 H 1013.48 4.21012 -2.75241 0
M  V30 10581 H 1013.18 3.82029 -4.46462 0
M  V30 10582 H 1014.71 4.62253 -3.98941 0
M  V30 10583 H 1016.12 2.6361 -5.091 0
M  V30 10584 H 1014.52 2.06214 -5.63556 0
M  V30 10585 H 1015.59 0.957562 -4.75351 0
M  V30 10586 N 1016.93 1.50896 0.454776 0
M  V30 10587 C 1018.18 1.61936 1.20248 0
M  V30 10588 C 1018.49 0.332983 1.92745 0
M  V30 10589 O 1019.7 0.322512 2.69578 0
M  V30 10590 C 1018.16 2.85916 2.18587 0
M  V30 10591 C 1017.76 4.21492 1.51818 0
M  V30 10592 C 1019.51 3.06307 2.93898 0
M  V30 10593 C 1017.42 5.3664 2.48539 0
M  V30 10594 H 1016.35 0.603098 0.452536 0
M  V30 10595 H 1019 1.77345 0.471257 0
M  V30 10596 H 1017.38 2.64101 2.95071 0
M  V30 10597 H 1018.55 4.53623 0.810123 0
M  V30 10598 H 1016.87 4.06837 0.887265 0
M  V30 10599 H 1019.46 3.89507 3.66317 0
M  V30 10600 H 1019.81 2.18683 3.54236 0
M  V30 10601 H 1020.34 3.2838 2.24525 0
M  V30 10602 H 1017.08 6.26469 1.92916 0
M  V30 10603 H 1016.6 5.08907 3.17449 0
M  V30 10604 H 1018.28 5.67881 3.10033 0
M  V30 10605 N 1018.41 -0.709066 1.40748 0
M  V30 10606 C 1019.64 -1.50313 1.42901 0
M  V30 10607 C 1020.06 -1.88072 0.032213 0
M  V30 10608 O 1019.42 -1.53716 -0.96131 0
M  V30 10609 C 1019.47 -2.75074 2.33166 0
M  V30 10610 O 1018.57 -3.72036 1.7794 0
M  V30 10611 H 1017.91 -0.452934 0.485538 0
M  V30 10612 H 1020.44 -0.872712 1.85054 0
M  V30 10613 H 1020.45 -3.23532 2.48578 0
M  V30 10614 H 1019.13 -2.46927 3.34664 0
M  V30 10615 H 1017.7 -3.30911 1.71908 0
M  V30 10616 N 1019.89 -1.26353 -0.941956 0
M  V30 10617 C 1020.84 -1.07842 -2.04056 0
M  V30 10618 C 1021.81 0.0163064 -1.66092 0
M  V30 10619 O 1022.99 -0.143313 -1.90261 0
M  V30 10620 C 1020.13 -0.716636 -3.37577 0
M  V30 10621 C 1019.24 -1.88754 -3.88582 0
M  V30 10622 C 1018.38 -1.46893 -5.10486 0
M  V30 10623 C 1017.42 -2.60819 -5.53751 0
M  V30 10624 N 1016.56 -2.19646 -6.66858 0
M  V30 10625 H 1021.4 -2.01856 -2.19221 0
M  V30 10626 H 1018.93 -1.00504 -1.07412 0
M  V30 10627 H 1020.89 -0.487768 -4.14339 0
M  V30 10628 H 1019.52 0.18653 -3.22261 0
M  V30 10629 H 1018.57 -2.22936 -3.08227 0
M  V30 10630 H 1019.88 -2.74264 -4.1663 0
M  V30 10631 H 1019.04 -1.20047 -5.94705 0
M  V30 10632 H 1017.78 -0.584721 -4.84182 0
M  V30 10633 H 1016.78 -2.88396 -4.6809 0
M  V30 10634 H 1018.01 -3.49838 -5.82057 0
M  V30 10635 H 1015.95 -1.33657 -6.4224 0
M  V30 10636 H 1015.87 -2.987 -6.94489 0
M  V30 10637 H 1017.14 -1.96009 -7.54454 0
M  V30 10638 N 1021.37 1.14642 -1.08144 0
M  V30 10639 C 1022.62 1.8525 -0.807885 0
M  V30 10640 C 1022.94 1.83194 0.668213 0
M  V30 10641 O 1022.21 1.27848 1.48431 0
M  V30 10642 H 1020.79 0.685909 -0.295868 0
M  V30 10643 H 1023.45 1.38935 -1.36686 0
M  V30 10644 H 1022.54 2.90155 -1.14964 0
M  V30 10645 N 1022.85 0.866709 1.31628 0
M  V30 10646 C 1024.07 0.48956 2.01539 0
M  V30 10647 C 1024.5 -0.909556 1.64647 0
M  V30 10648 O 1023.85 -1.59959 0.853391 0
M  V30 10649 C 1023.9 0.650176 3.5469 0
M  V30 10650 O 1023.01 -0.311908 4.11219 0
M  V30 10651 H 1022.35 0.195144 0.634677 0
M  V30 10652 H 1024.88 1.16923 1.679 0
M  V30 10653 H 1024.89 0.542236 4.04381 0
M  V30 10654 H 1023.56 1.67038 3.80882 0
M  V30 10655 H 1022.14 -0.159197 3.7256 0
M  V30 10656 N 1024.32 -1.44642 0.625825 0
M  V30 10657 C 1025.25 -2.33397 -0.0692188 0
M  V30 10658 C 1026.23 -1.47898 -0.840241 0
M  V30 10659 O 1027.42 -1.7663 -0.807176 0
M  V30 10660 C 1024.55 -3.30888 -1.055 0
M  V30 10661 C 1023.5 -4.26164 -0.395968 0
M  V30 10662 C 1022.83 -5.13483 -1.49128 0
M  V30 10663 C 1024.13 -5.17663 0.694433 0
M  V30 10664 H 1025.82 -2.91763 0.671925 0
M  V30 10665 H 1023.37 -1.40294 0.324573 0
M  V30 10666 H 1025.32 -3.91861 -1.54993 0
M  V30 10667 H 1024.05 -2.7072 -1.82696 0
M  V30 10668 H 1022.71 -3.66516 0.0782691 0
M  V30 10669 H 1022.35 -4.49672 -2.25399 0
M  V30 10670 H 1022.05 -5.78038 -1.05573 0
M  V30 10671 H 1023.58 -5.77327 -1.98813 0
M  V30 10672 H 1024.99 -5.72602 0.282818 0
M  V30 10673 H 1023.39 -5.90793 1.05281 0
M  V30 10674 H 1024.46 -4.58994 1.56372 0
M  V30 10675 N 1025.8 -0.366053 -1.5329 0
M  V30 10676 C 1027.03 0.226839 -2.06156 0
M  V30 10677 C 1027.45 1.41637 -1.23776 0
M  V30 10678 O 1026.81 1.7947 -0.256948 0
M  V30 10679 C 1026.86 0.597956 -3.55608 0
M  V30 10680 O 1025.96 1.69512 -3.75951 0
M  V30 10681 H 1025.3 0.0329156 -0.663184 0
M  V30 10682 H 1027.83 -0.526793 -1.97702 0
M  V30 10683 H 1027.84 0.868831 -3.98642 0
M  V30 10684 H 1026.52 -0.271838 -4.15011 0
M  V30 10685 H 1025.09 1.41976 -3.44815 0
M  V30 10686 N 1027.28 1.57312 -0.0952337 0
M  V30 10687 C 1028.21 2.17056 0.860753 0
M  V30 10688 C 1029.19 1.10394 1.29411 0
M  V30 10689 O 1030.38 1.38532 1.36098 0
M  V30 10690 C 1027.51 2.751 2.11984 0
M  V30 10691 C 1026.46 3.87136 1.8251 0
M  V30 10692 C 1025.79 4.31883 3.15247 0
M  V30 10693 C 1027.09 5.10326 1.11194 0
M  V30 10694 H 1028.78 2.97192 0.362983 0
M  V30 10695 H 1026.33 1.42955 0.173151 0
M  V30 10696 H 1028.28 3.15547 2.79299 0
M  V30 10697 H 1027 1.92219 2.64044 0
M  V30 10698 H 1025.66 3.47229 1.17592 0
M  V30 10699 H 1025.31 3.45893 3.65195 0
M  V30 10700 H 1025.01 5.0742 2.96309 0
M  V30 10701 H 1026.53 4.74964 3.83721 0
M  V30 10702 H 1027.95 5.47942 1.6862 0
M  V30 10703 H 1026.34 5.91293 1.02435 0
M  V30 10704 H 1027.41 4.84807 0.0947227 0
M  V30 10705 N 1028.76 -0.17846 1.56586 0
M  V30 10706 C 1030.01 -0.894464 1.81228 0
M  V30 10707 C 1030.33 -1.83089 0.671062 0
M  V30 10708 O 1029.6 -1.93439 -0.309557 0
M  V30 10709 H 1028.18 -0.333288 0.668527 0
M  V30 10710 H 1030.84 -0.179986 1.94067 0
M  V30 10711 H 1029.93 -1.47565 2.75011 0
M  V30 10712 N 1030.24 -1.51135 -0.446768 0
M  V30 10713 C 1031.46 -1.67411 -1.22427 0
M  V30 10714 C 1031.89 -0.367009 -1.84485 0
M  V30 10715 O 1031.24 0.67185 -1.68392 0
M  V30 10716 C 1031.29 -2.78473 -2.29096 0
M  V30 10717 O 1030.4 -2.41419 -3.34351 0
M  V30 10718 H 1029.74 -0.558512 -0.359111 0
M  V30 10719 H 1032.27 -1.97648 -0.5288 0
M  V30 10720 H 1032.28 -3.02277 -2.7403 0
M  V30 10721 H 1030.95 -3.73326 -1.83304 0
M  V30 10722 H 1029.53 -2.28152 -2.9496 0
M  V30 10723 N 1031.71 0.701592 -1.41122 0
M  V30 10724 C 1032.94 1.49553 -1.43696 0
M  V30 10725 C 1033.36 1.88053 -0.0421865 0
M  V30 10726 O 1032.72 1.54223 0.953144 0
M  V30 10727 C 1032.77 2.73834 -2.34622 0
M  V30 10728 O 1031.87 3.71088 -1.7991 0
M  V30 10729 H 1031.21 0.450352 -0.487933 0
M  V30 10730 H 1033.74 0.862886 -1.85514 0
M  V30 10731 H 1033.75 3.22209 -2.5029 0
M  V30 10732 H 1032.43 2.45149 -3.35969 0
M  V30 10733 H 1031.01 3.29994 -1.73661 0
M  V30 10734 N 1033.19 1.2685 0.935242 0
M  V30 10735 C 1034.15 1.08975 2.01636 0
M  V30 10736 C 1035.15 0.0361543 1.60759 0
M  V30 10737 O 1036.34 0.280087 1.71934 0
M  V30 10738 C 1033.48 0.658831 3.34473 0
M  V30 10739 H 1034.67 2.04968 2.18925 0
M  V30 10740 H 1032.22 1.09531 1.11501 0
M  V30 10741 H 1032.96 -0.302824 3.22883 0
M  V30 10742 H 1032.74 1.41967 3.65497 0
M  V30 10743 H 1034.23 0.555783 4.13885 0
M  V30 10744 N 1034.67 -1.14067 1.0875 0
M  V30 10745 C 1035.9 -1.89582 0.841038 0
M  V30 10746 C 1036.32 -1.78226 -0.601436 0
M  V30 10747 O 1035.68 -1.12491 -1.42181 0
M  V30 10748 C 1035.73 -3.37415 1.27213 0
M  V30 10749 O 1034.83 -4.10191 0.426246 0
M  V30 10750 H 1034.17 -0.589716 0.305173 0
M  V30 10751 H 1036.7 -1.44364 1.44984 0
M  V30 10752 H 1036.71 -3.88234 1.25451 0
M  V30 10753 H 1035.39 -3.44999 2.32268 0
M  V30 10754 H 1033.96 -3.69429 0.507585 0
M  V30 10755 N 1036.15 -0.873678 -1.31166 0
M  V30 10756 C 1037.08 -0.348011 -2.30892 0
M  V30 10757 C 1038.06 0.563092 -1.60509 0
M  V30 10758 O 1039.24 0.479332 -1.88192 0
M  V30 10759 C 1036.37 0.448158 -3.44396 0
M  V30 10760 C 1035.33 -0.370179 -4.26396 0
M  V30 10761 C 1034.65 0.551903 -5.31844 0
M  V30 10762 C 1035.95 -1.60624 -4.96988 0
M  V30 10763 H 1037.65 -1.18134 -2.75109 0
M  V30 10764 H 1035.19 -0.569502 -1.3226 0
M  V30 10765 H 1037.15 0.826458 -4.13216 0
M  V30 10766 H 1035.87 1.31503 -2.98956 0
M  V30 10767 H 1034.53 -0.730472 -3.59249 0
M  V30 10768 H 1034.18 1.41616 -4.82653 0
M  V30 10769 H 1033.88 0.00823478 -5.87599 0
M  V30 10770 H 1035.4 0.926965 -6.03523 0
M  V30 10771 H 1036.82 -1.29917 -5.58386 0
M  V30 10772 H 1035.21 -2.08926 -5.62557 0
M  V30 10773 H 1036.28 -2.357 -4.23761 0
M  V30 10774 N 1037.63 1.44308 -0.633487 0
M  V30 10775 C 1039.04 1.85387 -0.221009 0
M  V30 10776 C 1039.39 1.5301 1.22811 0
M  V30 10777 O 1038.51 0.969325 1.93476 0
M  V30 10778 C 1039.11 3.36497 -0.394331 0
M  V30 10779 C 1037.67 3.76382 -0.0363405 0
M  V30 10780 C 1036.81 2.68146 -0.706598 0
M  V30 10781 H 1039.77 1.34741 -0.83849 0
M  V30 10782 H 1039.79 3.78735 0.366026 0
M  V30 10783 H 1039.3 3.60031 -1.44911 0
M  V30 10784 H 1037.4 3.58463 1.01661 0
M  V30 10785 H 1037.51 4.77 -0.448045 0
M  V30 10786 H 1035.88 2.54306 -0.14168 0
M  V30 10787 H 1036.66 2.94512 -1.76401 0
M  V30 10788 N 1039.1 0.374177 1.53094 0
M  V30 10789 C 1040.52 -0.103172 1.86415 0
M  V30 10790 C 1040.87 -1.47439 1.29446 0
M  V30 10791 O 1039.99 -2.07333 0.619853 0
M  V30 10792 C 1040.59 -0.193988 3.38244 0
M  V30 10793 C 1039.15 -0.615605 3.71332 0
M  V30 10794 C 1038.29 0.23186 2.76329 0
M  V30 10795 H 1041.24 0.592644 1.47219 0
M  V30 10796 H 1041.26 -1.01597 3.66686 0
M  V30 10797 H 1040.78 0.80414 3.79678 0
M  V30 10798 H 1038.88 -1.62165 3.3546 0
M  V30 10799 H 1038.99 -0.38425 4.77557 0
M  V30 10800 H 1037.35 -0.300579 2.5292 0
M  V30 10801 H 1038.14 1.22769 3.20597 0
M  V30 10802 N 1040.58 -1.57259 0.103575 0
M  V30 10803 C 1041.51 -2.1153 -0.882472 0
M  V30 10804 C 1042.53 -1.05446 -1.24036 0
M  V30 10805 O 1043.72 -1.32867 -1.192 0
M  V30 10806 C 1040.82 -2.58717 -2.18903 0
M  V30 10807 C 1039.99 -3.8873 -2.00519 0
M  V30 10808 C 1039.05 -4.21675 -3.14764 0
M  V30 10809 O 1038.07 -4.90755 -2.88355 0
M  V30 10810 N 1039.28 -3.77757 -4.40772 0
M  V30 10811 H 1042.04 -2.96758 -0.418901 0
M  V30 10812 H 1039.6 -1.61696 -0.0812921 0
M  V30 10813 H 1041.59 -2.77797 -2.94297 0
M  V30 10814 H 1040.16 -1.78454 -2.56657 0
M  V30 10815 H 1039.38 -3.78714 -1.09406 0
M  V30 10816 H 1040.67 -4.73771 -1.85522 0
M  V30 10817 H 1040.07 -3.22011 -4.65108 0
M  V30 10818 H 1038.63 -4.01975 -5.13088 0
M  V30 10819 N 1042.06 0.170153 -1.56679 0
M  V30 10820 C 1043.47 0.732502 -1.7173 0
M  V30 10821 C 1043.82 1.82736 -0.71428 0
M  V30 10822 O 1042.95 2.16044 0.124102 0
M  V30 10823 C 1043.54 1.33548 -3.11368 0
M  V30 10824 C 1042.1 1.84464 -3.281 0
M  V30 10825 C 1041.25 0.724069 -2.6768 0
M  V30 10826 H 1044.2 -0.0552543 -1.58604 0
M  V30 10827 H 1044.22 2.20519 -3.10083 0
M  V30 10828 H 1043.73 0.5384 -3.84347 0
M  V30 10829 H 1041.83 2.66813 -2.6008 0
M  V30 10830 H 1041.95 1.98928 -4.35849 0
M  V30 10831 H 1040.31 1.14481 -2.27522 0
M  V30 10832 H 1041.09 -0.0611861 -3.43245 0
M  V30 10833 N 1043.54 1.5137 0.438746 0
M  V30 10834 C 1044.79 1.63645 1.18595 0
M  V30 10835 C 1045.11 0.354241 1.91755 0
M  V30 10836 O 1044.38 -0.629838 1.85499 0
M  V30 10837 H 1042.96 0.603103 0.440767 0
M  V30 10838 H 1045.62 1.88293 0.503159 0
M  V30 10839 H 1044.72 2.46342 1.9163 0
M  V30 10840 N 1045.02 -0.694098 1.41492 0
M  V30 10841 C 1046.24 -1.48789 1.44488 0
M  V30 10842 C 1046.67 -1.88028 0.0521588 0
M  V30 10843 O 1046.02 -1.54727 -0.944952 0
M  V30 10844 C 1046.07 -2.72586 2.3607 0
M  V30 10845 O 1045.18 -3.70128 1.81876 0
M  V30 10846 H 1044.52 -0.447758 0.490315 0
M  V30 10847 H 1047.05 -0.853036 1.85969 0
M  V30 10848 H 1047.06 -3.20877 2.51995 0
M  V30 10849 H 1045.73 -2.43363 3.37264 0
M  V30 10850 H 1044.31 -3.29069 1.75408 0
M  V30 10851 N 1046.49 -1.27344 -0.928501 0
M  V30 10852 C 1047.91 -1.04732 -1.2043 0
M  V30 10853 C 1048.11 0.219623 -2.003 0
M  V30 10854 O 1047.17 0.925333 -2.34934 0
M  V30 10855 C 1048.48 -2.28625 -1.95323 0
M  V30 10856 C 1050.03 -2.33655 -2.08265 0
M  V30 10857 C 1050.5 -3.57275 -2.86563 0
M  V30 10858 N 1051.99 -3.57828 -2.94132 0
M  V30 10859 C 1052.73 -4.50152 -3.55177 0
M  V30 10860 N 1052.22 -5.52779 -4.17621 0
M  V30 10861 N 1054.02 -4.37777 -3.52573 0
M  V30 10862 H 1046.17 -2.08697 -0.394892 0
M  V30 10863 H 1048.43 -0.91782 -0.2373 0
M  V30 10864 H 1048.14 -3.20845 -1.44054 0
M  V30 10865 H 1048.01 -2.33878 -2.95941 0
M  V30 10866 H 1050.4 -1.41942 -2.58721 0
M  V30 10867 H 1050.48 -2.32406 -1.0687 0
M  V30 10868 H 1050.12 -4.49325 -2.3679 0
M  V30 10869 H 1050.05 -3.55775 -3.88242 0
M  V30 10870 H 1052.54 -2.83607 -2.49751 0
M  V30 10871 H 1052.86 -6.19394 -4.62137 0
M  V30 10872 H 1051.2 -5.56622 -4.16169 0
M  V30 10873 H 1054.39 -3.56811 -3.02991 0
M  V30 10874 H 1054.57 -5.09919 -3.99858 0
M  V30 10875 N 1047.97 1.13488 -1.09353 0
M  V30 10876 C 1049.25 1.80998 -0.741559 0
M  V30 10877 C 1049.63 1.96418 0.773505 0
M  V30 10878 O 1048.98 1.53168 1.69563 0
M  V30 10879 C 1049.19 3.16078 -1.47972 0
M  V30 10880 C 1050.54 3.91438 -1.64504 0
M  V30 10881 O 1051.56 3.25699 -1.44218 0
M  V30 10882 O 1050.42 5.0935 -1.98054 0
M  V30 10883 H 1047.51 0.782953 -0.266297 0
M  V30 10884 H 1050.06 1.20422 -1.19569 0
M  V30 10885 H 1048.83 3.00076 -2.51137 0
M  V30 10886 H 1048.45 3.84354 -1.01772 0
M  V30 10887 N 1049.45 0.880621 1.30701 0
M  V30 10888 C 1050.7 0.495894 1.95922 0
M  V30 10889 C 1051.02 -0.957214 1.69889 0
M  V30 10890 O 1050.29 -1.67245 1.0201 0
M  V30 10891 H 1048.87 0.180394 0.724891 0
M  V30 10892 H 1051.53 1.12274 1.59313 0
M  V30 10893 H 1050.63 0.662508 3.04987 0
M  V30 10894 N 1050.93 -1.4397 0.641131 0
M  V30 10895 C 1051.86 -2.33458 -0.04446 0
M  V30 10896 C 1052.84 -1.48781 -0.824507 0
M  V30 10897 O 1054.03 -1.77477 -0.788397 0
M  V30 10898 C 1051.16 -3.31989 -1.01984 0
M  V30 10899 C 1050.11 -4.2656 -0.350745 0
M  V30 10900 C 1049.44 -5.15036 -1.43673 0
M  V30 10901 C 1050.74 -5.16897 0.749299 0
M  V30 10902 H 1052.43 -2.91034 0.702832 0
M  V30 10903 H 1049.98 -1.39942 0.339435 0
M  V30 10904 H 1051.93 -3.93483 -1.50828 0
M  V30 10905 H 1050.65 -2.72643 -1.79815 0
M  V30 10906 H 1049.31 -3.66413 0.117139 0
M  V30 10907 H 1048.96 -4.52037 -2.20617 0
M  V30 10908 H 1048.66 -5.79125 -0.994358 0
M  V30 10909 H 1050.18 -5.79403 -1.92678 0
M  V30 10910 H 1051.6 -5.7227 0.343534 0
M  V30 10911 H 1049.99 -5.89643 1.11541 0
M  V30 10912 H 1051.06 -4.5731 1.61232 0
M  V30 10913 N 1052.41 -0.382291 -1.52893 0
M  V30 10914 C 1053.82 0.0932841 -1.86467 0
M  V30 10915 C 1054.17 1.4675 -1.30226 0
M  V30 10916 O 1053.29 2.07001 -0.63084 0
M  V30 10917 C 1053.89 0.176048 -3.38342 0
M  V30 10918 C 1052.45 0.595904 -3.71653 0
M  V30 10919 C 1051.6 -0.246511 -2.76202 0
M  V30 10920 H 1054.55 -0.600443 -1.46903 0
M  V30 10921 H 1054.57 0.996512 -3.67219 0
M  V30 10922 H 1054.08 -0.824264 -3.79246 0
M  V30 10923 H 1052.18 1.60384 -3.36315 0
M  V30 10924 H 1052.29 0.358919 -4.77754 0
M  V30 10925 H 1050.66 0.287162 -2.53076 0
M  V30 10926 H 1051.44 -1.24467 -3.19942 0
M  V30 10927 N 1053.89 1.57202 -0.111913 0
M  V30 10928 C 1054.85 2.13778 0.826534 0
M  V30 10929 C 1055.85 1.07097 1.19945 0
M  V30 10930 O 1057.04 1.32906 1.12613 0
M  V30 10931 C 1054.17 2.6722 2.11675 0
M  V30 10932 H 1055.36 2.98023 0.334975 0
M  V30 10933 H 1052.92 1.55696 0.137256 0
M  V30 10934 H 1053.65 1.86542 2.65278 0
M  V30 10935 H 1053.44 3.45235 1.8589 0
M  V30 10936 H 1054.93 3.10926 2.78774 0
M  V30 10937 N 1055.36 -0.161842 1.56767 0
M  V30 10938 C 1056.29 -1.20226 2.0017 0
M  V30 10939 C 1057.27 -1.4564 0.878807 0
M  V30 10940 O 1058.46 -1.56813 1.14557 0
M  V30 10941 C 1055.59 -2.53897 2.36968 0
M  V30 10942 C 1054.54 -2.43033 3.52305 0
M  V30 10943 C 1053.87 -3.81281 3.74872 0
M  V30 10944 C 1055.17 -1.927 4.85453 0
M  V30 10945 H 1056.86 -0.84142 2.87333 0
M  V30 10946 H 1054.41 -0.403309 1.38237 0
M  V30 10947 H 1056.36 -3.26893 2.6593 0
M  V30 10948 H 1055.09 -2.91787 1.46724 0
M  V30 10949 H 1053.75 -1.7249 3.23485 0
M  V30 10950 H 1053.39 -4.1658 2.81904 0
M  V30 10951 H 1053.09 -3.74877 4.52483 0
M  V30 10952 H 1054.62 -4.55848 4.06245 0
M  V30 10953 H 1056.03 -2.55477 5.13229 0
M  V30 10954 H 1054.43 -1.97222 5.66766 0
M  V30 10955 H 1055.5 -0.881816 4.76814 0
M  V30 10956 N 1056.84 -1.516 -0.430713 0
M  V30 10957 C 1057.79 -1.73975 -1.54387 0
M  V30 10958 C 1058.78 -0.606222 -1.58181 0
M  V30 10959 O 1059.99 -0.787764 -1.61846 0
M  V30 10960 H 1056.36 -0.549811 -0.513041 0
M  V30 10961 H 1058.34 -2.67274 -1.32692 0
M  V30 10962 C 1057.08 -1.88794 -2.9198 0
M  V30 10963 H 1056.41 -2.75425 -2.89795 0
M  V30 10964 H 1057.85 -2.08458 -3.69217 0
M  V30 10965 C 1056.31 -0.649427 -3.30581 0
M  V30 10966 O 1056.84 0.192823 -4.01237 0
M  V30 10967 N 1055.04 -0.491586 -2.86412 0
M  V30 10968 H 1054.59 -1.17806 -2.29084 0
M  V30 10969 H 1054.55 0.33583 -3.12601 0
M  V30 10970 N 1058.32 0.686584 -1.41858 0
M  V30 10971 C 1059.55 1.47519 -1.45072 0
M  V30 10972 C 1059.96 1.88709 -0.0585868 0
M  V30 10973 O 1059.32 1.57373 0.924116 0
M  V30 10974 C 1059.37 2.73195 -2.36742 0
M  V30 10975 O 1059.09 2.33736 -3.70539 0
M  V30 10976 C 1060.59 3.66861 -2.48854 0
M  V30 10977 H 1057.81 0.454307 -0.493808 0
M  V30 10978 H 1060.36 0.844612 -1.86243 0
M  V30 10979 H 1058.51 3.32468 -1.98856 0
M  V30 10980 H 1058.93 3.14809 -4.19518 0
M  V30 10981 H 1060.4 4.51801 -3.17143 0
M  V30 10982 H 1060.88 4.11961 -1.52265 0
M  V30 10983 H 1061.48 3.13486 -2.87414 0
M  V30 10984 N 1059.8 1.27835 0.921735 0
M  V30 10985 C 1060.74 1.11075 2.02314 0
M  V30 10986 C 1061.71 0.0101195 1.66097 0
M  V30 10987 O 1062.9 0.173564 1.90009 0
M  V30 10988 C 1060.04 0.770251 3.36394 0
M  V30 10989 C 1059.15 1.94912 3.8553 0
M  V30 10990 C 1058.29 1.54996 5.08084 0
M  V30 10991 C 1057.33 2.69595 5.49531 0
M  V30 10992 N 1056.46 2.30227 6.6328 0
M  V30 10993 H 1061.3 2.05319 2.15982 0
M  V30 10994 H 1058.84 1.022 1.058 0
M  V30 10995 H 1060.8 0.553624 4.1351 0
M  V30 10996 H 1059.43 -0.135238 3.22517 0
M  V30 10997 H 1058.48 2.27811 3.04641 0
M  V30 10998 H 1059.79 2.80858 4.12214 0
M  V30 10999 H 1058.95 1.29493 5.9272 0
M  V30 11000 H 1057.69 0.661676 4.83191 0
M  V30 11001 H 1056.69 2.95806 4.63442 0
M  V30 11002 H 1057.92 3.59054 5.76417 0
M  V30 11003 H 1055.86 1.43858 6.40032 0
M  V30 11004 H 1055.78 3.09711 6.89649 0
M  V30 11005 H 1057.05 2.07987 7.5124 0
M  V30 11006 N 1061.28 -1.12907 1.09954 0
M  V30 11007 C 1062.52 -1.83661 0.833761 0
M  V30 11008 C 1062.84 -1.84736 -0.642798 0
M  V30 11009 O 1064.04 -2.51437 -1.0243 0
M  V30 11010 C 1062.5 -3.29763 1.44168 0
M  V30 11011 C 1062.11 -3.3706 2.95118 0
M  V30 11012 C 1063.85 -4.05522 1.25509 0
M  V30 11013 C 1061.76 -4.77467 3.48969 0
M  V30 11014 H 1060.69 -0.688115 0.308242 0
M  V30 11015 H 1063.34 -1.27166 1.32291 0
M  V30 11016 H 1061.72 -3.86094 0.880215 0
M  V30 11017 H 1062.9 -2.90695 3.57537 0
M  V30 11018 H 1061.21 -2.7477 3.12874 0
M  V30 11019 H 1063.81 -5.09188 1.63191 0
M  V30 11020 H 1064.15 -4.15837 0.196208 0
M  V30 11021 H 1064.68 -3.55536 1.78435 0
M  V30 11022 H 1061.42 -4.72344 4.54501 0
M  V30 11023 H 1060.94 -5.24305 2.91315 0
M  V30 11024 H 1062.62 -5.46397 3.46495 0
M  V30 11025 N 1062.75 -0.88754 -1.30232 0
M  V30 11026 C 1063.68 -0.372481 -2.3051 0
M  V30 11027 C 1064.66 0.546037 -1.61098 0
M  V30 11028 O 1065.85 0.459345 -1.88689 0
M  V30 11029 C 1062.98 0.411605 -3.44852 0
M  V30 11030 C 1061.93 -0.415383 -4.2598 0
M  V30 11031 C 1061.26 0.495463 -5.324 0
M  V30 11032 C 1062.56 -1.65886 -4.95257 0
M  V30 11033 H 1064.25 -1.21045 -2.7384 0
M  V30 11034 H 1061.8 -0.583498 -1.31648 0
M  V30 11035 H 1063.75 0.782584 -4.1407 0
M  V30 11036 H 1062.48 1.28325 -3.00334 0
M  V30 11037 H 1061.14 -0.768534 -3.58454 0
M  V30 11038 H 1060.78 1.36489 -4.84128 0
M  V30 11039 H 1060.48 -0.0540885 -5.87575 0
M  V30 11040 H 1062.01 0.862901 -6.04472 0
M  V30 11041 H 1063.42 -1.35832 -5.56976 0
M  V30 11042 H 1061.82 -2.14881 -5.60309 0
M  V30 11043 H 1062.89 -2.40181 -4.21237 0
M  V30 11044 N 1064.23 1.43628 -0.648757 0
M  V30 11045 C 1065.46 2.05918 -0.167701 0
M  V30 11046 C 1065.87 1.48681 1.17006 0
M  V30 11047 O 1065.21 0.610984 1.73242 0
M  V30 11048 C 1065.28 3.595 0.00265514 0
M  V30 11049 C 1064.94 4.39295 -1.2597 0
M  V30 11050 C 1065.94 4.71643 -2.18743 0
M  V30 11051 C 1063.62 4.79379 -1.50004 0
M  V30 11052 C 1065.62 5.42978 -3.33846 0
M  V30 11053 C 1063.3 5.50459 -2.65401 0
M  V30 11054 C 1064.3 5.82181 -3.57148 0
M  V30 11055 O 1063.99 6.5181 -4.7053 0
M  V30 11056 H 1063.72 0.670619 -0.0851261 0
M  V30 11057 H 1066.27 1.85196 -0.888351 0
M  V30 11058 H 1064.5 3.7878 0.77863 0
M  V30 11059 H 1066.19 4.03503 0.440501 0
M  V30 11060 H 1066.96 4.41199 -2.01416 0
M  V30 11061 H 1062.84 4.54098 -0.794745 0
M  V30 11062 H 1066.38 5.67656 -4.05479 0
M  V30 11063 H 1062.28 5.8032 -2.82664 0
M  V30 11064 H 1063.05 6.7029 -4.69738 0
M  V30 11065 N 1065.71 0.390394 1.52688 0
M  V30 11066 C 1067.12 -0.083394 1.86514 0
M  V30 11067 C 1067.47 -1.46057 1.31003 0
M  V30 11068 O 1066.6 -2.06663 0.641809 0
M  V30 11069 C 1067.19 -0.158102 3.38431 0
M  V30 11070 C 1065.75 -0.576186 3.71964 0
M  V30 11071 C 1064.9 0.261156 2.76068 0
M  V30 11072 H 1067.85 0.608226 1.46582 0
M  V30 11073 H 1067.87 -0.977023 3.67742 0
M  V30 11074 H 1067.38 0.844365 3.78803 0
M  V30 11075 H 1065.48 -1.58598 3.37161 0
M  V30 11076 H 1065.6 -0.333577 4.77937 0
M  V30 11077 H 1063.96 -0.273737 2.53225 0
M  V30 11078 H 1064.74 1.26162 3.19277 0
M  V30 11079 N 1067.19 -1.57141 0.120249 0
M  V30 11080 C 1068.14 -2.16638 -0.846809 0
M  V30 11081 C 1069.13 -1.11594 -1.27449 0
M  V30 11082 O 1070.34 -1.29895 -1.24608 0
M  V30 11083 H 1066.71 -0.693331 -0.291197 0
M  V30 11084 H 1068.68 -2.96673 -0.320536 0
M  V30 11085 C 1067.43 -2.78134 -2.08655 0
M  V30 11086 H 1066.75 -3.58662 -1.76639 0
M  V30 11087 H 1068.19 -3.23301 -2.74322 0
M  V30 11088 C 1066.65 -1.7528 -2.87713 0
M  V30 11089 O 1067.18 -1.20693 -3.8314 0
M  V30 11090 N 1065.39 -1.45192 -2.51729 0
M  V30 11091 H 1064.94 -1.89773 -1.74195 0
M  V30 11092 H 1064.89 -0.766166 -3.04922 0
M  V30 11093 N 1068.67 0.153526 -1.5685 0
M  V30 11094 C 1069.91 0.868517 -1.83261 0
M  V30 11095 C 1070.25 1.81112 -0.700857 0
M  V30 11096 O 1069.52 1.92235 0.295989 0
M  V30 11097 C 1069.8 1.6487 -3.2014 0
M  V30 11098 C 1069.66 0.728021 -4.43869 0
M  V30 11099 C 1070.98 2.61259 -3.54163 0
M  V30 11100 H 1068.09 0.314297 -0.666623 0
M  V30 11101 H 1070.74 0.133971 -1.89527 0
M  V30 11102 H 1068.89 2.2749 -3.1493 0
M  V30 11103 H 1070.56 0.113328 -4.61161 0
M  V30 11104 H 1068.8 0.0371744 -4.33784 0
M  V30 11105 H 1069.47 1.30981 -5.36235 0
M  V30 11106 H 1071.95 2.0876 -3.59942 0
M  V30 11107 H 1070.82 3.12902 -4.50981 0
M  V30 11108 H 1071.09 3.42307 -2.79782 0
M  V30 11109 N 1070.14 1.51827 0.422667 0
M  V30 11110 C 1071.56 1.40328 0.760275 0
M  V30 11111 C 1071.76 0.497119 1.95272 0
M  V30 11112 O 1070.82 -0.0422083 2.52465 0
M  V30 11113 C 1072.13 2.82622 1.02689 0
M  V30 11114 C 1073.68 2.91874 1.13044 0
M  V30 11115 C 1074.15 4.35107 1.4299 0
M  V30 11116 N 1075.64 4.3828 1.49883 0
M  V30 11117 C 1076.38 5.46153 1.74655 0
M  V30 11118 N 1075.87 6.64165 1.9712 0
M  V30 11119 N 1077.67 5.33651 1.76558 0
M  V30 11120 H 1069.82 2.09285 -0.362455 0
M  V30 11121 H 1072.08 0.94273 -0.0998161 0
M  V30 11122 H 1071.79 3.50991 0.223226 0
M  V30 11123 H 1071.66 3.22844 1.95068 0
M  V30 11124 H 1074.05 2.23694 1.92471 0
M  V30 11125 H 1074.13 2.55128 0.185326 0
M  V30 11126 H 1073.77 5.03841 0.640848 0
M  V30 11127 H 1073.7 4.69377 2.38731 0
M  V30 11128 H 1076.19 3.53206 1.34366 0
M  V30 11129 H 1076.51 7.42165 2.15434 0
M  V30 11130 H 1074.85 6.67255 1.94413 0
M  V30 11131 H 1078.04 4.40436 1.58536 0
M  V30 11132 H 1078.22 6.17798 1.95525 0
M  V30 11133 N 1071.62 -0.679052 1.4222 0
M  V30 11134 C 1072.59 -1.77448 1.45069 0
M  V30 11135 C 1073.59 -1.57189 0.338882 0
M  V30 11136 O 1074.78 -1.63559 0.599519 0
M  V30 11137 C 1071.91 -3.1603 1.27819 0
M  V30 11138 H 1073.1 -1.7631 2.426 0
M  V30 11139 H 1070.65 -0.888277 1.28605 0
M  V30 11140 H 1071.39 -3.22796 0.311946 0
M  V30 11141 H 1071.17 -3.32138 2.08391 0
M  V30 11142 H 1072.66 -3.9596 1.32686 0
M  V30 11143 N 1073.1 -1.28322 -0.914942 0
M  V30 11144 C 1074.35 -1.15179 -1.66067 0
M  V30 11145 C 1074.67 0.300279 -1.92674 0
M  V30 11146 O 1073.94 1.20821 -1.54205 0
M  V30 11147 H 1072.52 -0.423264 -0.615513 0
M  V30 11148 H 1075.18 -1.61034 -1.09791 0
M  V30 11149 H 1074.28 -1.69048 -2.62353 0
M  V30 11150 N 1074.58 1.12322 -1.10551 0
M  V30 11151 C 1075.51 2.17221 -0.699299 0
M  V30 11152 C 1076.49 1.59809 0.299973 0
M  V30 11153 O 1077.67 1.87451 0.198589 0
M  V30 11154 C 1074.8 3.38685 -0.0320136 0
M  V30 11155 C 1073.85 4.14732 -0.99495 0
M  V30 11156 S 1074.68 4.72879 -2.51288 0
M  V30 11157 C 1075.84 5.97676 -1.85834 0
M  V30 11158 H 1076.07 2.51342 -1.5879 0
M  V30 11159 H 1073.6 1.23802 -0.92263 0
M  V30 11160 H 1075.56 4.09034 0.346656 0
M  V30 11161 H 1074.22 3.02842 0.833407 0
M  V30 11162 H 1073.41 5.01754 -0.475331 0
M  V30 11163 H 1073.02 3.50098 -1.31559 0
M  V30 11164 H 1075.31 6.6698 -1.18927 0
M  V30 11165 H 1076.25 6.54266 -2.70817 0
M  V30 11166 H 1076.66 5.48793 -1.32237 0
M  V30 11167 N 1076.06 0.894434 1.2976 0
M  V30 11168 C 1077.28 0.5322 2.00455 0
M  V30 11169 C 1077.71 -0.874427 1.66539 0
M  V30 11170 O 1077.06 -1.58113 0.887129 0
M  V30 11171 C 1077.11 0.725264 3.53231 0
M  V30 11172 O 1076.22 -0.224612 4.11788 0
M  V30 11173 H 1075.56 0.208562 0.630395 0
M  V30 11174 H 1078.09 1.20458 1.65382 0
M  V30 11175 H 1078.1 0.627889 4.0314 0
M  V30 11176 H 1076.77 1.75079 3.77253 0
M  V30 11177 H 1075.35 -0.0801361 3.72814 0
M  V30 11178 N 1077.53 -1.43282 0.656365 0
M  V30 11179 C 1078.78 -2.01378 0.170702 0
M  V30 11180 C 1079.1 -1.52063 -1.22073 0
M  V30 11181 O 1078.37 -0.73456 -1.81607 0
M  V30 11182 H 1076.95 -0.744577 0.0601168 0
M  V30 11183 H 1079.62 -1.75449 0.848739 0
M  V30 11184 H 1078.71 -3.11701 0.157745 0
M  V30 11185 N 1079.01 -0.398486 -1.52479 0
M  V30 11186 C 1080.24 0.183059 -2.06591 0
M  V30 11187 C 1080.66 1.3898 -1.26753 0
M  V30 11188 O 1080.02 1.78885 -0.294959 0
M  V30 11189 C 1080.07 0.522392 -3.56796 0
M  V30 11190 O 1079.17 1.61499 -3.79462 0
M  V30 11191 H 1078.51 0.0188411 -0.663733 0
M  V30 11192 H 1081.04 -0.56861 -1.9654 0
M  V30 11193 H 1081.05 0.784078 -4.00395 0
M  V30 11194 H 1079.73 -0.359807 -4.14341 0
M  V30 11195 H 1078.31 1.3463 -3.47749 0
M  V30 11196 N 1080.49 1.57075 -0.12858 0
M  V30 11197 C 1081.42 2.18833 0.814519 0
M  V30 11198 C 1082.4 1.13114 1.2704 0
M  V30 11199 O 1083.59 1.41387 1.33129 0
M  V30 11200 C 1080.72 2.79535 2.06101 0
M  V30 11201 C 1079.67 3.9092 1.74257 0
M  V30 11202 C 1079 4.38473 3.06015 0
M  V30 11203 C 1080.3 5.1257 1.00345 0
M  V30 11204 H 1081.99 2.97895 0.299862 0
M  V30 11205 H 1079.54 1.4329 0.14279 0
M  V30 11206 H 1081.49 3.21401 2.72543 0
M  V30 11207 H 1080.21 1.97777 2.59907 0
M  V30 11208 H 1078.87 3.49645 1.102 0
M  V30 11209 H 1078.52 3.53561 3.57776 0
M  V30 11210 H 1078.22 5.13591 2.85479 0
M  V30 11211 H 1079.75 4.82997 3.7356 0
M  V30 11212 H 1081.16 5.51395 1.56959 0
M  V30 11213 H 1079.56 5.93333 0.898693 0
M  V30 11214 H 1080.63 4.84899 -0.0081335 0
M  V30 11215 N 1081.97 -0.145205 1.5693 0
M  V30 11216 C 1083.38 -0.705089 1.72874 0
M  V30 11217 C 1083.73 -1.81577 0.743261 0
M  V30 11218 O 1082.86 -2.16214 -0.0897153 0
M  V30 11219 C 1083.45 -1.28578 3.13454 0
M  V30 11220 C 1082.01 -1.79221 3.30994 0
M  V30 11221 C 1081.16 -0.681392 2.68798 0
M  V30 11222 H 1084.11 0.0804798 1.58496 0
M  V30 11223 H 1084.13 -2.15558 3.13552 0
M  V30 11224 H 1083.64 -0.477186 3.85155 0
M  V30 11225 H 1081.74 -2.62642 2.64292 0
M  V30 11226 H 1081.86 -1.91969 4.38959 0
M  V30 11227 H 1080.22 -1.10847 2.29314 0
M  V30 11228 H 1081 0.115786 3.43105 0
M  V30 11229 N 1083.45 -1.52049 -0.414609 0
M  V30 11230 C 1084.7 -1.65511 -1.15977 0
M  V30 11231 C 1085.02 -0.384703 -1.91168 0
M  V30 11232 O 1084.29 0.600247 -1.86477 0
M  V30 11233 H 1082.87 -0.610039 -0.431116 0
M  V30 11234 H 1085.53 -1.8907 -0.473139 0
M  V30 11235 H 1084.62 -2.4936 -1.87686 0
M  V30 11236 N 1084.93 0.6715 -1.42579 0
M  V30 11237 C 1086.17 1.42871 -1.42941 0
M  V30 11238 C 1086.49 1.94941 -0.0480483 0
M  V30 11239 O 1085.76 1.73275 0.913921 0
M  V30 11240 H 1084.34 0.530189 -0.526221 0
M  V30 11241 H 1087.01 0.793219 -1.78028 0
M  V30 11242 H 1086.1 2.2801 -2.13114 0
M  V30 11243 N 1086.4 1.28806 0.908124 0
M  V30 11244 C 1087.63 1.19271 1.69674 0
M  V30 11245 C 1088.05 -0.244403 1.86505 0
M  V30 11246 O 1087.41 -1.17668 1.37927 0
M  V30 11247 C 1087.46 1.9023 3.06341 0
M  V30 11248 O 1086.56 1.2136 3.94139 0
M  V30 11249 H 1085.9 0.413738 0.519343 0
M  V30 11250 H 1088.43 1.70227 1.13508 0
M  V30 11251 H 1088.44 1.98356 3.56537 0
M  V30 11252 H 1087.12 2.94762 2.93408 0
M  V30 11253 H 1085.7 1.21435 3.52573 0
M  V30 11254 N 1087.88 -1.11734 1.11145 0
M  V30 11255 C 1089.13 -1.83677 0.859684 0
M  V30 11256 C 1089.46 -1.84265 -0.613182 0
M  V30 11257 O 1088.74 -1.29351 -1.45254 0
M  V30 11258 C 1089.02 -3.31003 1.41805 0
M  V30 11259 C 1088.87 -3.38827 2.95831 0
M  V30 11260 C 1090.19 -4.26984 1.06645 0
M  V30 11261 H 1087.31 -0.666879 0.313754 0
M  V30 11262 H 1089.95 -1.31038 1.37583 0
M  V30 11263 H 1088.1 -3.75961 0.979054 0
M  V30 11264 H 1089.77 -3.02451 3.48312 0
M  V30 11265 H 1088.02 -2.79143 3.32056 0
M  V30 11266 H 1088.69 -4.42508 3.29986 0
M  V30 11267 H 1091.16 -3.9019 1.44537 0
M  V30 11268 H 1090.04 -5.2846 1.48394 0
M  V30 11269 H 1090.3 -4.42094 -0.0231866 0
M  V30 11270 N 1089.36 -0.901303 -1.29284 0
M  V30 11271 C 1090.61 -0.52401 -1.94774 0
M  V30 11272 C 1090.92 0.934645 -1.71825 0
M  V30 11273 O 1092.13 1.41953 -2.31434 0
M  V30 11274 C 1090.58 -0.886262 -3.48817 0
M  V30 11275 C 1090.19 -2.3638 -3.80564 0
M  V30 11276 C 1091.94 -0.578955 -4.20533 0
M  V30 11277 C 1089.84 -2.66682 -5.27858 0
M  V30 11278 H 1088.77 -0.192244 -0.72908 0
M  V30 11279 H 1091.42 -1.09852 -1.46986 0
M  V30 11280 H 1089.81 -0.240666 -3.95268 0
M  V30 11281 H 1090.98 -3.05508 -3.44966 0
M  V30 11282 H 1089.29 -2.64029 -3.2199 0
M  V30 11283 H 1091.89 -0.782185 -5.28948 0
M  V30 11284 H 1092.23 0.482605 -4.13493 0
M  V30 11285 H 1092.77 -1.18246 -3.79819 0
M  V30 11286 H 1089.51 -3.71643 -5.39965 0
M  V30 11287 H 1089.03 -2.02179 -5.64698 0
M  V30 11288 H 1090.71 -2.53033 -5.95469 0
M  V30 11289 N 1090.84 1.42931 -0.663954 0
M  V30 11290 C 1092.06 2.06544 -0.188201 0
M  V30 11291 C 1092.49 1.495 1.14155 0
M  V30 11292 O 1091.85 0.609164 1.7076 0
M  V30 11293 C 1091.89 3.60393 -0.122105 0
M  V30 11294 O 1091 4.02176 0.91258 0
M  V30 11295 H 1090.34 0.656458 -0.0997967 0
M  V30 11296 H 1092.87 1.83253 -0.909909 0
M  V30 11297 H 1092.88 4.07959 0.0576568 0
M  V30 11298 H 1091.55 4.01287 -1.09276 0
M  V30 11299 H 1090.13 3.6618 0.704738 0
M  V30 11300 N 1092.32 0.406567 1.52266 0
M  V30 11301 C 1093.73 0.0573228 1.59497 0
M  V30 11302 C 1093.93 -1.43005 1.41957 0
M  V30 11303 O 1092.99 -2.19659 1.24523 0
M  V30 11304 C 1094.3 0.549947 2.95628 0
M  V30 11305 C 1095.85 0.5077 3.08855 0
M  V30 11306 C 1096.32 0.976792 4.47463 0
M  V30 11307 N 1097.81 0.933508 4.53696 0
M  V30 11308 C 1098.55 1.26769 5.59211 0
M  V30 11309 N 1098.05 1.6732 6.72292 0
M  V30 11310 N 1099.84 1.18782 5.49406 0
M  V30 11311 H 1091.99 1.37468 1.61914 0
M  V30 11312 H 1094.25 0.564562 0.76156 0
M  V30 11313 H 1093.96 1.58943 3.13736 0
M  V30 11314 H 1093.83 -0.0417767 3.77177 0
M  V30 11315 H 1096.22 -0.522728 2.90433 0
M  V30 11316 H 1096.3 1.13545 2.29219 0
M  V30 11317 H 1095.94 2.00554 4.66627 0
M  V30 11318 H 1095.87 0.325885 5.25591 0
M  V30 11319 H 1098.37 0.635333 3.72521 0
M  V30 11320 H 1098.68 1.91137 7.4879 0
M  V30 11321 H 1097.02 1.71221 6.73579 0
M  V30 11322 H 1100.21 0.869906 4.59946 0
M  V30 11323 H 1100.39 1.45157 6.31533 0
M  V30 11324 N 1093.79 -1.57004 0.136909 0
M  V30 11325 C 1094.72 -2.19262 -0.802902 0
M  V30 11326 C 1095.71 -1.13786 -1.26439 0
M  V30 11327 O 1096.89 -1.42091 -1.32377 0
M  V30 11328 C 1094.02 -2.80624 -2.04615 0
M  V30 11329 C 1092.97 -3.91839 -1.72181 0
M  V30 11330 C 1092.3 -4.4009 -3.03686 0
M  V30 11331 C 1093.6 -5.13095 -0.976249 0
M  V30 11332 H 1095.29 -2.98049 -0.28406 0
M  V30 11333 H 1092.84 -1.43364 -0.135189 0
M  V30 11334 H 1094.79 -3.22842 -2.70834 0
M  V30 11335 H 1093.52 -1.99153 -2.58855 0
M  V30 11336 H 1092.18 -3.50224 -1.08344 0
M  V30 11337 H 1091.82 -3.55454 -3.55896 0
M  V30 11338 H 1091.52 -5.15098 -2.82751 0
M  V30 11339 H 1093.05 -4.84971 -3.70993 0
M  V30 11340 H 1094.46 -5.5222 -1.54033 0
M  V30 11341 H 1092.86 -5.93801 -0.867214 0
M  V30 11342 H 1093.93 -4.84888 0.0338488 0
M  V30 11343 N 1095.27 0.136881 -1.57004 0
M  V30 11344 C 1096.2 1.17026 -2.02057 0
M  V30 11345 C 1097.18 1.44223 -0.901866 0
M  V30 11346 O 1098.37 1.54971 -1.17037 0
M  V30 11347 C 1095.5 2.50095 -2.40977 0
M  V30 11348 C 1094.45 2.37398 -3.56127 0
M  V30 11349 C 1093.78 3.75268 -3.80891 0
M  V30 11350 C 1095.08 1.84952 -4.88457 0
M  V30 11351 H 1096.77 0.795601 -2.88636 0
M  V30 11352 H 1094.32 0.381266 -1.38861 0
M  V30 11353 H 1096.27 3.22621 -2.71097 0
M  V30 11354 H 1095 2.89416 -1.51348 0
M  V30 11355 H 1093.65 1.67322 -3.26188 0
M  V30 11356 H 1093.3 4.12043 -2.88496 0
M  V30 11357 H 1093 3.67631 -4.5839 0
M  V30 11358 H 1094.53 4.49327 -4.13446 0
M  V30 11359 H 1095.94 2.4728 -5.17229 0
M  V30 11360 H 1094.34 1.88181 -5.69832 0
M  V30 11361 H 1095.41 0.805848 -4.78157 0
M  V30 11362 N 1096.75 1.52266 0.40654 0
M  V30 11363 C 1098 1.6568 1.15035 0
M  V30 11364 C 1098.31 0.394135 1.91588 0
M  V30 11365 O 1099.52 0.408113 2.68415 0
M  V30 11366 C 1097.97 2.92725 2.0938 0
M  V30 11367 C 1097.58 4.26108 1.38332 0
M  V30 11368 C 1099.33 3.15502 2.84004 0
M  V30 11369 C 1097.23 5.44275 2.3134 0
M  V30 11370 H 1096.16 0.61719 0.43312 0
M  V30 11371 H 1098.81 1.78755 0.414598 0
M  V30 11372 H 1097.2 2.73355 2.86519 0
M  V30 11373 H 1098.37 4.55971 0.665396 0
M  V30 11374 H 1096.69 4.09454 0.757384 0
M  V30 11375 H 1099.28 4.00964 3.5374 0
M  V30 11376 H 1099.63 2.29842 3.471 0
M  V30 11377 H 1100.16 3.35357 2.13964 0
M  V30 11378 H 1096.9 6.3229 1.72887 0
M  V30 11379 H 1096.42 5.18749 3.01098 0
M  V30 11380 H 1098.1 5.77457 2.91809 0
M  V30 11381 N 1098.23 -0.663929 1.42933 0
M  V30 11382 C 1099.18 -1.79843 1.4751 0
M  V30 11383 C 1100.17 -1.65751 0.349727 0
M  V30 11384 O 1101.38 -1.72227 0.523239 0
M  V30 11385 H 1097.75 -0.593176 0.462219 0
M  V30 11386 H 1099.72 -1.73102 2.4306 0
M  V30 11387 C 1098.47 -3.18053 1.4049 0
M  V30 11388 H 1097.79 -3.29529 2.26386 0
M  V30 11389 H 1099.23 -3.97423 1.47754 0
M  V30 11390 C 1097.69 -3.36682 0.121076 0
M  V30 11391 O 1098.22 -3.93202 -0.821874 0
M  V30 11392 N 1096.43 -2.90579 0.0347141 0
M  V30 11393 H 1095.98 -2.44769 0.802852 0
M  V30 11394 H 1095.93 -3.03421 -0.823607 0
M  V30 11395 N 1099.71 -1.29285 -0.901281 0
M  V30 11396 C 1100.67 -1.14283 -1.98676 0
M  V30 11397 C 1101.67 -0.0787641 -1.60607 0
M  V30 11398 O 1102.86 -0.325574 -1.71131 0
M  V30 11399 C 1099.99 -0.747279 -3.32609 0
M  V30 11400 H 1101.18 -2.10701 -2.13413 0
M  V30 11401 H 1098.74 -1.12449 -1.08558 0
M  V30 11402 H 1099.47 0.217111 -3.23572 0
M  V30 11403 H 1099.26 -1.51608 -3.61604 0
M  V30 11404 H 1100.75 -0.665322 -4.12266 0
M  V30 11405 N 1101.18 1.11143 -1.11736 0
M  V30 11406 C 1102.46 1.79384 -0.779785 0
M  V30 11407 C 1102.84 1.98015 0.731668 0
M  V30 11408 O 1102.19 1.56731 1.66276 0
M  V30 11409 C 1102.4 3.12868 -1.54643 0
M  V30 11410 C 1103.75 3.8786 -1.7277 0
M  V30 11411 O 1104.77 3.22566 -1.51094 0
M  V30 11412 O 1103.63 5.05034 -2.08813 0
M  V30 11413 H 1100.72 0.777128 -0.282845 0
M  V30 11414 H 1103.27 1.17858 -1.22096 0
M  V30 11415 H 1102.04 2.94682 -2.57446 0
M  V30 11416 H 1101.67 3.82109 -1.09901 0
M  V30 11417 N 1102.66 0.908147 1.28804 0
M  V30 11418 C 1104.07 0.585727 1.77274 0
M  V30 11419 C 1104.42 -0.898842 1.744 0
M  V30 11420 O 1103.55 -1.70301 1.33516 0
M  V30 11421 C 1104.14 1.05647 3.21907 0
M  V30 11422 C 1102.7 0.785066 3.68122 0
M  V30 11423 C 1101.85 1.22638 2.48707 0
M  V30 11424 H 1104.8 1.09 1.15346 0
M  V30 11425 H 1104.82 0.395442 3.7844 0
M  V30 11426 H 1104.33 2.13698 3.23967 0
M  V30 11427 H 1102.44 -0.282477 3.71528 0
M  V30 11428 H 1102.55 1.38888 4.58527 0
M  V30 11429 H 1100.91 0.645217 2.46392 0
M  V30 11430 H 1101.7 2.31512 2.5349 0
M  V30 11431 N 1104.14 -1.42577 0.671525 0
M  V30 11432 C 1105.39 -2.01584 0.192431 0
M  V30 11433 C 1105.72 -1.53076 -1.19992 0
M  V30 11434 O 1104.97 -0.722196 -1.81887 0
M  V30 11435 C 1105.27 -3.56985 0.172097 0
M  V30 11436 C 1104.94 -4.24912 1.50867 0
M  V30 11437 C 1103.6 -4.43182 1.87464 0
M  V30 11438 C 1105.95 -4.6322 2.38908 0
M  V30 11439 C 1103.28 -4.97031 3.11732 0
M  V30 11440 C 1105.63 -5.18447 3.62485 0
M  V30 11441 C 1104.29 -5.34932 3.99255 0
M  V30 11442 H 1103.56 -0.737647 0.0704155 0
M  V30 11443 H 1106.21 -1.70807 0.865862 0
M  V30 11444 H 1104.52 -3.87411 -0.584835 0
M  V30 11445 H 1106.21 -4.00419 -0.215749 0
M  V30 11446 H 1102.8 -4.11048 1.21397 0
M  V30 11447 H 1106.99 -4.4878 2.1192 0
M  V30 11448 H 1102.24 -5.07979 3.40246 0
M  V30 11449 H 1106.42 -5.47075 4.30909 0
M  V30 11450 H 1104.04 -5.76422 4.95623 0
M  V30 11451 N 1105.62 -0.414636 -1.52048 0
M  V30 11452 C 1106.57 0.422766 -2.28726 0
M  V30 11453 C 1107.56 1.04099 -1.3364 0
M  V30 11454 O 1108.77 0.978559 -1.51077 0
M  V30 11455 H 1105.14 0.155123 -0.735827 0
M  V30 11456 H 1107.11 -0.245091 -2.97392 0
M  V30 11457 C 1105.86 1.52418 -3.12513 0
M  V30 11458 H 1105.18 1.05781 -3.85552 0
M  V30 11459 H 1106.62 2.08382 -3.6926 0
M  V30 11460 C 1105.08 2.49465 -2.26426 0
M  V30 11461 O 1105.61 3.53479 -1.90829 0
M  V30 11462 N 1103.82 2.19806 -1.90088 0
M  V30 11463 H 1103.37 1.35253 -2.19236 0
M  V30 11464 H 1103.32 2.84984 -1.32783 0
M  V30 11465 N 1107.1 1.56929 -0.145233 0
M  V30 11466 C 1108.32 2.00864 0.516564 0
M  V30 11467 C 1108.75 1.02466 1.57741 0
M  V30 11468 O 1108.1 0.000145439 1.813 0
M  V30 11469 C 1108.15 3.43552 1.09563 0
M  V30 11470 O 1107.26 3.4815 2.21055 0
M  V30 11471 H 1106.6 0.651835 0.126521 0
M  V30 11472 H 1109.13 2.0317 -0.241445 0
M  V30 11473 H 1109.14 3.82316 1.42473 0
M  V30 11474 H 1107.81 4.14677 0.318749 0
M  V30 11475 H 1106.39 3.21228 1.89387 0
M  V30 11476 N 1108.58 -0.128553 1.57075 0
M  V30 11477 C 1109.49 -1.17718 2.02927 0
M  V30 11478 C 1110.5 -1.45912 0.947932 0
M  V30 11479 O 1111.68 -1.57217 1.25876 0
M  V30 11480 C 1108.74 -2.48625 2.41633 0
M  V30 11481 C 1107.8 -2.27914 3.63804 0
M  V30 11482 C 1107.04 -3.52579 4.00654 0
M  V30 11483 O 1107.26 -4.59505 3.37952 0
M  V30 11484 O 1106.19 -3.44147 4.93808 0
M  V30 11485 H 1110.02 -0.817846 2.92481 0
M  V30 11486 H 1107.6 -0.338649 1.45511 0
M  V30 11487 H 1109.49 -3.2577 2.67305 0
M  V30 11488 H 1108.16 -2.84052 1.55229 0
M  V30 11489 H 1107.07 -1.4866 3.43294 0
M  V30 11490 H 1108.4 -1.97395 4.50883 0
M  V30 11491 N 1110.05 -1.5248 -0.398459 0
M  V30 11492 C 1111.46 -1.59107 -0.976817 0
M  V30 11493 C 1111.82 -0.438104 -1.91246 0
M  V30 11494 O 1110.94 0.440111 -2.11877 0
M  V30 11495 C 1111.54 -2.88373 -1.77838 0
M  V30 11496 C 1110.09 -2.97445 -2.30659 0
M  V30 11497 C 1109.24 -2.5414 -1.10942 0
M  V30 11498 H 1112.19 -1.57695 -0.178324 0
M  V30 11499 H 1112.21 -2.74327 -2.63676 0
M  V30 11500 H 1111.73 -3.72269 -1.09714 0
M  V30 11501 H 1109.83 -2.18066 -3.02123 0
M  V30 11502 H 1109.94 -4.019 -2.60794 0
M  V30 11503 H 1108.3 -2.08237 -1.46661 0
M  V30 11504 H 1109.09 -3.40421 -0.443684 0
M  V30 11505 N 1111.53 0.65634 -1.43283 0
M  V30 11506 C 1112.44 1.79847 -1.50639 0
M  V30 11507 C 1113.46 1.69487 -0.393714 0
M  V30 11508 O 1114.63 1.90712 -0.647379 0
M  V30 11509 C 1111.7 3.16107 -1.42398 0
M  V30 11510 C 1110.76 3.38287 -2.64312 0
M  V30 11511 C 1109.99 4.68046 -2.56454 0
M  V30 11512 O 1110.22 5.4719 -1.61056 0
M  V30 11513 O 1109.15 4.91877 -3.46902 0
M  V30 11514 H 1112.98 1.76596 -2.47078 0
M  V30 11515 H 1110.56 0.814428 -1.25249 0
M  V30 11516 H 1112.44 3.97382 -1.40233 0
M  V30 11517 H 1111.12 3.19956 -0.490929 0
M  V30 11518 H 1110.02 2.56788 -2.72049 0
M  V30 11519 H 1111.36 3.39282 -3.56579 0
M  V30 11520 N 1113.01 1.29761 0.894412 0
M  V30 11521 C 1114.24 1.2094 1.67872 0
M  V30 11522 C 1114.65 -0.229192 1.87404 0
M  V30 11523 O 1114.01 -1.15278 1.41482 0
M  V30 11524 C 1114.06 1.92424 3.06032 0
M  V30 11525 O 1113.78 3.30665 2.87388 0
M  V30 11526 C 1115.28 1.90144 4.0045 0
M  V30 11527 H 1112.5 0.418942 0.524145 0
M  V30 11528 H 1115.05 1.71226 1.11813 0
M  V30 11529 H 1113.2 1.4596 3.58851 0
M  V30 11530 H 1113.62 3.66741 3.74969 0
M  V30 11531 H 1115.09 2.44716 4.94791 0
M  V30 11532 H 1115.57 0.878175 4.30331 0
M  V30 11533 H 1116.17 2.36375 3.53563 0
M  V30 11534 N 1114.49 -1.10549 1.12324 0
M  V30 11535 C 1115.42 -2.18911 0.812416 0
M  V30 11536 C 1116.4 -1.68628 -0.22327 0
M  V30 11537 O 1117.58 -1.94015 -0.0847184 0
M  V30 11538 C 1114.71 -3.46288 0.264947 0
M  V30 11539 C 1113.67 -4.09838 1.23356 0
M  V30 11540 C 1112.99 -5.31901 0.546374 0
M  V30 11541 C 1114.29 -4.53686 2.58778 0
M  V30 11542 H 1115.99 -2.45169 1.71851 0
M  V30 11543 H 1113.53 -1.17834 0.827715 0
M  V30 11544 H 1115.49 -4.21385 0.0352364 0
M  V30 11545 H 1114.21 -3.19517 -0.676479 0
M  V30 11546 H 1112.87 -3.36746 1.44906 0
M  V30 11547 H 1112.52 -5.01406 -0.400157 0
M  V30 11548 H 1112.22 -5.75372 1.19249 0
M  V30 11549 H 1113.74 -6.09731 0.325673 0
M  V30 11550 H 1115.16 -5.20063 2.41263 0
M  V30 11551 H 1113.55 -5.08003 3.19457 0
M  V30 11552 H 1114.62 -3.66665 3.17309 0
M  V30 11553 N 1115.97 -0.914965 -1.28321 0
M  V30 11554 C 1116.88 -0.409424 -2.31 0
M  V30 11555 C 1117.89 0.503526 -1.66555 0
M  V30 11556 O 1119.07 0.38942 -1.97599 0
M  V30 11557 C 1116.13 0.34123 -3.45017 0
M  V30 11558 C 1115.19 -0.605087 -4.25014 0
M  V30 11559 C 1114.43 0.109837 -5.33587 0
M  V30 11560 O 1114.65 1.33136 -5.54645 0
M  V30 11561 O 1113.58 -0.555474 -5.99331 0
M  V30 11562 H 1117.41 -1.26167 -2.76253 0
M  V30 11563 H 1114.99 -0.679831 -1.33036 0
M  V30 11564 H 1116.88 0.765132 -4.14396 0
M  V30 11565 H 1115.55 1.16929 -3.01843 0
M  V30 11566 H 1114.46 -1.07841 -3.58219 0
M  V30 11567 H 1115.79 -1.39999 -4.7187 0
M  V30 11568 N 1117.44 1.42219 -0.679077 0
M  V30 11569 C 1118.67 2.05516 -0.211342 0
M  V30 11570 C 1119.08 1.5113 1.13826 0
M  V30 11571 O 1118.42 0.647593 1.71907 0
M  V30 11572 C 1118.49 3.59425 -0.0736007 0
M  V30 11573 C 1118.15 4.36525 -1.3526 0
M  V30 11574 C 1119.15 4.66897 -2.28698 0
M  V30 11575 C 1116.83 4.76089 -1.60139 0
M  V30 11576 C 1118.83 5.35775 -3.45288 0
M  V30 11577 C 1116.51 5.44706 -2.77017 0
M  V30 11578 C 1117.51 5.74474 -3.69416 0
M  V30 11579 O 1117.2 6.41683 -4.8425 0
M  V30 11580 H 1116.93 0.668662 -0.0993318 0
M  V30 11581 H 1119.49 1.8327 -0.927434 0
M  V30 11582 H 1117.72 3.80346 0.69811 0
M  V30 11583 H 1119.4 4.04346 0.354813 0
M  V30 11584 H 1120.17 4.36828 -2.10729 0
M  V30 11585 H 1116.05 4.5231 -0.890887 0
M  V30 11586 H 1119.59 5.58927 -4.17428 0
M  V30 11587 H 1115.49 5.74194 -2.9491 0
M  V30 11588 H 1116.26 6.60175 -4.8385 0
M  V30 11589 N 1118.92 0.422693 1.51826 0
M  V30 11590 C 1120.15 -0.14753 2.06073 0
M  V30 11591 C 1120.56 -1.38264 1.2915 0
M  V30 11592 O 1119.9 -1.8052 0.340306 0
M  V30 11593 C 1119.96 -0.549558 3.55275 0
M  V30 11594 C 1119.63 0.576704 4.53347 0
M  V30 11595 C 1120.63 1.44442 4.99432 0
M  V30 11596 C 1118.31 0.753264 4.9662 0
M  V30 11597 C 1120.3 2.47352 5.87448 0
M  V30 11598 C 1117.99 1.78566 5.84429 0
M  V30 11599 C 1118.99 2.64419 6.29739 0
M  V30 11600 O 1118.68 3.65888 7.15808 0
M  V30 11601 H 1118.41 -0.0178911 0.675763 0
M  V30 11602 H 1120.96 0.596258 1.96555 0
M  V30 11603 H 1119.19 -1.34583 3.62525 0
M  V30 11604 H 1120.88 -1.04925 3.92104 0
M  V30 11605 H 1121.65 1.31948 4.66706 0
M  V30 11606 H 1117.53 0.0946405 4.60903 0
M  V30 11607 H 1121.07 3.14397 6.22736 0
M  V30 11608 H 1116.97 1.91086 6.16568 0
M  V30 11609 H 1117.74 3.62294 7.33952 0
M  V30 11610 N 1120.4 -1.5685 0.153553 0
M  V30 11611 C 1121.63 -2.00701 -0.502678 0
M  V30 11612 C 1122.04 -1.0337 -1.57988 0
M  V30 11613 O 1121.4 -0.0317233 -1.82472 0
M  V30 11614 C 1121.45 -3.44443 -1.09732 0
M  V30 11615 O 1121.17 -4.38054 -0.0631405 0
M  V30 11616 C 1122.67 -4.03605 -1.83352 0
M  V30 11617 H 1119.89 -0.658229 -0.130289 0
M  V30 11618 H 1122.44 -2.02965 0.250063 0
M  V30 11619 H 1120.59 -3.43009 -1.80065 0
M  V30 11620 H 1121.01 -5.22114 -0.499681 0
M  V30 11621 H 1122.48 -5.0616 -2.20241 0
M  V30 11622 H 1122.96 -3.44687 -2.7219 0
M  V30 11623 H 1123.56 -4.08688 -1.17703 0
M  V30 11624 N 1121.88 0.120221 -1.57141 0
M  V30 11625 C 1122.79 1.16641 -2.03549 0
M  V30 11626 C 1123.8 1.45407 -0.955656 0
M  V30 11627 O 1124.98 1.56547 -1.26708 0
M  V30 11628 C 1122.04 2.4734 -2.42948 0
M  V30 11629 C 1121.11 2.25982 -3.65008 0
M  V30 11630 C 1120.34 3.50449 -4.02518 0
M  V30 11631 O 1120.56 4.57706 -3.40384 0
M  V30 11632 O 1119.5 3.41524 -4.95626 0
M  V30 11633 H 1123.32 0.802323 -2.9291 0
M  V30 11634 H 1120.91 0.330927 -1.45689 0
M  V30 11635 H 1122.79 3.24348 -2.69029 0
M  V30 11636 H 1121.46 2.83225 -1.56733 0
M  V30 11637 H 1120.37 1.46837 -3.44078 0
M  V30 11638 H 1121.7 1.95002 -4.51924 0
M  V30 11639 N 1123.36 1.52689 0.390367 0
M  V30 11640 C 1124.3 1.7737 1.47677 0
M  V30 11641 C 1125.27 0.616864 1.54221 0
M  V30 11642 O 1126.46 0.856437 1.70499 0
M  V30 11643 C 1123.6 1.94715 2.84921 0
M  V30 11644 C 1122.71 3.22405 2.8754 0
M  V30 11645 C 1121.85 3.30074 4.16202 0
M  V30 11646 C 1120.89 4.51893 4.12867 0
M  V30 11647 N 1120.02 4.56851 5.33134 0
M  V30 11648 H 1124.86 2.70084 1.25932 0
M  V30 11649 H 1122.4 1.33813 0.610943 0
M  V30 11650 H 1124.36 2.02755 3.64618 0
M  V30 11651 H 1122.99 1.05363 3.0512 0
M  V30 11652 H 1122.04 3.23442 2.00223 0
M  V30 11653 H 1123.35 4.12156 2.80943 0
M  V30 11654 H 1122.51 3.3729 5.04302 0
M  V30 11655 H 1121.24 2.38295 4.25519 0
M  V30 11656 H 1120.25 4.44803 3.23156 0
M  V30 11657 H 1121.47 5.44987 4.05174 0
M  V30 11658 H 1119.42 3.67963 5.43083 0
M  V30 11659 H 1119.34 5.40472 5.28607 0
M  V30 11660 H 1120.61 4.6832 6.23134 0
M  V30 11661 N 1124.83 -0.648732 1.43629 0
M  V30 11662 C 1126.07 -1.42032 1.46991 0
M  V30 11663 C 1126.44 -1.91774 0.0931841 0
M  V30 11664 O 1127.64 -2.688 0.00148504 0
M  V30 11665 C 1125.91 -2.56693 2.48684 0
M  V30 11666 S 1127.47 -3.45149 2.70956 0
M  V30 11667 H 1124.29 -0.484772 0.520113 0
M  V30 11668 H 1126.89 -0.75274 1.80427 0
M  V30 11669 H 1125.59 -2.18431 3.47442 0
M  V30 11670 H 1125.12 -3.28296 2.1676 0
M  V30 11671 H 1127.14 -4.53569 2.01221 0
M  V30 11672 N 1126.31 -1.30234 -0.887518 0
M  V30 11673 C 1127.56 -1.19086 -1.64153 0
M  V30 11674 C 1127.89 0.254428 -1.92526 0
M  V30 11675 O 1127.17 1.18233 -1.54438 0
M  V30 11676 C 1127.45 -2.01723 -2.98295 0
M  V30 11677 C 1127.3 -3.54458 -2.76911 0
M  V30 11678 C 1128.62 -1.85307 -3.99186 0
M  V30 11679 H 1125.74 -0.433967 -0.595686 0
M  V30 11680 H 1128.38 -1.59839 -1.0272 0
M  V30 11681 H 1126.53 -1.67096 -3.5073 0
M  V30 11682 H 1128.2 -3.99131 -2.31284 0
M  V30 11683 H 1126.45 -3.78768 -2.11464 0
M  V30 11684 H 1127.12 -4.07565 -3.72283 0
M  V30 11685 H 1129.59 -2.15575 -3.55903 0
M  V30 11686 H 1128.47 -2.45456 -4.90961 0
M  V30 11687 H 1128.73 -0.811528 -4.34588 0
M  V30 11688 N 1127.79 1.09952 -1.12909 0
M  V30 11689 C 1128.72 2.15689 -0.745217 0
M  V30 11690 C 1129.7 1.60409 0.266007 0
M  V30 11691 O 1130.89 1.8783 0.158783 0
M  V30 11692 C 1128.01 3.38541 -0.103846 0
M  V30 11693 C 1127.06 4.12529 -1.0827 0
M  V30 11694 S 1127.89 4.67442 -2.61262 0
M  V30 11695 C 1129.05 5.936 -1.9847 0
M  V30 11696 H 1129.28 2.47918 -1.64086 0
M  V30 11697 H 1126.81 1.21817 -0.948682 0
M  V30 11698 H 1128.77 4.09677 0.259816 0
M  V30 11699 H 1127.43 3.04541 0.768982 0
M  V30 11700 H 1126.63 5.00632 -0.581653 0
M  V30 11701 H 1126.23 3.47228 -1.38955 0
M  V30 11702 H 1128.52 6.64308 -1.33048 0
M  V30 11703 H 1129.46 6.48374 -2.84634 0
M  V30 11704 H 1129.87 5.45864 -1.43848 0
M  V30 11705 N 1129.27 0.921757 1.27833 0
M  V30 11706 C 1130.22 0.406628 2.29018 0
M  V30 11707 C 1131.21 -0.505914 1.61669 0
M  V30 11708 O 1132.42 -0.386273 1.75807 0
M  V30 11709 H 1128.79 0.112914 0.743475 0
M  V30 11710 H 1130.76 1.27295 2.69886 0
M  V30 11711 C 1129.51 -0.330783 3.46123 0
M  V30 11712 H 1128.83 0.362207 3.98156 0
M  V30 11713 H 1130.27 -0.655738 4.18899 0
M  V30 11714 C 1128.73 -1.54161 2.9956 0
M  V30 11715 O 1129.26 -2.64052 3.0272 0
M  V30 11716 N 1127.47 -1.39137 2.55126 0
M  V30 11717 H 1127.02 -0.497319 2.52754 0
M  V30 11718 H 1126.97 -2.20278 2.24333 0
M  V30 11719 N 1130.75 -1.41857 0.686609 0
M  V30 11720 C 1131.69 -2.326 0.0041351 0
M  V30 11721 C 1132.69 -1.50474 -0.778077 0
M  V30 11722 O 1133.89 -1.66468 -0.684709 0
M  V30 11723 H 1130.27 -0.751797 -0.0174615 0
M  V30 11724 H 1132.24 -2.87844 0.786656 0
M  V30 11725 C 1130.99 -3.35175 -0.924819 0
M  V30 11726 H 1130.31 -3.98416 -0.332339 0
M  V30 11727 H 1131.75 -4.01229 -1.37082 0
M  V30 11728 C 1130.21 -2.68359 -2.03679 0
M  V30 11729 O 1130.74 -2.52453 -3.12459 0
M  V30 11730 N 1128.95 -2.27196 -1.81192 0
M  V30 11731 H 1128.49 -2.40333 -0.92725 0
M  V30 11732 H 1128.45 -1.82824 -2.55778 0
M  V30 11733 N 1132.22 -0.430739 -1.51599 0
M  V30 11734 C 1133.45 0.136599 -2.06148 0
M  V30 11735 C 1133.86 1.37577 -1.29881 0
M  V30 11736 O 1133.21 1.80337 -0.349875 0
M  V30 11737 C 1133.27 0.53071 -3.55561 0
M  V30 11738 C 1132.93 -0.600738 -4.53034 0
M  V30 11739 C 1133.93 -1.47089 -4.98659 0
M  V30 11740 C 1131.61 -0.77959 -4.96213 0
M  V30 11741 C 1133.61 -2.50464 -5.86128 0
M  V30 11742 C 1131.29 -1.81663 -5.83474 0
M  V30 11743 C 1132.29 -2.67755 -6.28328 0
M  V30 11744 O 1131.98 -3.69679 -7.13858 0
M  V30 11745 H 1131.71 0.0143071 -0.675849 0
M  V30 11746 H 1134.27 -0.606673 -1.96236 0
M  V30 11747 H 1132.5 1.32659 -3.63233 0
M  V30 11748 H 1134.19 1.02844 -3.92655 0
M  V30 11749 H 1134.95 -1.34421 -4.66 0
M  V30 11750 H 1130.83 -0.119082 -4.60846 0
M  V30 11751 H 1134.37 -3.17695 -6.2106 0
M  V30 11752 H 1130.27 -1.94353 -6.15546 0
M  V30 11753 H 1131.04 -3.66181 -7.3202 0
M  V30 11754 N 1133.7 1.56767 -0.161869 0
M  V30 11755 C 1134.95 1.96594 0.485496 0
M  V30 11756 C 1135.28 1.04743 1.63887 0
M  V30 11757 O 1134.53 0.079602 1.95538 0
M  V30 11758 C 1134.83 3.42567 1.01894 0
M  V30 11759 C 1134.5 4.50897 -0.0175419 0
M  V30 11760 C 1133.16 4.80249 -0.302429 0
M  V30 11761 C 1135.51 5.16181 -0.721572 0
M  V30 11762 C 1132.84 5.72187 -1.2969 0
M  V30 11763 C 1135.19 6.09191 -1.70496 0
M  V30 11764 C 1133.86 6.36915 -1.99739 0
M  V30 11765 H 1133.13 0.719388 0.177656 0
M  V30 11766 H 1135.77 1.89837 -0.251839 0
M  V30 11767 H 1134.08 3.4623 1.83391 0
M  V30 11768 H 1135.77 3.70719 1.52867 0
M  V30 11769 H 1132.36 4.28062 0.21468 0
M  V30 11770 H 1136.55 4.93624 -0.514681 0
M  V30 11771 H 1131.8 5.91953 -1.52974 0
M  V30 11772 H 1135.98 6.58849 -2.25591 0
M  V30 11773 H 1133.61 7.07958 -2.76948 0
M  V30 11774 N 1135.18 -0.111886 1.57202 0
M  V30 11775 C 1136.43 -0.816794 1.84859 0
M  V30 11776 C 1136.75 -1.80079 0.748113 0
M  V30 11777 O 1136.02 -1.94578 -0.227235 0
M  V30 11778 H 1134.6 -0.304633 0.682061 0
M  V30 11779 H 1137.26 -0.097513 1.94656 0
M  V30 11780 H 1136.36 -1.35768 2.81022 0
M  V30 11781 N 1136.66 -1.52894 -0.382264 0
M  V30 11782 C 1137.91 -1.67489 -1.12385 0
M  V30 11783 C 1138.22 -0.424565 -1.90937 0
M  V30 11784 O 1139.43 -0.450763 -2.67732 0
M  V30 11785 C 1137.88 -2.96019 -2.04697 0
M  V30 11786 C 1137.49 -4.28255 -1.31535 0
M  V30 11787 C 1139.23 -3.19981 -2.78949 0
M  V30 11788 C 1137.14 -5.47887 -2.22652 0
M  V30 11789 H 1136.07 -0.624002 -0.423246 0
M  V30 11790 H 1138.72 -1.79392 -0.386107 0
M  V30 11791 H 1137.1 -2.77878 -2.82134 0
M  V30 11792 H 1138.28 -4.56971 -0.592771 0
M  V30 11793 H 1136.59 -4.10607 -0.692148 0
M  V30 11794 H 1139.19 -4.06541 -3.47316 0
M  V30 11795 H 1139.53 -2.35335 -3.43399 0
M  V30 11796 H 1140.07 -3.38718 -2.08602 0
M  V30 11797 H 1136.81 -6.3496 -1.62806 0
M  V30 11798 H 1136.33 -5.23473 -2.92807 0
M  V30 11799 H 1138 -5.82026 -2.82586 0
M  V30 11800 N 1138.14 0.641106 -1.43971 0
M  V30 11801 C 1139.39 1.39807 -1.4594 0
M  V30 11802 C 1139.71 1.94795 -0.0893874 0
M  V30 11803 O 1138.98 1.75175 0.876962 0
M  V30 11804 H 1137.56 0.518908 -0.537349 0
M  V30 11805 H 1140.22 0.755278 -1.79671 0
M  V30 11806 H 1139.31 2.23439 -2.17903 0
M  V30 11807 N 1139.62 1.30703 0.880598 0
M  V30 11808 C 1140.55 1.20033 2.00286 0
M  V30 11809 C 1141.53 0.0899614 1.69862 0
M  V30 11810 O 1142.71 0.272747 1.92275 0
M  V30 11811 C 1139.84 0.895902 3.35546 0
M  V30 11812 C 1138.8 1.96468 3.80242 0
M  V30 11813 C 1138.12 1.51316 5.12843 0
M  V30 11814 C 1139.42 3.37637 3.98496 0
M  V30 11815 H 1141.12 2.13922 2.0947 0
M  V30 11816 H 1138.66 1.02989 1.00644 0
M  V30 11817 H 1140.61 0.807899 4.13583 0
M  V30 11818 H 1139.34 -0.0786636 3.26505 0
M  V30 11819 H 1138 2.0424 3.04437 0
M  V30 11820 H 1137.65 0.52674 5.00234 0
M  V30 11821 H 1137.35 2.22807 5.43719 0
M  V30 11822 H 1138.87 1.43903 5.93401 0
M  V30 11823 H 1140.28 3.326 4.66959 0
M  V30 11824 H 1138.68 4.07253 4.40755 0
M  V30 11825 H 1139.75 3.79205 3.02211 0
M  V30 11826 N 1141.09 -1.09351 1.1349 0
M  V30 11827 C 1142.37 -1.78121 0.808225 0
M  V30 11828 C 1142.75 -1.99154 -0.700072 0
M  V30 11829 O 1142.1 -1.59356 -1.63762 0
M  V30 11830 C 1142.31 -3.10368 1.59601 0
M  V30 11831 C 1143.66 -3.85063 1.78919 0
M  V30 11832 O 1144.68 -3.20122 1.56206 0
M  V30 11833 O 1143.54 -5.01648 2.16821 0
M  V30 11834 H 1140.63 -0.77253 0.295173 0
M  V30 11835 H 1143.18 -1.15901 1.23956 0
M  V30 11836 H 1141.95 -2.90549 2.62101 0
M  V30 11837 H 1141.57 -3.80312 1.15967 0
M  V30 11838 N 1142.57 -0.928524 -1.27343 0
M  V30 11839 C 1143.53 -0.43292 -2.25074 0
M  V30 11840 C 1144.53 0.448976 -1.54405 0
M  V30 11841 O 1145.72 0.249939 -1.72398 0
M  V30 11842 C 1142.86 0.377539 -3.38803 0
M  V30 11843 H 1144.05 -1.29642 -2.70431 0
M  V30 11844 H 1141.6 -0.709289 -1.3928 0
M  V30 11845 H 1142.34 1.25982 -2.98829 0
M  V30 11846 H 1142.12 -0.254782 -3.91271 0
M  V30 11847 H 1143.61 0.714634 -4.1144 0
M  V30 11848 N 1144.05 1.41491 -0.694123 0
M  V30 11849 C 1145 2.30783 -0.0278824 0
M  V30 11850 C 1145.97 1.47028 0.772783 0
M  V30 11851 O 1147.15 1.75819 0.74111 0
M  V30 11852 C 1144.29 3.33061 0.903579 0
M  V30 11853 C 1143.4 4.31896 0.0946823 0
M  V30 11854 C 1142.54 5.21243 1.02365 0
M  V30 11855 C 1141.58 6.11748 0.207578 0
M  V30 11856 N 1140.72 6.93583 1.09028 0
M  V30 11857 H 1145.56 2.87197 -0.795092 0
M  V30 11858 H 1143.09 1.41449 -0.403806 0
M  V30 11859 H 1145.05 3.90907 1.45765 0
M  V30 11860 H 1143.68 2.782 1.6372 0
M  V30 11861 H 1142.73 3.76009 -0.576289 0
M  V30 11862 H 1144.04 4.95889 -0.538059 0
M  V30 11863 H 1143.2 5.83917 1.647 0
M  V30 11864 H 1141.94 4.57473 1.69025 0
M  V30 11865 H 1140.94 5.48125 -0.428854 0
M  V30 11866 H 1142.17 6.77573 -0.455206 0
M  V30 11867 H 1140.11 6.32422 1.74292 0
M  V30 11868 H 1140.03 7.54257 0.513073 0
M  V30 11869 H 1141.3 7.60726 1.70048 0
M  V30 11870 N 1145.53 0.438773 1.51369 0
M  V30 11871 C 1146.78 -0.128723 2.01289 0
M  V30 11872 C 1147.09 -1.43659 1.32745 0
M  V30 11873 O 1148.3 -2.08712 1.73642 0
M  V30 11874 C 1146.75 -0.279945 3.5881 0
M  V30 11875 C 1146.36 1.01758 4.3629 0
M  V30 11876 C 1148.1 -0.801133 4.16872 0
M  V30 11877 C 1146.01 0.831918 5.85519 0
M  V30 11878 H 1144.94 -0.0518814 0.752213 0
M  V30 11879 H 1147.59 0.568753 1.74463 0
M  V30 11880 H 1145.97 -1.04046 3.82087 0
M  V30 11881 H 1147.15 1.78653 4.24758 0
M  V30 11882 H 1145.46 1.46741 3.89687 0
M  V30 11883 H 1148.06 -0.956548 5.26074 0
M  V30 11884 H 1148.4 -1.78396 3.76139 0
M  V30 11885 H 1148.94 -0.0988934 3.97677 0
M  V30 11886 H 1145.67 1.78716 6.30667 0
M  V30 11887 H 1145.19 0.102785 5.99712 0
M  V30 11888 H 1146.87 0.485681 6.45174 0
M  V30 11889 N 1147.01 -1.56678 0.170181 0
M  V30 11890 C 1148.23 -2.0166 -0.484543 0
M  V30 11891 C 1148.66 -1.04962 -1.56091 0
M  V30 11892 O 1148.01 -0.0289887 -1.81277 0
M  V30 11893 C 1148.06 -3.45252 -1.04084 0
M  V30 11894 O 1147.17 -3.51623 -2.15488 0
M  V30 11895 H 1146.51 -0.653765 -0.116135 0
M  V30 11896 H 1149.04 -2.02761 0.273737 0
M  V30 11897 H 1149.05 -3.84534 -1.36373 0
M  V30 11898 H 1147.72 -4.15131 -0.252738 0
M  V30 11899 H 1146.3 -3.242 -1.84252 0
M  V30 11900 N 1148.48 0.103547 -1.57259 0
M  V30 11901 C 1149.41 1.12714 -2.04494 0
M  V30 11902 C 1150.39 1.42278 -0.932255 0
M  V30 11903 O 1151.58 1.52453 -1.20298 0
M  V30 11904 C 1148.71 2.44927 -2.46228 0
M  V30 11905 C 1147.66 2.2979 -3.61082 0
M  V30 11906 C 1146.99 3.67105 -3.88765 0
M  V30 11907 C 1148.29 1.7455 -4.9227 0
M  V30 11908 H 1149.98 0.734198 -2.90258 0
M  V30 11909 H 1147.53 0.351725 -1.39638 0
M  V30 11910 H 1149.48 3.16798 -2.77879 0
M  V30 11911 H 1148.21 2.8614 -1.57453 0
M  V30 11912 H 1146.87 1.60366 -3.29664 0
M  V30 11913 H 1146.51 4.05831 -2.97171 0
M  V30 11914 H 1146.21 3.57825 -4.66084 0
M  V30 11915 H 1147.74 4.40456 -4.22884 0
M  V30 11916 H 1149.15 2.36253 -5.22358 0
M  V30 11917 H 1147.55 1.76051 -5.73695 0
M  V30 11918 H 1148.62 0.704242 -4.79759 0
M  V30 11919 N 1149.96 1.53094 0.37415 0
M  V30 11920 C 1151.24 1.59456 1.13283 0
M  V30 11921 C 1151.62 0.396821 2.07337 0
M  V30 11922 O 1150.97 -0.613659 2.20106 0
M  V30 11923 C 1151.18 2.94069 1.87948 0
M  V30 11924 C 1152.52 3.4834 2.42785 0
M  V30 11925 O 1153.55 2.96042 1.98085 0
M  V30 11926 O 1152.41 4.39747 3.24477 0
M  V30 11927 H 1149.5 0.643731 0.519171 0
M  V30 11928 H 1152.05 1.65434 0.378105 0
M  V30 11929 H 1150.82 3.72685 1.19255 0
M  V30 11930 H 1150.44 2.91544 2.70348 0
M  V30 11931 N 1151.44 -0.633461 1.44309 0
M  V30 11932 C 1152.69 -1.39306 1.46969 0
M  V30 11933 C 1153.01 -1.94235 0.101403 0
M  V30 11934 O 1152.27 -1.73959 -0.896475 0
M  V30 11935 C 1152.57 -2.57783 2.47554 0
M  V30 11936 C 1152.23 -2.21156 3.92939 0
M  V30 11937 C 1150.9 -2.1088 4.32531 0
M  V30 11938 C 1153.25 -1.9218 4.84475 0
M  V30 11939 C 1150.58 -1.69812 5.61588 0
M  V30 11940 C 1152.93 -1.52605 6.13917 0
M  V30 11941 C 1151.59 -1.40868 6.52466 0
M  V30 11942 H 1150.86 -0.509758 0.537799 0
M  V30 11943 H 1153.51 -0.718552 1.77508 0
M  V30 11944 H 1151.81 -3.30456 2.1049 0
M  V30 11945 H 1153.51 -3.16009 2.46859 0
M  V30 11946 H 1150.1 -2.30072 3.61614 0
M  V30 11947 H 1154.29 -1.9903 4.54644 0
M  V30 11948 H 1149.54 -1.59327 5.90275 0
M  V30 11949 H 1153.72 -1.29221 6.84306 0
M  V30 11950 H 1151.34 -1.08818 7.52371 0
M  V30 11951 N 1152.92 -1.31168 -0.873655 0
M  V30 11952 C 1153.87 -1.18432 -2.00191 0
M  V30 11953 C 1154.86 -0.0934873 -1.69142 0
M  V30 11954 O 1156.07 -0.255126 -1.78183 0
M  V30 11955 H 1152.44 -0.366594 -0.656592 0
M  V30 11956 H 1154.41 -2.13896 -2.08065 0
M  V30 11957 C 1153.16 -0.904668 -3.35725 0
M  V30 11958 H 1152.48 -1.73617 -3.60135 0
M  V30 11959 H 1153.92 -0.855715 -4.15275 0
M  V30 11960 C 1152.38 0.392554 -3.34605 0
M  V30 11961 O 1152.91 1.41052 -3.76121 0
M  V30 11962 N 1151.12 0.40777 -2.87725 0
M  V30 11963 H 1150.67 -0.42112 -2.54134 0
M  V30 11964 H 1150.62 1.27564 -2.87358 0
M  V30 11965 N 1154.4 1.08748 -1.14068 0
M  V30 11966 C 1155.34 2.17667 -0.819981 0
M  V30 11967 C 1156.34 1.68207 0.200654 0
M  V30 11968 O 1157.54 1.79909 0.0571014 0
M  V30 11969 H 1153.92 0.710129 -0.247427 0
M  V30 11970 H 1155.89 2.41944 -1.74659 0
M  V30 11971 C 1154.64 3.46315 -0.309985 0
M  V30 11972 H 1153.96 3.84748 -1.08669 0
M  V30 11973 H 1155.4 4.23818 -0.124094 0
M  V30 11974 C 1153.86 3.22762 0.965724 0
M  V30 11975 O 1154.39 3.46034 2.04018 0
M  V30 11976 N 1152.6 2.76326 0.899576 0
M  V30 11977 H 1152.14 2.57588 0.0250598 0
M  V30 11978 H 1152.1 2.60945 1.75371 0
M  V30 11979 N 1155.87 0.935264 1.26849 0
M  V30 11980 C 1156.82 0.438896 2.26588 0
M  V30 11981 C 1157.79 -0.498267 1.5845 0
M  V30 11982 O 1158.98 -0.415771 1.86215 0
M  V30 11983 C 1156.12 -0.295293 3.43834 0
M  V30 11984 C 1155.23 0.676857 4.26665 0
M  V30 11985 C 1154.36 -0.0779349 5.31143 0
M  V30 11986 C 1153.4 0.886425 6.05648 0
M  V30 11987 N 1152.54 0.163771 7.01909 0
M  V30 11988 H 1157.38 1.29439 2.6842 0
M  V30 11989 H 1154.92 0.649523 1.31983 0
M  V30 11990 H 1156.88 -0.737354 4.10632 0
M  V30 11991 H 1155.51 -1.11497 3.02933 0
M  V30 11992 H 1154.56 1.23744 3.5971 0
M  V30 11993 H 1155.87 1.41355 4.78351 0
M  V30 11994 H 1155.02 -0.579557 6.03926 0
M  V30 11995 H 1153.76 -0.84755 4.80279 0
M  V30 11996 H 1152.77 1.39923 5.31697 0
M  V30 11997 H 1153.99 1.65595 6.58601 0
M  V30 11998 H 1151.94 -0.58746 6.53364 0
M  V30 11999 H 1151.86 0.839902 7.5132 0
M  V30 12000 H 1153.12 -0.316951 7.78855 0
M  V30 12001 N 1157.35 -1.41121 0.701616 0
M  V30 12002 C 1158.77 -1.55162 0.373766 0
M  V30 12003 C 1158.97 -1.6759 -1.11875 0
M  V30 12004 O 1158.02 -1.65768 -1.90465 0
M  V30 12005 C 1159.34 -2.78758 1.12759 0
M  V30 12006 C 1160.89 -2.92561 1.11253 0
M  V30 12007 C 1161.36 -4.19052 1.84822 0
M  V30 12008 N 1162.85 -4.26023 1.81821 0
M  V30 12009 C 1163.59 -5.22771 2.3558 0
M  V30 12010 N 1163.08 -6.25512 2.97836 0
M  V30 12011 N 1164.88 -5.14752 2.25802 0
M  V30 12012 H 1157.03 -1.31299 1.66956 0
M  V30 12013 H 1159.29 -0.633894 0.704898 0
M  V30 12014 H 1159 -2.75804 2.18231 0
M  V30 12015 H 1158.87 -3.70456 0.710095 0
M  V30 12016 H 1161.26 -2.95026 0.0660506 0
M  V30 12017 H 1161.34 -2.0202 1.56913 0
M  V30 12018 H 1160.98 -4.17349 2.89452 0
M  V30 12019 H 1160.91 -5.08577 1.36592 0
M  V30 12020 H 1163.4 -3.52411 1.36438 0
M  V30 12021 H 1163.72 -6.95736 3.36409 0
M  V30 12022 H 1162.06 -6.25997 3.01916 0
M  V30 12023 H 1165.25 -4.33414 1.76833 0
M  V30 12024 H 1165.42 -5.89983 2.68001 0
M  V30 12025 N 1158.83 -0.446794 -1.51134 0
M  V30 12026 C 1160.11 0.176892 -1.94798 0
M  V30 12027 C 1160.49 1.59229 -1.38598 0
M  V30 12028 O 1159.84 2.21097 -0.576905 0
M  V30 12029 C 1160.05 0.145 -3.48699 0
M  V30 12030 C 1161.39 0.345917 -4.23189 0
M  V30 12031 O 1162.42 0.222691 -3.55503 0
M  V30 12032 O 1161.28 0.592112 -5.43283 0
M  V30 12033 H 1158.37 0.12486 -0.81752 0
M  V30 12034 H 1160.92 -0.505453 -1.61998 0
M  V30 12035 H 1159.69 -0.844156 -3.82086 0
M  V30 12036 H 1159.31 0.869851 -3.87968 0
M  V30 12037 N 1160.31 1.56586 -0.178487 0
M  V30 12038 C 1161.22 2.21903 0.761321 0
M  V30 12039 C 1162.23 1.21289 1.2476 0
M  V30 12040 O 1163.41 1.53974 1.29823 0
M  V30 12041 C 1160.48 2.85259 1.97048 0
M  V30 12042 C 1159.54 4.01095 1.53039 0
M  V30 12043 C 1158.77 4.61421 2.68191 0
M  V30 12044 O 1158.99 4.20644 3.85247 0
M  V30 12045 O 1157.93 5.51171 2.41855 0
M  V30 12046 H 1161.75 3.02788 0.235141 0
M  V30 12047 H 1159.34 1.49316 0.0500442 0
M  V30 12048 H 1161.22 3.25404 2.6775 0
M  V30 12049 H 1159.89 2.07366 2.48558 0
M  V30 12050 H 1158.8 3.65606 0.792661 0
M  V30 12051 H 1160.13 4.80603 1.06213 0
M  V30 12052 N 1161.79 -0.095206 1.57312 0
M  V30 12053 C 1162.74 -1.12188 1.98489 0
M  V30 12054 C 1163.72 -1.35778 0.863317 0
M  V30 12055 O 1164.91 -1.36471 1.12715 0
M  V30 12056 C 1162.04 -2.44214 2.41277 0
M  V30 12057 C 1161.13 -2.23998 3.60119 0
M  V30 12058 N 1161.52 -1.7365 4.75057 0
M  V30 12059 C 1159.82 -2.54565 3.66214 0
M  V30 12060 C 1160.52 -1.67702 5.57002 0
M  V30 12061 N 1159.49 -2.12912 5.00169 0
M  V30 12062 H 1163.3 -0.725545 2.84804 0
M  V30 12063 H 1160.81 -0.302634 1.59555 0
M  V30 12064 H 1162.81 -3.185 2.69004 0
M  V30 12065 H 1161.47 -2.84585 1.56339 0
M  V30 12066 H 1162.48 -1.42849 4.9781 0
M  V30 12067 H 1159.15 -2.98461 2.91937 0
M  V30 12068 H 1160.54 -1.29827 6.59238 0
M  V30 12069 N 1163.26 -1.53291 -0.366026 0
M  V30 12070 C 1164.68 -1.61144 -0.942849 0
M  V30 12071 C 1165.03 -0.478571 -1.90274 0
M  V30 12072 O 1164.15 0.395069 -2.12763 0
M  V30 12073 C 1164.75 -2.92081 -1.71681 0
M  V30 12074 C 1163.31 -3.0227 -2.24298 0
M  V30 12075 C 1162.45 -2.56436 -1.05526 0
M  V30 12076 H 1165.4 -1.58038 -0.144835 0
M  V30 12077 H 1165.42 -2.79858 -2.57798 0
M  V30 12078 H 1164.94 -3.74513 -1.01793 0
M  V30 12079 H 1163.04 -2.24425 -2.97429 0
M  V30 12080 H 1163.15 -4.07341 -2.5221 0
M  V30 12081 H 1161.51 -2.11301 -1.42211 0
M  V30 12082 H 1162.3 -3.41285 -0.371376 0
M  V30 12083 N 1164.74 0.6258 -1.44643 0
M  V30 12084 C 1165.65 1.76611 -1.5442 0
M  V30 12085 C 1166.67 1.68614 -0.429576 0
M  V30 12086 O 1167.84 1.89296 -0.687686 0
M  V30 12087 C 1164.91 3.13015 -1.49071 0
M  V30 12088 C 1163.97 3.32604 -2.71428 0
M  V30 12089 C 1163.2 4.62501 -2.66325 0
M  V30 12090 O 1163.43 5.43651 -1.72626 0
M  V30 12091 O 1162.36 4.84408 -3.57258 0
M  V30 12092 H 1166.19 1.71315 -2.50769 0
M  V30 12093 H 1163.77 0.787677 -1.26949 0
M  V30 12094 H 1165.65 3.94318 -1.48631 0
M  V30 12095 H 1164.33 3.18842 -0.558686 0
M  V30 12096 H 1163.24 2.50959 -2.77435 0
M  V30 12097 H 1164.57 3.31642 -3.63695 0
M  V30 12098 N 1166.22 1.31629 0.866686 0
M  V30 12099 C 1167.17 1.19556 1.97421 0
M  V30 12100 C 1168.14 0.0805578 1.65905 0
M  V30 12101 O 1169.32 0.253997 1.89102 0
M  V30 12102 C 1166.46 0.912234 3.32825 0
M  V30 12103 C 1165.58 2.11088 3.76916 0
M  V30 12104 C 1164.71 1.76406 5.01053 0
M  V30 12105 C 1163.75 2.9266 5.37602 0
M  V30 12106 N 1162.89 2.58152 6.52918 0
M  V30 12107 H 1167.73 2.14294 2.0708 0
M  V30 12108 H 1165.26 1.06595 1.0137 0
M  V30 12109 H 1167.22 0.72851 4.1079 0
M  V30 12110 H 1165.85 0.00167404 3.228 0
M  V30 12111 H 1164.9 2.40527 2.94705 0
M  V30 12112 H 1166.22 2.98089 3.99931 0
M  V30 12113 H 1165.37 1.54515 5.86694 0
M  V30 12114 H 1164.11 0.866018 4.79949 0
M  V30 12115 H 1163.11 3.15196 4.50479 0
M  V30 12116 H 1164.34 3.83179 5.6067 0
M  V30 12117 H 1162.28 1.70874 6.33355 0
M  V30 12118 H 1162.2 3.38682 6.75892 0
M  V30 12119 H 1163.47 2.39662 7.41743 0
M  V30 12120 N 1167.7 -1.08142 1.14644 0
M  V30 12121 C 1168.94 -1.82183 0.926747 0
M  V30 12122 C 1169.3 -1.8434 -0.53692 0
M  V30 12123 O 1170.5 -2.54172 -0.874651 0
M  V30 12124 C 1168.78 -3.23726 1.51446 0
M  V30 12125 S 1170.33 -4.14612 1.43673 0
M  V30 12126 H 1167.15 -0.627815 0.333721 0
M  V30 12127 H 1169.75 -1.29968 1.46043 0
M  V30 12128 H 1168.46 -3.19741 2.57282 0
M  V30 12129 H 1167.99 -3.81016 0.979289 0
M  V30 12130 H 1170 -4.94384 0.424105 0
M  V30 12131 N 1169.18 -0.941978 -1.26351 0
M  V30 12132 C 1170.59 -0.644413 -1.46012 0
M  V30 12133 C 1170.79 0.802031 -1.84851 0
M  V30 12134 O 1169.85 1.57859 -1.9707 0
M  V30 12135 C 1171.16 -1.60652 -2.54188 0
M  V30 12136 C 1172.71 -1.6163 -2.68038 0
M  V30 12137 C 1173.19 -2.56573 -3.79387 0
M  V30 12138 N 1174.68 -2.54863 -3.8678 0
M  V30 12139 C 1175.41 -3.2501 -4.72394 0
M  V30 12140 N 1174.91 -4.04586 -5.6239 0
M  V30 12141 N 1176.7 -3.13958 -4.66247 0
M  V30 12142 H 1168.85 -1.8769 -0.994293 0
M  V30 12143 H 1171.11 -0.806621 -0.498063 0
M  V30 12144 H 1170.82 -2.63907 -2.32478 0
M  V30 12145 H 1170.69 -1.3592 -3.5186 0
M  V30 12146 H 1173.08 -0.59099 -2.89122 0
M  V30 12147 H 1173.16 -1.90417 -1.70807 0
M  V30 12148 H 1172.81 -3.59223 -3.59056 0
M  V30 12149 H 1172.74 -2.25077 -4.76076 0
M  V30 12150 H 1175.23 -1.97082 -3.22439 0
M  V30 12151 H 1175.54 -4.55061 -6.24612 0
M  V30 12152 H 1173.89 -4.08687 -5.62139 0
M  V30 12153 H 1177.08 -2.51273 -3.94943 0
M  V30 12154 H 1177.25 -3.68894 -5.32749 0
M  V30 12155 N 1170.66 1.40747 -0.709091 0
M  V30 12156 C 1171.88 2.05841 -0.253816 0
M  V30 12157 C 1172.31 1.53056 1.09341 0
M  V30 12158 O 1171.66 0.663181 1.68735 0
M  V30 12159 C 1171.71 3.59822 -0.236699 0
M  V30 12160 O 1170.82 4.04876 0.784168 0
M  V30 12161 H 1170.16 0.65295 -0.120631 0
M  V30 12162 H 1172.69 1.80266 -0.967749 0
M  V30 12163 H 1172.7 4.07936 -0.0721616 0
M  V30 12164 H 1171.37 3.97608 -1.21988 0
M  V30 12165 H 1169.95 3.68237 0.587884 0
M  V30 12166 N 1172.13 0.454803 1.50895 0
M  V30 12167 C 1173.55 0.108037 1.59234 0
M  V30 12168 C 1173.75 -1.38416 1.46435 0
M  V30 12169 O 1172.81 -2.15586 1.31449 0
M  V30 12170 C 1174.12 0.643721 2.93729 0
M  V30 12171 C 1175.67 0.605703 3.07083 0
M  V30 12172 C 1176.14 1.11865 4.44128 0
M  V30 12173 N 1177.63 1.07738 4.50496 0
M  V30 12174 C 1178.37 1.44495 5.54895 0
M  V30 12175 N 1177.86 1.88624 6.66628 0
M  V30 12176 N 1179.66 1.36201 5.45349 0
M  V30 12177 H 1171.81 1.4255 1.57459 0
M  V30 12178 H 1174.07 0.588504 0.743214 0
M  V30 12179 H 1173.78 1.68844 3.0852 0
M  V30 12180 H 1173.65 0.0782404 3.77119 0
M  V30 12181 H 1176.04 -0.430065 2.91949 0
M  V30 12182 H 1176.12 1.2078 2.2549 0
M  V30 12183 H 1175.76 2.15297 4.6001 0
M  V30 12184 H 1175.69 0.492933 5.24288 0
M  V30 12185 H 1178.18 0.753526 3.70311 0
M  V30 12186 H 1178.5 2.14863 7.4233 0
M  V30 12187 H 1176.84 1.92564 6.6779 0
M  V30 12188 H 1180.03 1.01579 4.56946 0
M  V30 12189 H 1180.21 1.65175 6.26595 0
M  V30 12190 N 1173.61 -1.56489 0.186789 0
M  V30 12191 C 1174.84 -2.01722 -0.459993 0
M  V30 12192 C 1175.25 -1.06697 -1.5576 0
M  V30 12193 O 1174.61 -0.0704212 -1.82364 0
M  V30 12194 C 1174.66 -3.46693 -1.02401 0
M  V30 12195 O 1174.38 -4.3809 0.0297916 0
M  V30 12196 C 1175.88 -4.07403 -1.7475 0
M  V30 12197 H 1173.1 -0.660845 -0.116298 0
M  V30 12198 H 1175.65 -2.02389 0.293059 0
M  V30 12199 H 1173.8 -3.46752 -1.72749 0
M  V30 12200 H 1174.22 -5.23057 -0.388821 0
M  V30 12201 H 1175.69 -5.10718 -2.09455 0
M  V30 12202 H 1176.17 -3.50383 -2.64818 0
M  V30 12203 H 1176.77 -4.11093 -1.09007 0
M  V30 12204 N 1175.09 0.086862 -1.5736 0
M  V30 12205 C 1176.04 1.10478 -2.02641 0
M  V30 12206 C 1177.01 1.39331 -0.904219 0
M  V30 12207 O 1178.19 1.50654 -1.17081 0
M  V30 12208 C 1175.33 2.41754 -2.4627 0
M  V30 12209 C 1174.44 2.19561 -3.72044 0
M  V30 12210 C 1173.58 3.44294 -4.04519 0
M  V30 12211 C 1172.62 3.17399 -5.23378 0
M  V30 12212 N 1171.76 4.3442 -5.51564 0
M  V30 12213 H 1176.6 0.711663 -2.89378 0
M  V30 12214 H 1174.13 0.339856 -1.4312 0
M  V30 12215 H 1176.09 3.18378 -2.69613 0
M  V30 12216 H 1174.72 2.78896 -1.62532 0
M  V30 12217 H 1173.77 1.337 -3.5613 0
M  V30 12218 H 1175.08 1.95685 -4.58812 0
M  V30 12219 H 1174.24 4.29321 -4.28682 0
M  V30 12220 H 1172.98 3.71232 -3.16289 0
M  V30 12221 H 1171.98 2.30765 -4.99026 0
M  V30 12222 H 1173.21 2.91799 -6.13213 0
M  V30 12223 H 1171.15 4.61418 -4.66293 0
M  V30 12224 H 1171.07 4.13764 -6.3272 0
M  V30 12225 H 1172.34 5.20489 -5.80269 0
M  V30 12226 N 1176.57 1.53483 0.357892 0
M  V30 12227 C 1177.52 1.81143 1.45911 0
M  V30 12228 C 1178.51 0.681002 1.55109 0
M  V30 12229 O 1179.72 0.864086 1.57904 0
M  V30 12230 H 1176.09 0.573663 0.486225 0
M  V30 12231 H 1178.06 2.733 1.19789 0
M  V30 12232 C 1176.81 2.02509 2.8264 0
M  V30 12233 H 1176.13 2.88938 2.76324 0
M  V30 12234 H 1177.57 2.25837 3.58851 0
M  V30 12235 C 1176.03 0.806412 3.27106 0
M  V30 12236 O 1176.56 -0.00116809 4.017 0
M  V30 12237 N 1174.77 0.627677 2.8374 0
M  V30 12238 H 1174.32 1.28601 2.23203 0
M  V30 12239 H 1174.27 -0.186301 3.13848 0
M  V30 12240 N 1178.05 -0.61812 1.44973 0
M  V30 12241 C 1178.98 -1.74277 1.47318 0
M  V30 12242 C 1179.96 -1.59203 0.330627 0
M  V30 12243 O 1181.14 -1.80909 0.529558 0
M  V30 12244 C 1178.27 -3.11994 1.31823 0
M  V30 12245 C 1177.31 -3.45685 2.49809 0
M  V30 12246 S 1178.15 -3.41704 4.12309 0
M  V30 12247 C 1179.3 -4.82019 3.9926 0
M  V30 12248 H 1179.54 -1.72023 2.42478 0
M  V30 12249 H 1177.07 -0.793867 1.32428 0
M  V30 12250 H 1179.03 -3.9146 1.2357 0
M  V30 12251 H 1177.69 -3.11774 0.381521 0
M  V30 12252 H 1176.88 -4.45931 2.34864 0
M  V30 12253 H 1176.48 -2.73711 2.54869 0
M  V30 12254 H 1178.77 -5.71567 3.63754 0
M  V30 12255 H 1179.72 -5.02019 4.99382 0
M  V30 12256 H 1180.13 -4.57205 3.31095 0
M  V30 12257 N 1179.52 -1.32087 -0.859693 0
M  V30 12258 C 1180.46 -1.14934 -1.97143 0
M  V30 12259 C 1181.43 -0.0501084 -1.62523 0
M  V30 12260 O 1182.62 -0.208472 -1.87344 0
M  V30 12261 C 1179.75 -0.758374 -3.30101 0
M  V30 12262 C 1178.79 -1.86212 -3.83702 0
M  V30 12263 S 1179.62 -3.46949 -4.07905 0
M  V30 12264 C 1180.78 -3.09813 -5.43844 0
M  V30 12265 H 1181.01 -2.09047 -2.11392 0
M  V30 12266 H 1178.55 -1.1669 -1.01108 0
M  V30 12267 H 1180.5 -0.539563 -4.06939 0
M  V30 12268 H 1179.17 0.163817 -3.13673 0
M  V30 12269 H 1178.36 -1.54144 -4.7985 0
M  V30 12270 H 1177.96 -2.03652 -3.13691 0
M  V30 12271 H 1180.25 -2.59345 -6.25897 0
M  V30 12272 H 1181.2 -4.04963 -5.8087 0
M  V30 12273 H 1181.6 -2.46971 -5.07607 0
M  V30 12274 N 1181 1.07532 -1.15215 0
M  V30 12275 C 1182.25 1.8052 -0.937234 0
M  V30 12276 C 1182.6 1.84954 0.530084 0
M  V30 12277 O 1181.9 1.32091 1.3879 0
M  V30 12278 C 1182.09 3.2518 -1.483 0
M  V30 12279 C 1181.92 3.34841 -3.00185 0
M  V30 12280 C 1180.69 3.45509 -3.68716 0
M  V30 12281 C 1182.89 3.25749 -3.97985 0
M  V30 12282 N 1180.87 3.44055 -5.08429 0
M  V30 12283 C 1182.24 3.31391 -5.24004 0
M  V30 12284 C 1184.29 3.09547 -3.89981 0
M  V30 12285 C 1183 3.22498 -6.42952 0
M  V30 12286 C 1185.02 3.01987 -5.08486 0
M  V30 12287 C 1184.39 3.08239 -6.33378 0
M  V30 12288 H 1180.48 0.673971 -0.396594 0
M  V30 12289 H 1183.07 1.2837 -1.46387 0
M  V30 12290 H 1181.24 3.75754 -0.983021 0
M  V30 12291 H 1182.97 3.86279 -1.20709 0
M  V30 12292 H 1179.73 3.49778 -3.193 0
M  V30 12293 H 1180.15 3.4686 -5.81392 0
M  V30 12294 H 1184.79 3.03568 -2.94289 0
M  V30 12295 H 1182.51 3.27236 -7.38879 0
M  V30 12296 H 1186.1 2.90557 -5.04051 0
M  V30 12297 H 1184.98 3.02431 -7.23537 0
M  V30 12298 N 1182.48 0.948665 1.2585 0
M  V30 12299 C 1183.71 0.616334 1.97193 0
M  V30 12300 C 1184.12 -0.814538 1.70769 0
M  V30 12301 O 1183.46 -1.55569 0.976926 0
M  V30 12302 C 1183.52 0.787814 3.50762 0
M  V30 12303 C 1183.19 2.19472 4.0085 0
M  V30 12304 C 1184.18 3.17087 4.12009 0
M  V30 12305 C 1181.87 2.51731 4.34669 0
M  V30 12306 C 1183.86 4.45058 4.56292 0
M  V30 12307 C 1181.55 3.79932 4.78639 0
M  V30 12308 C 1182.55 4.76408 4.89412 0
M  V30 12309 O 1182.24 6.02325 5.32409 0
M  V30 12310 H 1181.97 0.230487 0.635493 0
M  V30 12311 H 1184.52 1.27379 1.61133 0
M  V30 12312 H 1182.75 0.0732154 3.86631 0
M  V30 12313 H 1184.44 0.457427 4.03314 0
M  V30 12314 H 1185.21 2.9349 3.8612 0
M  V30 12315 H 1181.09 1.77369 4.25513 0
M  V30 12316 H 1184.63 5.20363 4.64616 0
M  V30 12317 H 1180.53 4.03338 5.03973 0
M  V30 12318 H 1181.3 6.05615 5.50611 0
M  V30 12319 N 1183.96 -1.40369 0.716545 0
M  V30 12320 C 1185.21 -2.00473 0.255959 0
M  V30 12321 C 1185.53 -1.57104 -1.15514 0
M  V30 12322 O 1184.8 -0.810925 -1.78328 0
M  V30 12323 H 1183.38 -0.741357 0.0916427 0
M  V30 12324 H 1186.04 -1.71692 0.922389 0
M  V30 12325 H 1185.14 -3.10752 0.289806 0
M  V30 12326 N 1185.44 -0.462799 -1.50652 0
M  V30 12327 C 1186.68 0.0951853 -2.02576 0
M  V30 12328 C 1187.02 1.40113 -1.34469 0
M  V30 12329 O 1186.29 1.88793 -0.467702 0
M  V30 12330 C 1186.57 0.287603 -3.5895 0
M  V30 12331 C 1186.43 -1.03878 -4.37641 0
M  V30 12332 C 1187.75 1.04593 -4.27491 0
M  V30 12333 H 1184.86 0.0331191 -0.736255 0
M  V30 12334 H 1187.51 -0.606772 -1.80051 0
M  V30 12335 H 1185.66 0.885514 -3.78274 0
M  V30 12336 H 1187.33 -1.67263 -4.29908 0
M  V30 12337 H 1185.57 -1.6374 -4.01711 0
M  V30 12338 H 1186.24 -0.857889 -5.45293 0
M  V30 12339 H 1188.72 0.539213 -4.12591 0
M  V30 12340 H 1187.59 1.14935 -5.36732 0
M  V30 12341 H 1187.86 2.08045 -3.90089 0
M  V30 12342 N 1186.91 1.56388 -0.195085 0
M  V30 12343 C 1187.84 2.22091 0.720971 0
M  V30 12344 C 1188.83 1.184 1.22128 0
M  V30 12345 O 1190.01 1.46907 1.27012 0
M  V30 12346 C 1187.14 2.88025 1.94059 0
M  V30 12347 C 1186.09 3.97959 1.5752 0
M  V30 12348 C 1185.42 4.51058 2.87143 0
M  V30 12349 C 1186.72 5.16365 0.785145 0
M  V30 12350 H 1188.41 2.98898 0.173245 0
M  V30 12351 H 1185.96 1.43767 0.0818868 0
M  V30 12352 H 1187.91 3.32671 2.58666 0
M  V30 12353 H 1186.64 2.08623 2.51285 0
M  V30 12354 H 1185.3 3.54004 0.952715 0
M  V30 12355 H 1184.94 3.68418 3.42458 0
M  V30 12356 H 1184.64 5.25237 2.63439 0
M  V30 12357 H 1186.17 4.98406 3.52738 0
M  V30 12358 H 1187.58 5.57556 1.33431 0
M  V30 12359 H 1185.98 5.9661 0.646231 0
M  V30 12360 H 1187.05 4.84428 -0.213789 0
M  V30 12361 N 1188.39 -0.0785156 1.57404 0
M  V30 12362 C 1189.64 -0.777399 1.8655 0
M  V30 12363 C 1189.96 -1.78451 0.786142 0
M  V30 12364 O 1189.23 -1.95016 -0.185911 0
M  V30 12365 H 1187.81 -0.290097 0.688369 0
M  V30 12366 H 1190.47 -0.0562017 1.94819 0
M  V30 12367 H 1189.57 -1.29776 2.83839 0
M  V30 12368 N 1189.87 -1.5367 -0.349747 0
M  V30 12369 C 1191.1 -1.74547 -1.11089 0
M  V30 12370 C 1191.51 -0.481741 -1.82551 0
M  V30 12371 O 1190.87 0.546272 -1.74132 0
M  V30 12372 C 1190.92 -2.92148 -2.12913 0
M  V30 12373 O 1190.64 -4.13633 -1.44358 0
M  V30 12374 C 1192.14 -3.25027 -3.01451 0
M  V30 12375 H 1189.36 -0.583376 -0.331532 0
M  V30 12376 H 1191.91 -2.00473 -0.403841 0
M  V30 12377 H 1190.06 -2.68572 -2.79192 0
M  V30 12378 H 1190.48 -4.79601 -2.12329 0
M  V30 12379 H 1191.95 -4.10679 -3.68845 0
M  V30 12380 H 1192.43 -2.41064 -3.67131 0
M  V30 12381 H 1193.03 -3.50586 -2.40768 0
M  V30 12382 N 1191.35 0.610423 -1.45298 0
M  V30 12383 C 1192.3 1.7213 -1.53753 0
M  V30 12384 C 1193.27 1.61609 -0.383632 0
M  V30 12385 O 1194.45 1.8123 -0.596694 0
M  V30 12386 C 1191.59 3.10433 -1.50749 0
M  V30 12387 C 1190.7 3.3178 -2.76669 0
M  V30 12388 C 1189.84 4.60173 -2.65356 0
M  V30 12389 C 1188.88 4.74769 -3.86343 0
M  V30 12390 N 1188.01 5.94459 -3.73581 0
M  V30 12391 H 1192.85 1.64239 -2.48655 0
M  V30 12392 H 1190.39 0.800879 -1.23387 0
M  V30 12393 H 1192.35 3.90446 -1.46996 0
M  V30 12394 H 1190.98 3.17288 -0.593998 0
M  V30 12395 H 1190.03 2.45563 -2.90522 0
M  V30 12396 H 1191.34 3.38439 -3.66416 0
M  V30 12397 H 1190.5 5.48377 -2.59553 0
M  V30 12398 H 1189.24 4.55907 -1.73204 0
M  V30 12399 H 1188.24 3.8499 -3.92509 0
M  V30 12400 H 1189.47 4.80834 -4.79557 0
M  V30 12401 H 1187.41 5.91243 -2.84196 0
M  V30 12402 H 1187.33 6.02265 -4.5696 0
M  V30 12403 H 1188.6 6.85168 -3.71705 0
M  V30 12404 N 1192.83 1.32541 0.852676 0
M  V30 12405 C 1193.74 1.23646 1.99371 0
M  V30 12406 C 1194.75 0.149673 1.73355 0
M  V30 12407 O 1195.93 0.370716 1.97959 0
M  V30 12408 C 1192.99 0.961873 3.3309 0
M  V30 12409 C 1192.05 2.1373 3.72315 0
M  V30 12410 C 1191.29 1.87572 4.99652 0
M  V30 12411 O 1191.51 0.819247 5.64486 0
M  V30 12412 O 1190.44 2.73732 5.36054 0
M  V30 12413 H 1194.27 2.19573 2.09813 0
M  V30 12414 H 1191.86 1.12451 0.983627 0
M  V30 12415 H 1193.74 0.825316 4.13239 0
M  V30 12416 H 1192.41 0.0327745 3.23683 0
M  V30 12417 H 1191.32 2.32933 2.92733 0
M  V30 12418 H 1192.65 3.04925 3.86369 0
M  V30 12419 N 1194.3 -1.0692 1.15784 0
M  V30 12420 C 1195.23 -2.16216 0.881649 0
M  V30 12421 C 1196.22 -1.69253 -0.16951 0
M  V30 12422 O 1197.4 -1.94186 -0.0229511 0
M  V30 12423 C 1194.53 -3.4527 0.374982 0
M  V30 12424 C 1193.48 -4.05706 1.36332 0
M  V30 12425 C 1192.81 -5.29894 0.715317 0
M  V30 12426 C 1194.11 -4.45224 2.7308 0
M  V30 12427 H 1195.8 -2.39577 1.79563 0
M  V30 12428 H 1193.35 -1.15141 0.864784 0
M  V30 12429 H 1195.3 -4.2106 0.169279 0
M  V30 12430 H 1194.03 -3.21508 -0.574485 0
M  V30 12431 H 1192.69 -3.31965 1.55546 0
M  V30 12432 H 1192.33 -5.02425 -0.240436 0
M  V30 12433 H 1192.03 -5.71287 1.37494 0
M  V30 12434 H 1193.56 -6.08386 0.519489 0
M  V30 12435 H 1194.97 -5.12124 2.57686 0
M  V30 12436 H 1193.37 -4.97583 3.35457 0
M  V30 12437 H 1194.44 -3.56384 3.28813 0
M  V30 12438 N 1195.78 -0.955326 -1.25345 0
M  V30 12439 C 1196.71 -0.494145 -2.28211 0
M  V30 12440 C 1197.69 0.459875 -1.63766 0
M  V30 12441 O 1198.88 0.358679 -1.90859 0
M  V30 12442 C 1196.01 0.228228 -3.46549 0
M  V30 12443 C 1194.96 -0.640601 -4.23179 0
M  V30 12444 C 1194.29 0.212553 -5.34277 0
M  V30 12445 C 1195.59 -1.91906 -4.85767 0
M  V30 12446 H 1197.28 -1.35391 -2.67039 0
M  V30 12447 H 1194.83 -0.652462 -1.2837 0
M  V30 12448 H 1196.78 0.561995 -4.17636 0
M  V30 12449 H 1195.51 1.12224 -3.06714 0
M  V30 12450 H 1194.16 -0.957462 -3.53876 0
M  V30 12451 H 1193.81 1.10634 -4.90682 0
M  V30 12452 H 1193.51 -0.365473 -5.86462 0
M  V30 12453 H 1195.04 0.541271 -6.08196 0
M  V30 12454 H 1196.45 -1.65165 -5.48993 0
M  V30 12455 H 1194.85 -2.44279 -5.48131 0
M  V30 12456 H 1195.92 -2.62173 -4.07914 0
M  V30 12457 N 1197.26 1.39987 -0.723979 0
M  V30 12458 C 1198.21 2.27938 -0.0531058 0
M  V30 12459 C 1199.2 1.43693 0.723965 0
M  V30 12460 O 1200.39 1.66707 0.594785 0
M  V30 12461 C 1197.52 3.32311 0.861659 0
M  V30 12462 C 1196.6 4.24026 0.079327 0
M  V30 12463 N 1196.99 4.96954 -0.941805 0
M  V30 12464 C 1195.29 4.44917 0.310637 0
M  V30 12465 C 1195.99 5.64287 -1.41261 0
M  V30 12466 N 1194.97 5.38632 -0.733217 0
M  V30 12467 H 1198.77 2.81771 -0.835608 0
M  V30 12468 H 1196.28 1.52538 -0.557315 0
M  V30 12469 H 1198.28 3.94174 1.35766 0
M  V30 12470 H 1196.94 2.80038 1.64344 0
M  V30 12471 H 1197.95 5.0072 -1.32288 0
M  V30 12472 H 1194.63 4.03606 1.06809 0
M  V30 12473 H 1196.02 6.32695 -2.26155 0
M  V30 12474 N 1198.74 0.470782 1.50404 0
M  V30 12475 C 1200.16 0.124919 1.5911 0
M  V30 12476 C 1200.36 -1.36855 1.47895 0
M  V30 12477 O 1199.41 -2.1418 1.33728 0
M  V30 12478 C 1200.72 0.674839 2.9303 0
M  V30 12479 C 1202.27 0.638239 3.06424 0
M  V30 12480 C 1202.75 1.1657 4.42917 0
M  V30 12481 N 1204.24 1.1251 4.49328 0
M  V30 12482 C 1204.97 1.50373 5.53331 0
M  V30 12483 N 1204.47 1.95684 6.6459 0
M  V30 12484 N 1206.26 1.41978 5.43874 0
M  V30 12485 H 1198.41 1.44212 1.55938 0
M  V30 12486 H 1200.68 0.596354 0.73693 0
M  V30 12487 H 1200.38 1.72106 3.06712 0
M  V30 12488 H 1200.26 0.118234 3.77015 0
M  V30 12489 H 1202.64 -0.399075 2.92389 0
M  V30 12490 H 1202.72 1.23164 2.24197 0
M  V30 12491 H 1202.37 2.20164 4.57701 0
M  V30 12492 H 1202.3 0.548513 5.23736 0
M  V30 12493 H 1204.79 0.79276 3.69491 0
M  V30 12494 H 1205.1 2.22724 7.40009 0
M  V30 12495 H 1203.45 1.99636 6.65711 0
M  V30 12496 H 1206.64 1.0642 4.55842 0
M  V30 12497 H 1206.81 1.71812 6.24808 0
M  V30 12498 N 1200.22 -1.56282 0.203376 0
M  V30 12499 C 1201.45 -2.02198 -0.438572 0
M  V30 12500 C 1201.86 -1.08343 -1.54619 0
M  V30 12501 O 1201.22 -0.0897594 -1.82279 0
M  V30 12502 C 1201.27 -3.4776 -0.987184 0
M  V30 12503 O 1200.99 -4.38034 0.0762552 0
M  V30 12504 C 1202.49 -4.09234 -1.70419 0
M  V30 12505 H 1199.71 -0.662041 -0.109282 0
M  V30 12506 H 1202.25 -2.02067 0.314509 0
M  V30 12507 H 1200.41 -3.48564 -1.69061 0
M  V30 12508 H 1200.82 -5.2344 -0.333322 0
M  V30 12509 H 1202.3 -5.1291 -2.04027 0
M  V30 12510 H 1202.77 -3.53172 -2.61087 0
M  V30 12511 H 1203.38 -4.12226 -1.04641 0
M  V30 12512 N 1201.7 0.070167 -1.57444 0
M  V30 12513 C 1202.93 0.78076 -1.91279 0
M  V30 12514 C 1203.33 1.71559 -0.797754 0
M  V30 12515 O 1202.68 1.82156 0.237665 0
M  V30 12516 C 1202.74 1.62664 -3.20594 0
M  V30 12517 C 1202.4 0.861007 -4.48816 0
M  V30 12518 C 1203.4 0.179522 -5.1959 0
M  V30 12519 C 1201.08 0.8277 -4.95434 0
M  V30 12520 C 1203.08 -0.525024 -6.35234 0
M  V30 12521 C 1200.77 0.119382 -6.10983 0
M  V30 12522 C 1201.76 -0.555778 -6.80735 0
M  V30 12523 O 1201.45 -1.25268 -7.9408 0
M  V30 12524 H 1201.18 0.227053 -0.636728 0
M  V30 12525 H 1203.74 0.0442334 -2.05352 0
M  V30 12526 H 1201.97 2.40601 -3.02734 0
M  V30 12527 H 1203.66 2.21606 -3.40067 0
M  V30 12528 H 1204.42 0.19655 -4.84602 0
M  V30 12529 H 1200.3 1.34268 -4.41014 0
M  V30 12530 H 1203.85 -1.05257 -6.89613 0
M  V30 12531 H 1199.74 0.100287 -6.45422 0
M  V30 12532 H 1200.51 -1.16212 -8.10208 0
M  V30 12533 N 1203.17 1.53854 0.341593 0
M  V30 12534 C 1204.12 1.81979 1.41959 0
M  V30 12535 C 1205.09 0.665616 1.5218 0
M  V30 12536 O 1206.28 0.910246 1.67688 0
M  V30 12537 C 1203.42 2.03681 2.78583 0
M  V30 12538 C 1202.53 3.31389 2.77137 0
M  V30 12539 C 1201.66 3.43148 4.05491 0
M  V30 12540 C 1200.7 4.64799 3.98282 0
M  V30 12541 N 1199.84 4.73581 5.18329 0
M  V30 12542 H 1204.68 2.73953 1.17275 0
M  V30 12543 H 1202.22 1.35689 0.568062 0
M  V30 12544 H 1204.17 2.14253 3.57983 0
M  V30 12545 H 1202.8 1.15017 3.01614 0
M  V30 12546 H 1201.86 3.29649 1.89832 0
M  V30 12547 H 1203.17 4.20885 2.67689 0
M  V30 12548 H 1202.32 3.53163 4.93316 0
M  V30 12549 H 1201.06 2.51712 4.17723 0
M  V30 12550 H 1200.07 4.54859 3.08842 0
M  V30 12551 H 1201.29 5.57601 3.87631 0
M  V30 12552 H 1199.24 3.85055 5.31102 0
M  V30 12553 H 1199.15 5.57016 5.11145 0
M  V30 12554 H 1200.42 4.87908 6.0792 0
M  V30 12555 N 1204.65 -0.602709 1.4562 0
M  V30 12556 C 1205.6 -1.73425 1.55005 0
M  V30 12557 C 1206.59 -1.64118 0.419713 0
M  V30 12558 O 1207.8 -1.69853 0.595815 0
M  V30 12559 H 1204.17 -0.573038 0.486962 0
M  V30 12560 H 1206.15 -1.62637 2.50184 0
M  V30 12561 C 1204.89 -3.11808 1.53853 0
M  V30 12562 H 1204.22 -3.19631 2.40158 0
M  V30 12563 H 1205.66 -3.90798 1.64477 0
M  V30 12564 C 1204.12 -3.35866 0.263765 0
M  V30 12565 O 1204.65 -3.96334 -0.654364 0
M  V30 12566 N 1202.85 -2.90171 0.157927 0
M  V30 12567 H 1202.4 -2.41144 0.905944 0
M  V30 12568 H 1202.36 -3.06641 -0.694175 0
M  V30 12569 N 1206.13 -1.32992 -0.845635 0
M  V30 12570 C 1207.06 -1.25301 -1.97033 0
M  V30 12571 C 1208.04 -0.134966 -1.69564 0
M  V30 12572 O 1209.23 -0.323629 -1.91484 0
M  V30 12573 C 1206.36 -0.984551 -3.33052 0
M  V30 12574 C 1205.31 -2.06481 -3.749 0
M  V30 12575 C 1204.64 -1.6486 -5.08651 0
M  V30 12576 C 1205.94 -3.48083 -3.89404 0
M  V30 12577 H 1207.63 -2.194 -2.03725 0
M  V30 12578 H 1205.18 -1.05621 -0.978783 0
M  V30 12579 H 1207.13 -0.917269 -4.11296 0
M  V30 12580 H 1205.85 -0.00793116 -3.26599 0
M  V30 12581 H 1204.51 -2.1224 -2.98915 0
M  V30 12582 H 1204.16 -0.659183 -4.98662 0
M  V30 12583 H 1203.86 -2.37145 -5.37621 0
M  V30 12584 H 1205.38 -1.59585 -5.89377 0
M  V30 12585 H 1206.8 -3.44863 -4.57976 0
M  V30 12586 H 1205.19 -4.18796 -4.29802 0
M  V30 12587 H 1206.26 -3.87084 -2.92051 0
M  V30 12588 N 1207.61 1.06304 -1.1635 0
M  V30 12589 C 1208.52 2.17296 -0.884289 0
M  V30 12590 C 1209.53 1.73408 0.143414 0
M  V30 12591 O 1210.71 2.01373 -0.0331987 0
M  V30 12592 C 1207.77 3.44509 -0.389163 0
M  V30 12593 C 1206.84 4.02906 -1.48208 0
M  V30 12594 C 1206.07 5.24047 -1.01048 0
M  V30 12595 O 1206.29 5.70229 0.139821 0
M  V30 12596 O 1205.23 5.74394 -1.79876 0
M  V30 12597 H 1209.05 2.4369 -1.81243 0
M  V30 12598 H 1206.64 1.15841 -0.943459 0
M  V30 12599 H 1208.52 4.21229 -0.120018 0
M  V30 12600 H 1207.19 3.19642 0.510968 0
M  V30 12601 H 1206.1 3.27677 -1.80496 0
M  V30 12602 H 1207.43 4.32068 -2.35751 0
M  V30 12603 N 1209.09 0.96196 1.24836 0
M  V30 12604 C 1210.02 0.445329 2.24832 0
M  V30 12605 C 1211.03 -0.442797 1.56663 0
M  V30 12606 O 1212.22 -0.249896 1.76742 0
M  V30 12607 C 1209.32 -0.376953 3.36797 0
M  V30 12608 C 1208.49 0.499908 4.34534 0
M  V30 12609 C 1207.55 -0.265402 5.2553 0
M  V30 12610 O 1206.58 0.338707 5.68191 0
M  V30 12611 N 1207.78 -1.55654 5.59243 0
M  V30 12612 H 1210.54 1.30505 2.69793 0
M  V30 12613 H 1208.11 0.833137 1.38818 0
M  V30 12614 H 1210.1 -0.896831 3.94638 0
M  V30 12615 H 1208.67 -1.13757 2.91167 0
M  V30 12616 H 1207.89 1.20082 3.75465 0
M  V30 12617 H 1209.18 1.09814 4.96808 0
M  V30 12618 H 1208.57 -2.06916 5.265 0
M  V30 12619 H 1207.13 -2.02223 6.19636 0
M  V30 12620 N 1210.56 -1.39601 0.731392 0
M  V30 12621 C 1211.51 -2.30628 0.0890606 0
M  V30 12622 C 1212.48 -1.49025 -0.73353 0
M  V30 12623 O 1213.67 -1.77722 -0.694234 0
M  V30 12624 C 1210.81 -3.35339 -0.814956 0
M  V30 12625 C 1209.92 -4.31995 0.0198606 0
M  V30 12626 C 1209.05 -5.23774 -0.885095 0
M  V30 12627 C 1208.09 -6.12083 -0.045311 0
M  V30 12628 N 1207.23 -6.9623 -0.906002 0
M  V30 12629 H 1212.07 -2.84988 0.870958 0
M  V30 12630 H 1209.61 -1.40329 0.441166 0
M  V30 12631 H 1211.56 -3.94634 -1.3535 0
M  V30 12632 H 1210.19 -2.82443 -1.56287 0
M  V30 12633 H 1209.25 -3.74349 0.675778 0
M  V30 12634 H 1210.56 -4.94289 0.669346 0
M  V30 12635 H 1209.71 -5.88078 -1.49161 0
M  V30 12636 H 1208.45 -4.61794 -1.56837 0
M  V30 12637 H 1207.46 -5.46795 0.574028 0
M  V30 12638 H 1208.68 -6.76128 0.634692 0
M  V30 12639 H 1206.63 -6.36821 -1.57463 0
M  V30 12640 H 1206.54 -7.55352 -0.312914 0
M  V30 12641 H 1207.81 -7.64967 -1.49819 0
M  V30 12642 N 1212.04 -0.478751 -1.50152 0
M  V30 12643 C 1213.29 0.073694 -2.02666 0
M  V30 12644 C 1213.62 1.38679 -1.35947 0
M  V30 12645 O 1212.9 1.88286 -0.4877 0
M  V30 12646 C 1213.18 0.249516 -3.59235 0
M  V30 12647 C 1213.03 -1.08514 -4.36514 0
M  V30 12648 C 1214.35 1.00053 -4.28576 0
M  V30 12649 H 1211.47 0.0253082 -0.736565 0
M  V30 12650 H 1214.11 -0.625834 -1.79397 0
M  V30 12651 H 1212.26 0.845343 -3.79192 0
M  V30 12652 H 1213.93 -1.71814 -4.28109 0
M  V30 12653 H 1212.18 -1.67992 -3.99952 0
M  V30 12654 H 1212.85 -0.915676 -5.44352 0
M  V30 12655 H 1215.32 0.495422 -4.1314 0
M  V30 12656 H 1214.2 1.09236 -5.37921 0
M  V30 12657 H 1214.46 2.03896 -3.92274 0
M  V30 12658 N 1213.52 1.56172 -0.211661 0
M  V30 12659 C 1214.45 2.22843 0.697375 0
M  V30 12660 C 1215.43 1.19689 1.20866 0
M  V30 12661 O 1216.62 1.48245 1.25447 0
M  V30 12662 C 1213.75 2.90067 1.90993 0
M  V30 12663 C 1212.7 3.99608 1.5329 0
M  V30 12664 C 1212.03 4.54078 2.82343 0
M  V30 12665 C 1213.33 5.17169 0.730333 0
M  V30 12666 H 1215.02 2.99065 0.141533 0
M  V30 12667 H 1212.57 1.43846 0.0666337 0
M  V30 12668 H 1214.52 3.35396 2.55123 0
M  V30 12669 H 1213.24 2.11276 2.49058 0
M  V30 12670 H 1211.9 3.54995 0.915115 0
M  V30 12671 H 1211.55 3.72029 3.38531 0
M  V30 12672 H 1211.25 5.28001 2.57853 0
M  V30 12673 H 1212.77 5.02119 3.47432 0
M  V30 12674 H 1214.19 5.5894 1.2751 0
M  V30 12675 H 1212.59 5.97262 0.582916 0
M  V30 12676 H 1213.66 4.84174 -0.265157 0
M  V30 12677 N 1215 -0.0618163 1.57479 0
M  V30 12678 C 1215.93 -1.07252 2.07411 0
M  V30 12679 C 1216.91 -1.39756 0.969649 0
M  V30 12680 O 1218.09 -1.4921 1.24298 0
M  V30 12681 C 1215.22 -2.38313 2.52635 0
M  V30 12682 C 1214.18 -2.20136 3.67048 0
M  V30 12683 C 1213.5 -3.56668 3.98361 0
M  V30 12684 C 1214.8 -1.61437 4.96725 0
M  V30 12685 H 1216.5 -0.656983 2.92103 0
M  V30 12686 H 1214.04 -0.314579 1.40522 0
M  V30 12687 H 1216 -3.09319 2.86181 0
M  V30 12688 H 1214.72 -2.81865 1.64984 0
M  V30 12689 H 1213.38 -1.51569 3.338 0
M  V30 12690 H 1213.03 -3.97809 3.07826 0
M  V30 12691 H 1212.73 -3.45342 4.75408 0
M  V30 12692 H 1214.25 -4.2909 4.34413 0
M  V30 12693 H 1215.67 -2.2232 5.28438 0
M  V30 12694 H 1214.06 -1.60779 5.78161 0
M  V30 12695 H 1215.13 -0.576795 4.81457 0
M  V30 12696 N 1216.48 -1.54033 -0.333429 0
M  V30 12697 C 1217.39 -1.85737 -1.43314 0
M  V30 12698 C 1218.4 -0.748398 -1.57083 0
M  V30 12699 O 1219.58 -1.04171 -1.72367 0
M  V30 12700 C 1216.64 -2.06942 -2.78165 0
M  V30 12701 C 1215.7 -3.30774 -2.73655 0
M  V30 12702 C 1214.94 -3.50957 -4.02075 0
M  V30 12703 O 1215.16 -2.74774 -4.99855 0
M  V30 12704 O 1214.09 -4.44412 -4.05933 0
M  V30 12705 H 1217.92 -2.7923 -1.19434 0
M  V30 12706 H 1215.51 -1.39814 -0.526546 0
M  V30 12707 H 1217.39 -2.22276 -3.58011 0
M  V30 12708 H 1216.06 -1.16638 -3.01956 0
M  V30 12709 H 1214.97 -3.20835 -1.92395 0
M  V30 12710 H 1216.3 -4.21103 -2.54819 0
M  V30 12711 N 1217.95 0.594978 -1.45938 0
M  V30 12712 C 1219.19 1.36479 -1.52161 0
M  V30 12713 C 1219.56 1.91296 -0.164295 0
M  V30 12714 O 1220.76 2.68609 -0.101247 0
M  V30 12715 C 1219.03 2.47286 -2.5804 0
M  V30 12716 S 1220.59 3.34855 -2.8358 0
M  V30 12717 H 1217.41 0.465134 -0.537746 0
M  V30 12718 H 1220.01 0.685257 -1.83097 0
M  V30 12719 H 1218.71 2.05386 -3.5531 0
M  V30 12720 H 1218.24 3.20025 -2.28795 0
M  V30 12721 H 1220.26 4.45788 -2.17916 0
M  V30 12722 N 1219.43 1.33438 0.838571 0
M  V30 12723 C 1220.71 1.1551 1.5785 0
M  V30 12724 C 1221.09 -0.278405 2.09256 0
M  V30 12725 O 1220.44 -1.27748 1.89453 0
M  V30 12726 C 1220.65 2.19647 2.71212 0
M  V30 12727 C 1222 2.53818 3.40384 0
M  V30 12728 O 1223.02 2.18317 2.81454 0
M  V30 12729 O 1221.88 3.14741 4.46766 0
M  V30 12730 H 1218.97 0.446785 0.695925 0
M  V30 12731 H 1221.52 1.45021 0.8813 0
M  V30 12732 H 1220.29 3.15936 2.30869 0
M  V30 12733 H 1219.91 1.91224 3.48596 0
M  V30 12734 N 1220.91 -1.05686 1.16912 0
M  V30 12735 C 1222.16 -1.78244 0.95254 0
M  V30 12736 C 1222.48 -1.87924 -0.520525 0
M  V30 12737 O 1221.75 -1.39239 -1.37802 0
M  V30 12738 H 1220.33 -0.660228 0.349439 0
M  V30 12739 H 1222.99 -1.27634 1.47294 0
M  V30 12740 H 1222.09 -2.80102 1.37657 0
M  V30 12741 N 1222.39 -0.968567 -1.24324 0
M  V30 12742 C 1223.8 -0.675239 -1.44612 0
M  V30 12743 C 1224 0.762641 -1.8651 0
M  V30 12744 O 1223.06 1.53644 -2.00374 0
M  V30 12745 C 1224.37 -1.66007 -2.50723 0
M  V30 12746 C 1225.92 -1.6728 -2.6455 0
M  V30 12747 C 1226.4 -2.64563 -3.73859 0
M  V30 12748 N 1227.89 -2.6301 -3.81287 0
M  V30 12749 C 1228.62 -3.34957 -4.65394 0
M  V30 12750 N 1228.12 -4.16424 -5.53681 0
M  V30 12751 N 1229.91 -3.23778 -4.59483 0
M  V30 12752 H 1222.06 -1.89757 -0.954257 0
M  V30 12753 H 1224.33 -0.817004 -0.480841 0
M  V30 12754 H 1224.03 -2.68779 -2.26827 0
M  V30 12755 H 1223.91 -1.43353 -3.48898 0
M  V30 12756 H 1226.29 -0.652184 -2.87803 0
M  V30 12757 H 1226.37 -1.93997 -1.6673 0
M  V30 12758 H 1226.02 -3.66759 -3.51355 0
M  V30 12759 H 1225.95 -2.35124 -4.71194 0
M  V30 12760 H 1228.44 -2.03877 -3.18186 0
M  V30 12761 H 1228.75 -4.68207 -6.14818 0
M  V30 12762 H 1227.1 -4.20518 -5.53344 0
M  V30 12763 H 1230.29 -2.59594 -3.89524 0
M  V30 12764 H 1230.46 -3.80112 -5.24804 0
M  V30 12765 N 1223.87 1.39211 -0.738786 0
M  V30 12766 C 1225.28 1.83237 -0.357916 0
M  V30 12767 C 1225.63 1.61698 1.11123 0
M  V30 12768 O 1224.75 1.11017 1.85753 0
M  V30 12769 C 1225.35 3.32645 -0.64285 0
M  V30 12770 C 1223.91 3.75076 -0.315432 0
M  V30 12771 C 1223.05 2.62166 -0.903556 0
M  V30 12772 H 1226.01 1.2815 -0.936127 0
M  V30 12773 H 1226.03 3.80407 0.0840812 0
M  V30 12774 H 1225.54 3.4829 -1.71218 0
M  V30 12775 H 1223.64 3.65017 0.747907 0
M  V30 12776 H 1223.75 4.72363 -0.800638 0
M  V30 12777 H 1222.12 2.52554 -0.329927 0
M  V30 12778 H 1222.9 2.80616 -1.97761 0
M  V30 12779 N 1225.34 0.486708 1.49896 0
M  V30 12780 C 1226.59 -0.0646197 2.01596 0
M  V30 12781 C 1226.91 -1.39363 1.37249 0
M  V30 12782 O 1228.11 -2.03082 1.80194 0
M  V30 12783 C 1226.57 -0.16565 3.59519 0
M  V30 12784 C 1226.18 1.15586 4.32832 0
M  V30 12785 C 1227.92 -0.668103 4.1921 0
M  V30 12786 C 1225.83 1.01778 5.82576 0
M  V30 12787 H 1224.76 -0.0279241 0.753483 0
M  V30 12788 H 1227.41 0.623969 1.72566 0
M  V30 12789 H 1225.79 -0.918372 3.85204 0
M  V30 12790 H 1226.96 1.92076 4.1886 0
M  V30 12791 H 1225.28 1.59064 3.84822 0
M  V30 12792 H 1227.88 -0.788698 5.28851 0
M  V30 12793 H 1228.22 -1.66339 3.81624 0
M  V30 12794 H 1228.75 0.0276746 3.9779 0
M  V30 12795 H 1225.49 1.9869 6.24662 0
M  V30 12796 H 1225.01 0.293527 5.99081 0
M  V30 12797 H 1226.69 0.690693 6.43303 0
M  V30 12798 N 1226.82 -1.56058 0.219941 0
M  V30 12799 C 1228.23 -1.84462 -0.288203 0
M  V30 12800 C 1228.59 -1.14128 -1.59591 0
M  V30 12801 O 1227.71 -0.410411 -2.12473 0
M  V30 12802 C 1228.31 -3.34634 -0.529689 0
M  V30 12803 C 1226.86 -3.63361 -0.982145 0
M  V30 12804 C 1226.01 -2.77265 -0.0443292 0
M  V30 12805 H 1228.96 -1.52387 0.44317 0
M  V30 12806 H 1228.98 -3.54752 -1.3759 0
M  V30 12807 H 1228.5 -3.85796 0.422243 0
M  V30 12808 H 1226.6 -3.17653 -1.94749 0
M  V30 12809 H 1226.71 -4.71361 -0.857668 0
M  V30 12810 H 1225.07 -2.48672 -0.550825 0
M  V30 12811 H 1225.86 -3.31225 0.902491 0
M  V30 12812 N 1228.3 0.053464 -1.57509 0
M  V30 12813 C 1229.23 1.06151 -2.07977 0
M  V30 12814 C 1230.21 1.3924 -0.977047 0
M  V30 12815 O 1231.4 1.48549 -1.25087 0
M  V30 12816 C 1228.53 2.36969 -2.53895 0
M  V30 12817 C 1227.48 2.18186 -3.6821 0
M  V30 12818 C 1226.81 3.54551 -4.00247 0
M  V30 12819 C 1228.11 1.588 -4.97574 0
M  V30 12820 H 1229.8 0.641483 -2.92447 0
M  V30 12821 H 1227.35 0.307122 -1.40687 0
M  V30 12822 H 1229.3 3.07797 -2.87817 0
M  V30 12823 H 1228.02 2.80986 -1.66476 0
M  V30 12824 H 1226.68 1.49796 -3.34599 0
M  V30 12825 H 1226.33 3.96171 -3.09932 0
M  V30 12826 H 1226.03 3.42816 -4.77232 0
M  V30 12827 H 1227.56 4.2678 -4.36682 0
M  V30 12828 H 1228.97 2.19515 -5.29609 0
M  V30 12829 H 1227.37 1.57711 -5.79006 0
M  V30 12830 H 1228.44 0.551254 -4.81756 0
M  V30 12831 N 1229.78 1.54207 0.325255 0
M  V30 12832 C 1231.19 1.63587 0.899793 0
M  V30 12833 C 1231.54 0.528851 1.88938 0
M  V30 12834 O 1230.67 -0.33852 2.13736 0
M  V30 12835 C 1231.26 2.9653 1.63877 0
M  V30 12836 C 1229.82 3.08111 2.16205 0
M  V30 12837 C 1228.97 2.59144 0.986903 0
M  V30 12838 H 1231.92 1.58366 0.102883 0
M  V30 12839 H 1231.94 2.86595 2.50287 0
M  V30 12840 H 1231.45 3.7708 0.918279 0
M  V30 12841 H 1229.55 2.32232 2.91375 0
M  V30 12842 H 1229.67 4.13885 2.41322 0
M  V30 12843 H 1228.03 2.14997 1.36558 0
M  V30 12844 H 1228.81 3.4215 0.28076 0
M  V30 12845 N 1231.26 -0.58723 1.46251 0
M  V30 12846 C 1232.48 -1.37661 1.55126 0
M  V30 12847 C 1232.91 -1.87123 0.191489 0
M  V30 12848 O 1232.27 -1.6131 -0.827576 0
M  V30 12849 C 1232.31 -2.54324 2.5564 0
M  V30 12850 O 1231.42 -3.55617 2.0883 0
M  V30 12851 H 1230.76 -0.410154 0.522178 0
M  V30 12852 H 1233.29 -0.712738 1.91784 0
M  V30 12853 H 1233.3 -3.01301 2.75103 0
M  V30 12854 H 1231.97 -2.17675 3.54387 0
M  V30 12855 H 1230.55 -3.15151 1.99335 0
M  V30 12856 N 1232.74 -1.33881 -0.831482 0
M  V30 12857 C 1233.67 -1.27384 -1.95693 0
M  V30 12858 C 1234.65 -0.152943 -1.69411 0
M  V30 12859 O 1235.83 -0.34392 -1.9113 0
M  V30 12860 C 1232.96 -1.01982 -3.31989 0
M  V30 12861 C 1231.92 -2.10445 -3.72689 0
M  V30 12862 C 1231.24 -1.70245 -5.06873 0
M  V30 12863 C 1232.54 -3.52194 -3.8569 0
M  V30 12864 H 1234.24 -2.21549 -2.01386 0
M  V30 12865 H 1231.78 -1.06653 -0.967526 0
M  V30 12866 H 1233.73 -0.960841 -4.103 0
M  V30 12867 H 1232.46 -0.0425709 -3.26572 0
M  V30 12868 H 1231.12 -2.15398 -2.96647 0
M  V30 12869 H 1230.77 -0.712036 -4.97935 0
M  V30 12870 H 1230.47 -2.42834 -5.35075 0
M  V30 12871 H 1231.99 -1.65827 -5.87651 0
M  V30 12872 H 1233.4 -3.49701 -4.54293 0
M  V30 12873 H 1231.8 -4.23331 -4.25336 0
M  V30 12874 H 1232.87 -3.9016 -2.87929 0
M  V30 12875 N 1234.21 1.05064 -1.1747 0
M  V30 12876 C 1235.15 2.12842 -0.850344 0
M  V30 12877 C 1236.16 1.62128 0.147796 0
M  V30 12878 O 1237.35 1.78327 -0.0786774 0
M  V30 12879 C 1234.45 3.37995 -0.247486 0
M  V30 12880 C 1233.62 4.17981 -1.28881 0
M  V30 12881 C 1232.68 5.21476 -0.703476 0
M  V30 12882 O 1231.71 5.52327 -1.37561 0
M  V30 12883 N 1232.91 5.78309 0.50387 0
M  V30 12884 H 1235.67 2.41264 -1.77797 0
M  V30 12885 H 1233.23 1.21172 -1.07373 0
M  V30 12886 H 1235.23 4.04394 0.157424 0
M  V30 12887 H 1233.8 3.07097 0.583952 0
M  V30 12888 H 1233.02 3.47054 -1.86942 0
M  V30 12889 H 1234.3 4.6822 -1.99116 0
M  V30 12890 H 1233.7 5.5553 1.06787 0
M  V30 12891 H 1232.26 6.46223 0.850828 0
M  V30 12892 N 1235.69 0.975146 1.23809 0
M  V30 12893 C 1236.94 0.639858 1.91704 0
M  V30 12894 C 1237.26 -0.828557 1.76522 0
M  V30 12895 O 1236.53 -1.59217 1.14135 0
M  V30 12896 H 1235.11 0.233667 0.709513 0
M  V30 12897 H 1237.77 1.23782 1.50545 0
M  V30 12898 H 1236.87 0.886915 2.99233 0
M  V30 12899 N 1237.17 -1.38817 0.746158 0
M  V30 12900 C 1238.42 -1.99519 0.295839 0
M  V30 12901 C 1238.73 -1.59897 -1.12661 0
M  V30 12902 O 1239.94 -2.13514 -1.67702 0
M  V30 12903 C 1238.39 -3.56712 0.477984 0
M  V30 12904 C 1238 -4.0529 1.90904 0
M  V30 12905 C 1239.75 -4.24405 0.0900039 0
M  V30 12906 C 1237.65 -5.55097 2.04014 0
M  V30 12907 H 1236.58 -0.746389 0.106861 0
M  V30 12908 H 1239.23 -1.58676 0.921637 0
M  V30 12909 H 1237.62 -3.95406 -0.216884 0
M  V30 12910 H 1238.79 -3.77904 2.63677 0
M  V30 12911 H 1237.1 -3.50297 2.25125 0
M  V30 12912 H 1239.7 -5.3444 0.16682 0
M  V30 12913 H 1240.04 -4.05166 -0.956349 0
M  V30 12914 H 1240.58 -3.90924 0.736446 0
M  V30 12915 H 1237.32 -5.7923 3.06877 0
M  V30 12916 H 1236.84 -5.8425 1.35692 0
M  V30 12917 H 1238.52 -6.20682 1.82656 0
M  V30 12918 N 1238.65 -0.49465 -1.49636 0
M  V30 12919 C 1239.61 0.276064 -2.27531 0
M  V30 12920 C 1240.61 0.899619 -1.3328 0
M  V30 12921 O 1241.8 0.765136 -1.56497 0
M  V30 12922 C 1238.93 1.39547 -3.1103 0
M  V30 12923 H 1240.13 -0.407381 -2.9712 0
M  V30 12924 H 1237.68 -0.249416 -1.54297 0
M  V30 12925 H 1238.41 2.11326 -2.45992 0
M  V30 12926 H 1238.2 0.953877 -3.8032 0
M  V30 12927 H 1239.69 1.93853 -3.69879 0
M  V30 12928 N 1240.13 1.55939 -0.228214 0
M  V30 12929 C 1241.37 1.9877 0.402272 0
M  V30 12930 C 1241.7 1.11587 1.5894 0
M  V30 12931 O 1240.98 0.175032 1.93711 0
M  V30 12932 C 1241.26 3.50396 0.830353 0
M  V30 12933 C 1241.12 4.4835 -0.360876 0
M  V30 12934 C 1242.43 4.06602 1.68413 0
M  V30 12935 H 1239.55 0.722646 0.144746 0
M  V30 12936 H 1242.2 1.87186 -0.325784 0
M  V30 12937 H 1240.35 3.60398 1.4507 0
M  V30 12938 H 1242.02 4.5035 -0.999113 0
M  V30 12939 H 1240.26 4.21946 -1.00719 0
M  V30 12940 H 1240.93 5.51997 -0.0183074 0
M  V30 12941 H 1243.41 3.99585 1.16064 0
M  V30 12942 H 1242.28 5.12998 1.95254 0
M  V30 12943 H 1242.54 3.53897 2.64971 0
M  V30 12944 N 1241.6 -0.0451101 1.57535 0
M  V30 12945 C 1242.53 -1.05046 2.08537 0
M  V30 12946 C 1243.52 -1.3872 0.984418 0
M  V30 12947 O 1244.7 -1.47884 1.25873 0
M  V30 12948 C 1241.83 -2.3562 2.55148 0
M  V30 12949 C 1240.78 -2.16231 3.69362 0
M  V30 12950 C 1240.11 -3.52423 4.02122 0
M  V30 12951 C 1241.41 -1.56159 4.98409 0
M  V30 12952 H 1243.1 -0.625965 2.92783 0
M  V30 12953 H 1240.65 -0.299657 1.40848 0
M  V30 12954 H 1242.6 -3.06266 2.89446 0
M  V30 12955 H 1241.33 -2.80099 1.67964 0
M  V30 12956 H 1239.99 -1.4802 3.35389 0
M  V30 12957 H 1239.63 -3.94522 3.12028 0
M  V30 12958 H 1239.33 -3.4028 4.79044 0
M  V30 12959 H 1240.86 -4.24458 4.38939 0
M  V30 12960 H 1242.27 -2.16703 5.30766 0
M  V30 12961 H 1240.67 -1.54638 5.79834 0
M  V30 12962 H 1241.74 -0.525698 4.82042 0
M  V30 12963 N 1243.08 -1.54377 -0.317073 0
M  V30 12964 C 1244.03 -1.84948 -1.41057 0
M  V30 12965 C 1245.02 -0.721887 -1.53249 0
M  V30 12966 O 1246.23 -0.905648 -1.55557 0
M  V30 12967 H 1242.61 -0.586353 -0.470844 0
M  V30 12968 H 1244.58 -2.7638 -1.12501 0
M  V30 12969 C 1243.33 -2.09932 -2.77171 0
M  V30 12970 H 1242.65 -2.96162 -2.68566 0
M  V30 12971 H 1244.09 -2.35272 -3.52737 0
M  V30 12972 C 1242.55 -0.892855 -3.24853 0
M  V30 12973 O 1243.08 -0.105336 -4.01562 0
M  V30 12974 N 1241.28 -0.702685 -2.81976 0
M  V30 12975 H 1240.83 -1.34474 -2.19715 0
M  V30 12976 H 1240.79 0.103024 -3.14231 0
M  V30 12977 N 1244.56 0.579466 -1.4656 0
M  V30 12978 C 1245.81 1.33379 -1.51304 0
M  V30 12979 C 1246.12 1.94855 -0.170507 0
M  V30 12980 O 1247.33 2.71331 -0.0957704 0
M  V30 12981 C 1245.78 2.41748 -2.66619 0
M  V30 12982 C 1245.39 1.8656 -4.07307 0
M  V30 12983 C 1247.14 3.18502 -2.80636 0
M  V30 12984 C 1245.04 2.92578 -5.13957 0
M  V30 12985 H 1243.97 0.501422 -0.56311 0
M  V30 12986 H 1246.62 0.618025 -1.72779 0
M  V30 12987 H 1245.01 3.16138 -2.3848 0
M  V30 12988 H 1246.18 1.18692 -4.45252 0
M  V30 12989 H 1244.5 1.22464 -3.97984 0
M  V30 12990 H 1247.09 3.9763 -3.57483 0
M  V30 12991 H 1247.44 3.71295 -1.8827 0
M  V30 12992 H 1247.97 2.51219 -3.08437 0
M  V30 12993 H 1244.71 2.44668 -6.08126 0
M  V30 12994 H 1244.23 3.58926 -4.80554 0
M  V30 12995 H 1245.91 3.56471 -5.39942 0
M  V30 12996 N 1246.04 1.3432 0.824371 0
M  V30 12997 C 1247.45 1.23855 1.39703 0
M  V30 12998 C 1247.8 -0.136566 1.95724 0
M  V30 12999 O 1246.93 -1.03683 1.89944 0
M  V30 13000 C 1247.52 2.24249 2.53965 0
M  V30 13001 C 1246.08 2.17578 3.07143 0
M  V30 13002 C 1245.23 2.10933 1.80008 0
M  V30 13003 H 1248.18 1.45707 0.628891 0
M  V30 13004 H 1248.2 1.85864 3.32016 0
M  V30 13005 H 1247.71 3.24321 2.13161 0
M  V30 13006 H 1245.81 1.20858 3.52455 0
M  V30 13007 H 1245.92 3.08769 3.66331 0
M  V30 13008 H 1244.29 1.56631 2.00845 0
M  V30 13009 H 1245.07 3.12836 1.4138 0
M  V30 13010 N 1247.52 -1.0444 1.18026 0
M  V30 13011 C 1248.74 -1.81772 0.998684 0
M  V30 13012 C 1249.17 -1.82682 -0.448225 0
M  V30 13013 O 1248.52 -1.24136 -1.32136 0
M  V30 13014 C 1248.57 -3.2542 1.55352 0
M  V30 13015 O 1247.68 -4.05103 0.772351 0
M  V30 13016 H 1247.02 -0.561731 0.354054 0
M  V30 13017 H 1249.55 -1.31557 1.56697 0
M  V30 13018 H 1249.56 -3.76206 1.57903 0
M  V30 13019 H 1248.23 -3.24073 2.60672 0
M  V30 13020 H 1246.81 -3.63798 0.818852 0
M  V30 13021 N 1248.99 -0.981699 -1.2329 0
M  V30 13022 C 1250.22 -0.668399 -1.95489 0
M  V30 13023 C 1250.63 0.768976 -1.72868 0
M  V30 13024 O 1249.98 1.52925 -1.01783 0
M  V30 13025 C 1250.04 -0.880535 -3.4855 0
M  V30 13026 C 1249.7 -2.30023 -3.9489 0
M  V30 13027 C 1250.7 -3.27899 -4.03458 0
M  V30 13028 C 1248.38 -2.63167 -4.27842 0
M  V30 13029 C 1250.38 -4.56999 -4.44332 0
M  V30 13030 C 1248.06 -3.92489 -4.68397 0
M  V30 13031 C 1249.06 -4.89216 -4.76609 0
M  V30 13032 O 1248.75 -6.16229 -5.16253 0
M  V30 13033 H 1248.48 -0.247255 -0.629159 0
M  V30 13034 H 1251.04 -1.31606 -1.57699 0
M  V30 13035 H 1249.27 -0.175698 -3.86301 0
M  V30 13036 H 1250.96 -0.564198 -4.0196 0
M  V30 13037 H 1251.72 -3.03624 -3.78203 0
M  V30 13038 H 1247.6 -1.88588 -4.20661 0
M  V30 13039 H 1251.14 -5.32498 -4.50656 0
M  V30 13040 H 1247.04 -4.16558 -4.93102 0
M  V30 13041 H 1247.81 -6.20001 -5.34361 0
M  V30 13042 N 1250.47 1.3842 -0.753509 0
M  V30 13043 C 1251.44 2.28808 -0.134022 0
M  V30 13044 C 1252.44 1.47184 0.647583 0
M  V30 13045 O 1253.63 1.67631 0.473861 0
M  V30 13046 C 1250.76 3.30926 0.81858 0
M  V30 13047 H 1251.95 2.85097 -0.930586 0
M  V30 13048 H 1249.5 1.47378 -0.520514 0
M  V30 13049 H 1250.24 2.79728 1.64082 0
M  V30 13050 H 1250.02 3.91234 0.260526 0
M  V30 13051 H 1251.51 3.98515 1.24802 0
M  V30 13052 N 1251.95 0.502579 1.49372 0
M  V30 13053 C 1253.2 -0.0412993 2.02058 0
M  V30 13054 C 1253.52 -1.37338 1.38431 0
M  V30 13055 O 1252.79 -1.88305 0.540175 0
M  V30 13056 H 1251.37 -0.0182522 0.746777 0
M  V30 13057 H 1254.03 0.660179 1.83378 0
M  V30 13058 H 1253.13 -0.169812 3.11638 0
M  V30 13059 N 1253.43 -1.55816 0.23648 0
M  V30 13060 C 1254.68 -1.98294 -0.390373 0
M  V30 13061 C 1255 -1.12573 -1.59224 0
M  V30 13062 O 1254.27 -0.206128 -1.94813 0
M  V30 13063 H 1252.85 -0.732349 -0.14722 0
M  V30 13064 H 1255.51 -1.92037 0.332848 0
M  V30 13065 H 1254.61 -3.03996 -0.706595 0
M  V30 13066 N 1254.91 0.036755 -1.57557 0
M  V30 13067 C 1256.13 0.741086 -1.93172 0
M  V30 13068 C 1256.55 1.69303 -0.835589 0
M  V30 13069 O 1255.91 1.81523 0.1886 0
M  V30 13070 C 1255.96 1.50477 -3.28693 0
M  V30 13071 O 1255.68 0.591046 -4.34095 0
M  V30 13072 C 1257.18 2.30695 -3.78543 0
M  V30 13073 H 1254.4 0.208731 -0.637709 0
M  V30 13074 H 1256.94 -0.00342776 -2.045 0
M  V30 13075 H 1255.1 2.20123 -3.18786 0
M  V30 13076 H 1255.51 1.12579 -5.12276 0
M  V30 13077 H 1256.99 2.79685 -4.759 0
M  V30 13078 H 1257.46 3.11778 -3.0934 0
M  V30 13079 H 1258.07 1.66138 -3.91508 0
M  V30 13080 N 1256.39 1.54543 0.308881 0
M  V30 13081 C 1257.33 1.85693 1.40074 0
M  V30 13082 C 1258.33 0.730004 1.52864 0
M  V30 13083 O 1259.53 0.913884 1.55075 0
M  V30 13084 H 1255.91 0.588842 0.467728 0
M  V30 13085 H 1257.88 2.76973 1.11034 0
M  V30 13086 C 1256.63 2.11399 2.76054 0
M  V30 13087 H 1255.95 2.97583 2.66992 0
M  V30 13088 H 1257.39 2.37139 3.51484 0
M  V30 13089 C 1255.85 0.91007 3.24375 0
M  V30 13090 O 1256.38 0.12663 4.015 0
M  V30 13091 N 1254.59 0.717629 2.816 0
M  V30 13092 H 1254.13 1.35637 2.18998 0
M  V30 13093 H 1254.09 -0.0863585 3.14281 0
M  V30 13094 N 1257.86 -0.571685 1.46866 0
M  V30 13095 C 1259.11 -1.32948 1.52745 0
M  V30 13096 C 1259.44 -1.93631 0.183694 0
M  V30 13097 O 1258.69 -1.77605 -0.821886 0
M  V30 13098 C 1258.99 -2.47051 2.58264 0
M  V30 13099 C 1258.66 -2.04291 4.01965 0
M  V30 13100 C 1257.32 -1.92345 4.41086 0
M  V30 13101 C 1259.67 -1.71458 4.9219 0
M  V30 13102 C 1257 -1.4584 5.68285 0
M  V30 13103 C 1259.35 -1.26429 6.19837 0
M  V30 13104 C 1258.02 -1.13068 6.57854 0
M  V30 13105 H 1257.29 -0.48649 0.558935 0
M  V30 13106 H 1259.93 -0.642618 1.80396 0
M  V30 13107 H 1258.24 -3.21231 2.24316 0
M  V30 13108 H 1259.94 -3.05254 2.6004 0
M  V30 13109 H 1256.53 -2.14527 3.71047 0
M  V30 13110 H 1260.71 -1.79567 4.62676 0
M  V30 13111 H 1255.97 -1.34148 5.96502 0
M  V30 13112 H 1260.14 -1.00081 6.89171 0
M  V30 13113 H 1257.77 -0.768094 7.5631 0
M  V30 13114 N 1259.34 -1.34755 -0.817236 0
M  V30 13115 C 1260.59 -1.28629 -1.57563 0
M  V30 13116 C 1260.94 0.141015 -1.91883 0
M  V30 13117 O 1260.24 1.08874 -1.57661 0
M  V30 13118 C 1260.43 -2.11611 -2.8802 0
M  V30 13119 C 1260.26 -3.62266 -2.66446 0
M  V30 13120 C 1259.03 -4.3153 -2.62887 0
M  V30 13121 C 1261.23 -4.56145 -2.37564 0
M  V30 13122 N 1259.21 -5.67999 -2.32918 0
M  V30 13123 C 1260.58 -5.80658 -2.17339 0
M  V30 13124 C 1262.63 -4.44999 -2.23339 0
M  V30 13125 C 1261.34 -6.9528 -1.8433 0
M  V30 13126 C 1263.36 -5.5946 -1.91726 0
M  V30 13127 C 1262.73 -6.82995 -1.72329 0
M  V30 13128 H 1258.82 -0.52593 -0.578724 0
M  V30 13129 H 1261.41 -1.69527 -0.957533 0
M  V30 13130 H 1259.58 -1.73 -3.47743 0
M  V30 13131 H 1261.31 -1.97085 -3.53468 0
M  V30 13132 H 1258.07 -3.84029 -2.77162 0
M  V30 13133 H 1258.49 -6.39996 -2.20757 0
M  V30 13134 H 1263.13 -3.50104 -2.37037 0
M  V30 13135 H 1260.85 -7.90152 -1.69369 0
M  V30 13136 H 1264.44 -5.52784 -1.81443 0
M  V30 13137 H 1263.32 -7.70065 -1.48222 0
M  V30 13138 N 1260.82 1.03812 -1.18578 0
M  V30 13139 C 1262.07 1.76706 -0.980776 0
M  V30 13140 C 1262.39 1.88729 0.490562 0
M  V30 13141 O 1261.66 1.41413 1.35569 0
M  V30 13142 H 1260.24 0.654586 -0.359898 0
M  V30 13143 H 1262.9 1.25274 -1.49306 0
M  V30 13144 H 1262 2.77876 -1.42096 0
M  V30 13145 N 1262.3 0.988223 1.22768 0
M  V30 13146 C 1263.55 0.660154 1.91014 0
M  V30 13147 C 1263.87 -0.809788 1.77391 0
M  V30 13148 O 1263.14 -1.57998 1.15817 0
M  V30 13149 H 1261.72 0.24118 0.706995 0
M  V30 13150 H 1264.38 1.25372 1.49224 0
M  V30 13151 H 1263.47 0.918603 2.98275 0
M  V30 13152 N 1263.78 -1.38018 0.760839 0
M  V30 13153 C 1265 -2.04231 0.331285 0
M  V30 13154 C 1265.42 -1.57385 -1.04285 0
M  V30 13155 O 1264.78 -0.750168 -1.66369 0
M  V30 13156 C 1264.83 -3.59772 0.353021 0
M  V30 13157 O 1264.55 -4.049 1.67294 0
M  V30 13158 C 1266.05 -4.4321 -0.0894942 0
M  V30 13159 H 1263.27 -0.656145 0.140408 0
M  V30 13160 H 1265.81 -1.76567 1.03172 0
M  V30 13161 H 1263.97 -3.86246 -0.298735 0
M  V30 13162 H 1264.38 -4.99369 1.60408 0
M  V30 13163 H 1265.86 -5.51995 -0.0231262 0
M  V30 13164 H 1266.33 -4.2419 -1.13839 0
M  V30 13165 H 1266.94 -4.21939 0.533661 0
M  V30 13166 N 1265.25 -0.510493 -1.49103 0
M  V30 13167 C 1266.2 0.262848 -2.29298 0
M  V30 13168 C 1267.17 0.951714 -1.36131 0
M  V30 13169 O 1268.36 0.956534 -1.65091 0
M  V30 13170 C 1265.5 1.31565 -3.19037 0
M  V30 13171 C 1264.61 0.637598 -4.27269 0
M  V30 13172 C 1263.74 1.67165 -5.04212 0
M  V30 13173 C 1262.78 0.975992 -6.04269 0
M  V30 13174 N 1261.92 1.95468 -6.74342 0
M  V30 13175 H 1266.76 -0.427246 -2.94921 0
M  V30 13176 H 1264.3 -0.222538 -1.45407 0
M  V30 13177 H 1266.25 1.93813 -3.69449 0
M  V30 13178 H 1264.88 1.97438 -2.55379 0
M  V30 13179 H 1263.94 -0.0983863 -3.80273 0
M  V30 13180 H 1265.25 0.0904435 -4.98718 0
M  V30 13181 H 1264.4 2.36893 -5.5854 0
M  V30 13182 H 1263.14 2.25267 -4.32557 0
M  V30 13183 H 1262.15 0.264534 -5.49163 0
M  V30 13184 H 1263.37 0.40134 -6.77913 0
M  V30 13185 H 1261.32 2.52515 -6.05452 0
M  V30 13186 H 1261.23 1.45845 -7.41799 0
M  V30 13187 H 1262.5 2.64455 -7.33269 0
M  V30 13188 N 1266.73 1.55688 -0.24474 0
M  V30 13189 C 1267.64 2.24933 0.666519 0
M  V30 13190 C 1268.66 1.26471 1.19503 0
M  V30 13191 O 1269.83 1.59342 1.23176 0
M  V30 13192 C 1266.9 2.9336 1.84772 0
M  V30 13193 C 1265.96 4.07225 1.35889 0
M  V30 13194 C 1265.19 4.72381 2.48379 0
M  V30 13195 O 1265.42 4.36605 3.67059 0
M  V30 13196 O 1264.35 5.60933 2.18261 0
M  V30 13197 H 1268.18 3.03513 0.106507 0
M  V30 13198 H 1265.76 1.49394 -0.0133309 0
M  V30 13199 H 1267.64 3.36468 2.53708 0
M  V30 13200 H 1266.32 2.17721 2.39539 0
M  V30 13201 H 1265.22 3.68639 0.636881 0
M  V30 13202 H 1266.56 4.84676 0.857333 0
M  V30 13203 N 1268.21 -0.0283989 1.57574 0
M  V30 13204 C 1269.49 -0.754527 1.80461 0
M  V30 13205 C 1269.87 -1.93539 0.842966 0
M  V30 13206 O 1269.21 -2.28212 -0.114714 0
M  V30 13207 C 1269.42 -1.18694 3.28196 0
M  V30 13208 C 1270.77 -1.60257 3.93196 0
M  V30 13209 O 1271.8 -1.2815 3.32349 0
M  V30 13210 O 1270.66 -2.19853 5.00327 0
M  V30 13211 H 1267.75 -0.364936 0.742126 0
M  V30 13212 H 1270.3 -0.00512589 1.69699 0
M  V30 13213 H 1269.07 -0.34398 3.89785 0
M  V30 13214 H 1268.69 -1.99633 3.43849 0
M  V30 13215 N 1269.69 -1.54705 -0.300681 0
M  V30 13216 C 1270.96 -1.6468 -1.05546 0
M  V30 13217 C 1271.34 -0.495292 -2.05207 0
M  V30 13218 O 1270.69 0.507944 -2.22783 0
M  V30 13219 C 1270.9 -3.02702 -1.73703 0
M  V30 13220 C 1272.25 -3.59527 -2.25888 0
M  V30 13221 O 1273.27 -3.05156 -1.83735 0
M  V30 13222 O 1272.13 -4.54727 -3.03126 0
M  V30 13223 H 1269.23 -0.667769 -0.487867 0
M  V30 13224 H 1271.77 -1.6705 -0.298743 0
M  V30 13225 H 1270.55 -3.7795 -1.01338 0
M  V30 13226 H 1270.17 -3.0411 -2.5613 0
M  V30 13227 N 1271.17 0.563888 -1.47167 0
M  V30 13228 C 1272.39 1.34693 -1.57052 0
M  V30 13229 C 1272.81 1.87534 -0.218308 0
M  V30 13230 O 1272.17 1.64639 0.787416 0
M  V30 13231 C 1272.22 2.52148 -2.59044 0
M  V30 13232 O 1271.94 2.01492 -3.89015 0
M  V30 13233 C 1273.44 3.4445 -2.7905 0
M  V30 13234 H 1270.66 0.410822 -0.530534 0
M  V30 13235 H 1273.2 0.683731 -1.92731 0
M  V30 13236 H 1271.36 3.14419 -2.26317 0
M  V30 13237 H 1271.77 2.78122 -4.44689 0
M  V30 13238 H 1273.25 4.23297 -3.54293 0
M  V30 13239 H 1273.72 3.97575 -1.86631 0
M  V30 13240 H 1274.33 2.88 -3.12948 0
M  V30 13241 N 1272.64 1.35187 0.810078 0
M  V30 13242 C 1273.89 1.28264 1.56699 0
M  V30 13243 C 1274.22 -0.143906 1.93967 0
M  V30 13244 O 1273.47 -1.10832 1.61291 0
M  V30 13245 C 1273.77 2.13135 2.86894 0
M  V30 13246 C 1273.44 3.61974 2.6886 0
M  V30 13247 C 1272.1 4.02545 2.63649 0
M  V30 13248 C 1274.45 4.5643 2.51636 0
M  V30 13249 C 1271.78 5.35745 2.39154 0
M  V30 13250 C 1274.13 5.89824 2.2867 0
M  V30 13251 C 1272.8 6.29544 2.2188 0
M  V30 13252 H 1272.07 0.469353 0.573401 0
M  V30 13253 H 1274.71 1.67051 0.936282 0
M  V30 13254 H 1273.02 1.67218 3.54324 0
M  V30 13255 H 1274.72 2.05117 3.44569 0
M  V30 13256 H 1271.31 3.29777 2.73761 0
M  V30 13257 H 1275.49 4.25974 2.54677 0
M  V30 13258 H 1270.75 5.65524 2.32363 0
M  V30 13259 H 1274.92 6.62597 2.14333 0
M  V30 13260 H 1272.55 7.32689 2.0266 0
M  V30 13261 N 1274.12 -1.03182 1.19127 0
M  V30 13262 C 1275.09 -2.09559 0.928307 0
M  V30 13263 C 1276.09 -1.60548 -0.0899992 0
M  V30 13264 O 1277.28 -1.736 0.144422 0
M  V30 13265 C 1274.41 -3.38609 0.394561 0
M  V30 13266 H 1275.6 -2.34321 1.87173 0
M  V30 13267 H 1273.15 -1.19746 1.00452 0
M  V30 13268 H 1273.89 -3.19515 -0.555046 0
M  V30 13269 H 1273.67 -3.75502 1.12873 0
M  V30 13270 H 1275.16 -4.16969 0.229569 0
M  V30 13271 N 1275.6 -0.99472 -1.22242 0
M  V30 13272 C 1276.56 -0.551619 -2.22463 0
M  V30 13273 C 1277.56 0.366498 -1.56568 0
M  V30 13274 O 1278.75 0.158204 -1.7348 0
M  V30 13275 C 1275.89 0.197416 -3.40328 0
M  V30 13276 H 1277.08 -1.43795 -2.63179 0
M  V30 13277 H 1274.63 -0.782121 -1.35324 0
M  V30 13278 H 1275.37 1.09965 -3.05087 0
M  V30 13279 H 1275.15 -0.461829 -3.89371 0
M  V30 13280 H 1276.64 0.495534 -4.1465 0
M  V30 13281 N 1277.08 1.37613 -0.768148 0
M  V30 13282 C 1278.49 1.82437 -0.396703 0
M  V30 13283 C 1278.84 1.64019 1.07668 0
M  V30 13284 O 1277.97 1.14932 1.83356 0
M  V30 13285 C 1278.56 3.31207 -0.713265 0
M  V30 13286 C 1277.12 3.74323 -0.39492 0
M  V30 13287 C 1276.27 2.60191 -0.958962 0
M  V30 13288 H 1279.22 1.26135 -0.963099 0
M  V30 13289 H 1279.24 3.805 0.00337228 0
M  V30 13290 H 1278.75 3.4458 -1.78567 0
M  V30 13291 H 1276.85 3.66521 0.670313 0
M  V30 13292 H 1276.96 4.70558 -0.900653 0
M  V30 13293 H 1275.33 2.51797 -0.383423 0
M  V30 13294 H 1276.11 2.76358 -2.03669 0
M  V30 13295 N 1278.56 0.518393 1.4883 0
M  V30 13296 C 1279.78 -0.0183131 2.07392 0
M  V30 13297 C 1280.21 -1.28468 1.37396 0
M  V30 13298 O 1279.56 -1.75975 0.436177 0
M  V30 13299 C 1279.61 -0.237211 3.59819 0
M  V30 13300 O 1278.72 -1.30835 3.91096 0
M  V30 13301 H 1278.06 0.0339621 0.663131 0
M  V30 13302 H 1280.59 0.722993 1.914 0
M  V30 13303 H 1280.6 -0.463424 4.0536 0
M  V30 13304 H 1279.27 0.687925 4.10171 0
M  V30 13305 H 1277.85 -1.06571 3.57347 0
M  V30 13306 N 1280.03 -1.55556 0.252993 0
M  V30 13307 C 1281.28 -1.9909 -0.37005 0
M  V30 13308 C 1281.61 -1.1412 -1.57502 0
M  V30 13309 O 1280.86 -0.193471 -1.94741 0
M  V30 13310 C 1281.16 -3.47925 -0.817484 0
M  V30 13311 C 1280.83 -4.50027 0.280398 0
M  V30 13312 C 1279.49 -4.77669 0.581914 0
M  V30 13313 C 1281.84 -5.11096 1.02129 0
M  V30 13314 C 1279.17 -5.63652 1.62829 0
M  V30 13315 C 1281.52 -5.98215 2.05723 0
M  V30 13316 C 1280.19 -6.24186 2.36533 0
M  V30 13317 H 1279.46 -0.728522 -0.135411 0
M  V30 13318 H 1282.1 -1.88046 0.36209 0
M  V30 13319 H 1280.41 -3.56333 -1.62893 0
M  V30 13320 H 1282.11 -3.79001 -1.30993 0
M  V30 13321 H 1278.7 -4.28585 0.0352579 0
M  V30 13322 H 1282.88 -4.89784 0.801603 0
M  V30 13323 H 1278.14 -5.82028 1.87227 0
M  V30 13324 H 1282.31 -6.44575 2.6362 0
M  V30 13325 H 1279.94 -6.90607 3.17752 0
M  V30 13326 N 1281.51 0.0200419 -1.57587 0
M  V30 13327 C 1282.79 0.744946 -1.80859 0
M  V30 13328 C 1283.17 1.93089 -0.853218 0
M  V30 13329 O 1282.52 2.28269 0.10261 0
M  V30 13330 C 1282.73 1.16952 -3.28821 0
M  V30 13331 C 1284.08 1.5817 -3.9404 0
M  V30 13332 O 1285.1 1.26385 -3.33024 0
M  V30 13333 O 1283.96 2.17197 -5.01486 0
M  V30 13334 H 1281.05 0.360995 -0.744051 0
M  V30 13335 H 1283.6 -0.00387374 -1.697 0
M  V30 13336 H 1282.37 0.323304 -3.89962 0
M  V30 13337 H 1281.99 1.97807 -3.44903 0
M  V30 13338 N 1282.99 1.54862 0.292472 0
M  V30 13339 C 1284.27 1.65237 1.04671 0
M  V30 13340 C 1284.65 0.506168 2.04942 0
M  V30 13341 O 1284 -0.496123 2.23049 0
M  V30 13342 C 1284.21 3.03618 1.72095 0
M  V30 13343 C 1285.55 3.6072 2.23979 0
M  V30 13344 O 1286.58 3.06126 1.82114 0
M  V30 13345 O 1285.44 4.56328 3.0071 0
M  V30 13346 H 1282.53 0.670347 0.484319 0
M  V30 13347 H 1285.08 1.67206 0.28988 0
M  V30 13348 H 1283.85 3.78482 0.993324 0
M  V30 13349 H 1283.47 3.05464 2.54514 0
M  V30 13350 N 1284.47 -0.556076 1.47464 0
M  V30 13351 C 1285.42 -1.66304 1.60036 0
M  V30 13352 C 1286.39 -1.60074 0.443348 0
M  V30 13353 O 1287.57 -1.7889 0.663545 0
M  V30 13354 C 1284.71 -3.04624 1.62167 0
M  V30 13355 C 1283.82 -3.21283 2.88793 0
M  V30 13356 C 1282.96 -4.50008 2.82252 0
M  V30 13357 C 1282 -4.60103 4.03698 0
M  V30 13358 N 1281.13 -5.80184 3.95387 0
M  V30 13359 H 1285.97 -1.54897 2.5458 0
M  V30 13360 H 1283.51 -0.754533 1.26274 0
M  V30 13361 H 1285.47 -3.84721 1.61386 0
M  V30 13362 H 1284.1 -3.14865 0.711348 0
M  V30 13363 H 1283.15 -2.34611 2.99436 0
M  V30 13364 H 1284.46 -3.24607 3.78724 0
M  V30 13365 H 1283.62 -5.38366 2.79726 0
M  V30 13366 H 1282.36 -4.49165 1.90005 0
M  V30 13367 H 1281.36 -3.70157 4.06527 0
M  V30 13368 H 1282.59 -4.62704 4.97073 0
M  V30 13369 H 1280.53 -5.80288 3.05944 0
M  V30 13370 H 1280.45 -5.8489 4.78998 0
M  V30 13371 H 1281.72 -6.709 3.96879 0
M  V30 13372 N 1285.95 -1.35615 -0.802897 0
M  V30 13373 C 1287.2 -1.28428 -1.55528 0
M  V30 13374 C 1287.51 0.138275 -1.95111 0
M  V30 13375 O 1288.72 0.332435 -2.69457 0
M  V30 13376 C 1287.17 -2.25251 -2.80696 0
M  V30 13377 C 1286.78 -3.72871 -2.48336 0
M  V30 13378 C 1288.52 -2.27014 -3.58699 0
M  V30 13379 C 1286.43 -4.61507 -3.69817 0
M  V30 13380 H 1285.36 -0.47718 -0.583794 0
M  V30 13381 H 1288.01 -1.609 -0.882238 0
M  V30 13382 H 1286.39 -1.85755 -3.4973 0
M  V30 13383 H 1287.57 -4.21024 -1.87285 0
M  V30 13384 H 1285.88 -3.73752 -1.83571 0
M  V30 13385 H 1288.48 -2.90451 -4.48935 0
M  V30 13386 H 1288.82 -1.27491 -3.96298 0
M  V30 13387 H 1289.36 -2.65058 -2.9663 0
M  V30 13388 H 1286.09 -5.62043 -3.37324 0
M  V30 13389 H 1285.61 -4.18079 -4.30081 0
M  V30 13390 H 1287.29 -4.77113 -4.37004 0
M  V30 13391 N 1287.43 1.02549 -1.19673 0
M  V30 13392 C 1288.36 2.12794 -0.961289 0
M  V30 13393 C 1289.34 1.69766 0.106575 0
M  V30 13394 O 1290.52 1.94138 -0.0491358 0
M  V30 13395 C 1287.65 3.4364 -0.502868 0
M  V30 13396 C 1286.61 4.00367 -1.51296 0
M  V30 13397 C 1285.93 5.26874 -0.911491 0
M  V30 13398 C 1287.23 4.34782 -2.89416 0
M  V30 13399 H 1288.93 2.32748 -1.88331 0
M  V30 13400 H 1286.47 1.11852 -0.906922 0
M  V30 13401 H 1288.42 4.20141 -0.325436 0
M  V30 13402 H 1287.15 3.23418 0.454764 0
M  V30 13403 H 1285.81 3.25964 -1.67759 0
M  V30 13404 H 1285.46 5.02971 0.0537982 0
M  V30 13405 H 1285.16 5.65791 -1.58602 0
M  V30 13406 H 1286.68 6.06039 -0.74493 0
M  V30 13407 H 1288.09 5.02207 -2.76516 0
M  V30 13408 H 1286.49 4.8479 -3.53693 0
M  V30 13409 H 1287.56 3.43935 -3.41814 0
M  V30 13410 N 1288.9 1.00119 1.21713 0
M  V30 13411 C 1289.81 0.567582 2.27631 0
M  V30 13412 C 1290.83 -0.387593 1.69628 0
M  V30 13413 O 1292.01 -0.252372 1.99813 0
M  V30 13414 C 1289.07 -0.102745 3.46548 0
M  V30 13415 C 1288.13 0.896433 4.19836 0
M  V30 13416 C 1287.36 0.258 5.33076 0
M  V30 13417 O 1287.59 -0.946118 5.62499 0
M  V30 13418 O 1286.52 0.967021 5.94081 0
M  V30 13419 H 1290.35 1.44898 2.66905 0
M  V30 13420 H 1287.93 0.769862 1.28037 0
M  V30 13421 H 1289.81 -0.477846 4.18682 0
M  V30 13422 H 1288.49 -0.958576 3.09181 0
M  V30 13423 H 1287.4 1.32262 3.49939 0
M  V30 13424 H 1288.73 1.72173 4.61104 0
M  V30 13425 N 1290.38 -1.37203 0.775435 0
M  V30 13426 C 1291.63 -1.99897 0.341936 0
M  V30 13427 C 1291.96 -1.61414 -1.07978 0
M  V30 13428 O 1291.24 -0.862108 -1.7435 0
M  V30 13429 C 1291.52 -3.56755 0.489715 0
M  V30 13430 C 1291.37 -4.05135 1.95411 0
M  V30 13431 C 1292.69 -4.39978 -0.103779 0
M  V30 13432 H 1289.81 -0.726199 0.125717 0
M  V30 13433 H 1292.45 -1.62826 0.979167 0
M  V30 13434 H 1290.6 -3.88464 -0.0527684 0
M  V30 13435 H 1292.27 -3.83975 2.55658 0
M  V30 13436 H 1290.52 -3.57192 2.46164 0
M  V30 13437 H 1291.19 -5.14161 2.00855 0
M  V30 13438 H 1293.66 -4.14547 0.359134 0
M  V30 13439 H 1292.54 -5.48892 0.0297337 0
M  V30 13440 H 1292.8 -4.25658 -1.19448 0
M  V30 13441 N 1291.86 -0.526279 -1.48553 0
M  V30 13442 C 1293.11 0.00918008 -2.02798 0
M  V30 13443 C 1293.44 1.34284 -1.4029 0
M  V30 13444 O 1292.71 1.86639 -0.547355 0
M  V30 13445 C 1293 0.135102 -3.59846 0
M  V30 13446 C 1292.85 -1.22347 -4.32841 0
M  V30 13447 C 1294.17 0.863673 -4.31542 0
M  V30 13448 H 1291.29 0.00186216 -0.736998 0
M  V30 13449 H 1293.93 -0.682591 -1.77315 0
M  V30 13450 H 1292.08 0.724279 -3.81689 0
M  V30 13451 H 1293.75 -1.85347 -4.22427 0
M  V30 13452 H 1291.99 -1.80631 -3.94405 0
M  V30 13453 H 1292.67 -1.08839 -5.41164 0
M  V30 13454 H 1295.14 0.363734 -4.14507 0
M  V30 13455 H 1294.02 0.92067 -5.41124 0
M  V30 13456 H 1294.28 1.91313 -3.98562 0
M  V30 13457 N 1293.34 1.5542 -0.261239 0
M  V30 13458 C 1294.3 2.20683 0.619011 0
M  V30 13459 C 1295.3 1.18042 1.09192 0
M  V30 13460 O 1296.49 1.43035 0.99432 0
M  V30 13461 C 1293.62 2.86179 1.85242 0
M  V30 13462 H 1294.82 2.99859 0.0493924 0
M  V30 13463 H 1292.37 1.56296 -0.0117687 0
M  V30 13464 H 1293.1 2.10978 2.4629 0
M  V30 13465 H 1292.89 3.61381 1.52138 0
M  V30 13466 H 1294.38 3.36081 2.47869 0
M  V30 13467 N 1294.82 -0.0116844 1.57596 0
M  V30 13468 C 1296.06 -0.699994 1.90336 0
M  V30 13469 C 1296.39 -1.74067 0.861072 0
M  V30 13470 O 1295.67 -1.94119 -0.121712 0
M  V30 13471 C 1295.95 -1.35377 3.33684 0
M  V30 13472 C 1295.81 -0.325434 4.48621 0
M  V30 13473 C 1297.12 -2.28312 3.76247 0
M  V30 13474 H 1294.24 -0.253002 0.692213 0
M  V30 13475 H 1296.89 0.037211 1.89964 0
M  V30 13476 H 1295.04 -1.98212 3.34132 0
M  V30 13477 H 1296.71 0.302331 4.60308 0
M  V30 13478 H 1294.95 0.353527 4.32357 0
M  V30 13479 H 1295.62 -0.8217 5.4585 0
M  V30 13480 H 1298.1 -1.75505 3.77276 0
M  V30 13481 H 1296.97 -2.71028 4.77321 0
M  V30 13482 H 1297.23 -3.15727 3.09465 0
M  V30 13483 N 1296.29 -1.55015 -0.284256 0
M  V30 13484 C 1297.54 -1.7509 -1.01733 0
M  V30 13485 C 1297.87 -0.545803 -1.86685 0
M  V30 13486 O 1297.12 0.471951 -1.89924 0
M  V30 13487 C 1297.42 -3.00246 -1.93874 0
M  V30 13488 C 1297.09 -4.33295 -1.24764 0
M  V30 13489 C 1295.75 -4.69459 -1.0565 0
M  V30 13490 C 1298.1 -5.15704 -0.754939 0
M  V30 13491 C 1295.43 -5.85596 -0.35976 0
M  V30 13492 C 1297.78 -6.32559 -0.0718473 0
M  V30 13493 C 1296.45 -6.67371 0.131104 0
M  V30 13494 H 1295.72 -0.6407 -0.372269 0
M  V30 13495 H 1298.36 -1.89282 -0.290638 0
M  V30 13496 H 1296.67 -2.80907 -2.73127 0
M  V30 13497 H 1298.37 -3.12974 -2.50696 0
M  V30 13498 H 1294.96 -4.04865 -1.4065 0
M  V30 13499 H 1299.14 -4.8825 -0.89027 0
M  V30 13500 H 1294.4 -6.11099 -0.19169 0
M  V30 13501 H 1298.57 -6.95675 0.317743 0
M  V30 13502 H 1296.2 -7.57215 0.672977 0
M  V30 13503 N 1297.77 0.548248 -1.47757 0
M  V30 13504 C 1299.02 1.30243 -1.54535 0
M  V30 13505 C 1299.34 1.93832 -0.213089 0
M  V30 13506 O 1298.61 1.80397 0.763782 0
M  V30 13507 H 1297.19 0.483684 -0.569262 0
M  V30 13508 H 1299.85 0.639485 -1.8411 0
M  V30 13509 H 1298.95 2.09128 -2.31672 0
M  V30 13510 N 1299.25 1.36039 0.795694 0
M  V30 13511 C 1300.47 1.33222 1.58955 0
M  V30 13512 C 1300.9 -0.0854596 1.87906 0
M  V30 13513 O 1300.26 -1.05555 1.47403 0
M  V30 13514 C 1300.31 2.15508 2.89117 0
M  V30 13515 O 1299.41 1.54327 3.82436 0
M  V30 13516 H 1298.75 0.456264 0.48241 0
M  V30 13517 H 1301.28 1.79234 0.986726 0
M  V30 13518 H 1301.29 2.2786 3.38444 0
M  V30 13519 H 1299.97 3.18568 2.67371 0
M  V30 13520 H 1298.54 1.50879 3.41013 0
M  V30 13521 N 1300.73 -1.01913 1.20215 0
M  V30 13522 C 1301.66 -2.10043 0.89203 0
M  V30 13523 C 1302.64 -1.61861 -0.154873 0
M  V30 13524 O 1303.82 -1.88478 -0.0290135 0
M  V30 13525 C 1300.95 -3.37021 0.336813 0
M  V30 13526 C 1300 -4.0409 1.36431 0
M  V30 13527 S 1300.83 -4.48334 2.92843 0
M  V30 13528 C 1301.99 -5.78517 2.3889 0
M  V30 13529 H 1302.22 -2.36025 1.80775 0
M  V30 13530 H 1299.75 -1.14992 1.03035 0
M  V30 13531 H 1301.71 -4.10494 0.0230191 0
M  V30 13532 H 1300.37 -3.09115 -0.557363 0
M  V30 13533 H 1299.56 -4.95436 0.925147 0
M  V30 13534 H 1299.17 -3.36831 1.62545 0
M  V30 13535 H 1301.46 -6.53564 1.78494 0
M  V30 13536 H 1302.4 -6.27226 3.28623 0
M  V30 13537 H 1302.81 -5.34658 1.8111 0
M  V30 13538 N 1302.21 -1.00763 -1.2118 0
M  V30 13539 C 1303.14 -0.528468 -2.23024 0
M  V30 13540 C 1304.15 0.384348 -1.58198 0
M  V30 13541 O 1305.34 0.184127 -1.77548 0
M  V30 13542 C 1302.44 0.251693 -3.37964 0
M  V30 13543 C 1301.61 -0.660838 -4.32379 0
M  V30 13544 C 1300.67 0.0701723 -5.26153 0
M  V30 13545 O 1299.7 -0.549355 -5.66543 0
M  V30 13546 N 1300.9 1.34791 -5.64634 0
M  V30 13547 H 1303.67 -1.40428 -2.64764 0
M  V30 13548 H 1301.23 -0.884085 -1.3563 0
M  V30 13549 H 1303.22 0.749746 -3.97694 0
M  V30 13550 H 1301.79 1.02872 -2.95188 0
M  V30 13551 H 1301.01 -1.33934 -3.7075 0
M  V30 13552 H 1302.3 -1.28177 -4.9239 0
M  V30 13553 H 1301.69 1.87232 -5.33817 0
M  V30 13554 H 1300.25 1.79086 -6.26715 0
M  V30 13555 N 1303.68 1.3679 -0.7827 0
M  V30 13556 C 1304.62 2.27871 -0.122531 0
M  V30 13557 C 1305.6 1.46885 0.697399 0
M  V30 13558 O 1306.78 1.76198 0.669819 0
M  V30 13559 C 1303.91 3.28314 0.832311 0
M  V30 13560 C 1302.95 4.26394 0.0950152 0
M  V30 13561 S 1303.79 5.2131 -1.22457 0
M  V30 13562 C 1304.94 6.25302 -0.273558 0
M  V30 13563 H 1305.17 2.83514 -0.894814 0
M  V30 13564 H 1302.71 1.43229 -0.5766 0
M  V30 13565 H 1304.67 3.86688 1.37778 0
M  V30 13566 H 1303.33 2.71597 1.57779 0
M  V30 13567 H 1302.52 4.97297 0.819278 0
M  V30 13568 H 1302.12 3.72067 -0.379778 0
M  V30 13569 H 1304.41 6.75263 0.550064 0
M  V30 13570 H 1305.36 7.01684 -0.951071 0
M  V30 13571 H 1305.76 5.64372 0.120115 0
M  V30 13572 N 1305.16 0.53415 1.48272 0
M  V30 13573 C 1306.13 -0.215641 2.28183 0
M  V30 13574 C 1307.13 -0.863966 1.35618 0
M  V30 13575 O 1308.32 -0.723375 1.58471 0
M  V30 13576 C 1305.45 -1.31251 3.1462 0
M  V30 13577 H 1306.64 0.486014 2.95936 0
M  V30 13578 H 1304.19 0.290237 1.53582 0
M  V30 13579 H 1304.93 -2.04729 2.51508 0
M  V30 13580 H 1304.71 -0.852706 3.82716 0
M  V30 13581 H 1306.2 -1.83978 3.74889 0
M  V30 13582 N 1306.64 -1.55279 0.269478 0
M  V30 13583 C 1307.89 -1.99767 -0.34943 0
M  V30 13584 C 1308.22 -1.15762 -1.55926 0
M  V30 13585 O 1307.49 -0.22633 -1.93179 0
M  V30 13586 C 1307.78 -3.52474 -0.73716 0
M  V30 13587 C 1307.63 -4.47236 0.479621 0
M  V30 13588 C 1308.95 -4.10924 -1.57573 0
M  V30 13589 H 1306.07 -0.72623 -0.125535 0
M  V30 13590 H 1308.71 -1.86257 0.375298 0
M  V30 13591 H 1306.86 -3.64118 -1.35464 0
M  V30 13592 H 1308.53 -4.47543 1.11816 0
M  V30 13593 H 1306.78 -4.19127 1.11871 0
M  V30 13594 H 1307.45 -5.51754 0.164653 0
M  V30 13595 H 1309.92 -4.02522 -1.05429 0
M  V30 13596 H 1308.8 -5.17995 -1.81584 0
M  V30 13597 H 1309.06 -3.60798 -2.55495 0
M  V30 13598 N 1308.12 0.00332656 -1.576 0
M  V30 13599 C 1309.34 0.703587 -1.95101 0
M  V30 13600 C 1309.77 1.66697 -0.871418 0
M  V30 13601 O 1309.13 1.80494 0.170739 0
M  V30 13602 C 1309.17 1.41457 -3.31696 0
M  V30 13603 O 1308.28 2.52885 -3.25765 0
M  V30 13604 H 1307.62 0.187396 -0.637008 0
M  V30 13605 H 1310.15 -0.0488727 -2.04542 0
M  V30 13606 H 1310.16 1.77874 -3.67185 0
M  V30 13607 H 1308.83 0.708182 -4.09826 0
M  V30 13608 H 1307.41 2.18821 -3.01947 0
M  V30 13609 N 1309.6 1.55164 0.276031 0
M  V30 13610 C 1311.01 1.46936 0.623061 0
M  V30 13611 C 1311.21 0.680977 1.89644 0
M  V30 13612 O 1310.27 0.198618 2.51718 0
M  V30 13613 C 1311.58 2.91123 0.752839 0
M  V30 13614 C 1313.13 3.01319 0.847093 0
M  V30 13615 C 1313.6 4.46755 1.00867 0
M  V30 13616 N 1315.1 4.5057 1.07427 0
M  V30 13617 C 1315.83 5.60314 1.21804 0
M  V30 13618 N 1315.33 6.7993 1.32919 0
M  V30 13619 N 1317.12 5.4805 1.2489 0
M  V30 13620 H 1309.27 2.04877 -0.560282 0
M  V30 13621 H 1311.53 0.928925 -0.189217 0
M  V30 13622 H 1311.24 3.51521 -0.112333 0
M  V30 13623 H 1311.11 3.39967 1.63408 0
M  V30 13624 H 1313.5 2.41021 1.70274 0
M  V30 13625 H 1313.58 2.55733 -0.0586896 0
M  V30 13626 H 1313.23 5.07655 0.1577 0
M  V30 13627 H 1313.16 4.89995 1.92906 0
M  V30 13628 H 1315.65 3.64404 1.00089 0
M  V30 13629 H 1315.96 7.59319 1.43714 0
M  V30 13630 H 1314.3 6.82747 1.29929 0
M  V30 13631 H 1317.5 4.53542 1.15834 0
M  V30 13632 H 1317.67 6.33621 1.3575 0
M  V30 13633 N 1311.07 -0.540404 1.48045 0
M  V30 13634 C 1312.32 -1.2987 1.55762 0
M  V30 13635 C 1312.65 -1.92877 0.226307 0
M  V30 13636 O 1311.93 -1.7875 -0.766727 0
M  V30 13637 C 1312.21 -2.39602 2.68817 0
M  V30 13638 C 1312.06 -1.81354 4.1162 0
M  V30 13639 C 1313.38 -3.41434 2.77688 0
M  V30 13640 H 1310.5 -0.47083 0.566999 0
M  V30 13641 H 1313.14 -0.603081 1.80175 0
M  V30 13642 H 1311.29 -2.98936 2.48132 0
M  V30 13643 H 1312.97 -1.26151 4.43716 0
M  V30 13644 H 1311.21 -1.1194 4.19108 0
M  V30 13645 H 1311.88 -2.60758 4.86528 0
M  V30 13646 H 1314.36 -2.92042 2.96396 0
M  V30 13647 H 1313.23 -4.15621 3.5854 0
M  V30 13648 H 1313.49 -4.01336 1.85422 0
M  V30 13649 N 1312.55 -1.36459 -0.788468 0
M  V30 13650 C 1313.8 -1.3007 -1.54158 0
M  V30 13651 C 1314.11 0.117574 -1.95246 0
M  V30 13652 O 1315.32 0.303837 -2.69795 0
M  V30 13653 C 1313.78 -2.28216 -2.78291 0
M  V30 13654 C 1313.38 -3.75484 -2.44368 0
M  V30 13655 C 1315.13 -2.30806 -3.56271 0
M  V30 13656 C 1313.04 -4.65404 -3.64902 0
M  V30 13657 H 1311.97 -0.483345 -0.5787 0
M  V30 13658 H 1314.62 -1.61827 -0.865123 0
M  V30 13659 H 1313 -1.89454 -3.4774 0
M  V30 13660 H 1314.17 -4.22986 -1.82809 0
M  V30 13661 H 1312.49 -3.75678 -1.79597 0
M  V30 13662 H 1315.08 -2.95196 -4.45829 0
M  V30 13663 H 1315.43 -1.31687 -3.94923 0
M  V30 13664 H 1315.96 -2.68189 -2.93802 0
M  V30 13665 H 1312.7 -5.65589 -3.31344 0
M  V30 13666 H 1312.22 -4.22617 -4.25623 0
M  V30 13667 H 1313.9 -4.81721 -4.31919 0
M  V30 13668 N 1314.03 1.01274 -1.20754 0
M  V30 13669 C 1315.45 1.27256 -0.963221 0
M  V30 13670 C 1315.65 1.98349 0.354972 0
M  V30 13671 O 1314.7 2.28116 1.08255 0
M  V30 13672 C 1316.02 2.1038 -2.14851 0
M  V30 13673 C 1317.56 2.23633 -2.18991 0
M  V30 13674 C 1318.04 3.10136 -3.37016 0
M  V30 13675 N 1319.53 3.17724 -3.37054 0
M  V30 13676 C 1320.26 3.84891 -4.25025 0
M  V30 13677 N 1319.76 4.54152 -5.23181 0
M  V30 13678 N 1321.55 3.81454 -4.12855 0
M  V30 13679 H 1313.7 0.535534 -2.05538 0
M  V30 13680 H 1315.97 0.299006 -0.899611 0
M  V30 13681 H 1315.67 1.65484 -3.10335 0
M  V30 13682 H 1315.55 3.11122 -2.13267 0
M  V30 13683 H 1317.93 2.67753 -1.24067 0
M  V30 13684 H 1318.02 1.22387 -2.24622 0
M  V30 13685 H 1317.66 2.66721 -4.32229 0
M  V30 13686 H 1317.59 4.11478 -3.28623 0
M  V30 13687 H 1320.08 2.68412 -2.66014 0
M  V30 13688 H 1320.39 5.03084 -5.86623 0
M  V30 13689 H 1318.74 4.52964 -5.27113 0
M  V30 13690 H 1321.93 3.26494 -3.35439 0
M  V30 13691 H 1322.1 4.33523 -4.81624 0
M  V30 13692 N 1315.51 1.01404 1.20644 0
M  V30 13693 C 1316.44 0.602465 2.25594 0
M  V30 13694 C 1317.42 -0.381216 1.65773 0
M  V30 13695 O 1318.61 -0.267209 1.92353 0
M  V30 13696 C 1315.74 -0.0626245 3.47244 0
M  V30 13697 C 1314.69 0.841776 4.1964 0
M  V30 13698 C 1314.02 0.0426002 5.34683 0
M  V30 13699 C 1315.32 2.14864 4.76058 0
M  V30 13700 H 1317.01 1.47977 2.60275 0
M  V30 13701 H 1314.56 0.712966 1.25111 0
M  V30 13702 H 1316.51 -0.362095 4.19841 0
M  V30 13703 H 1315.23 -0.974627 3.11719 0
M  V30 13704 H 1313.89 1.12521 3.48905 0
M  V30 13705 H 1313.54 -0.870973 4.95402 0
M  V30 13706 H 1313.24 0.644866 5.84051 0
M  V30 13707 H 1314.76 -0.250476 6.10086 0
M  V30 13708 H 1316.18 1.9117 5.40488 0
M  V30 13709 H 1314.57 2.70153 5.35852 0
M  V30 13710 H 1315.64 2.81336 3.9494 0
M  V30 13711 N 1316.99 -1.36373 0.789944 0
M  V30 13712 C 1317.92 -2.2873 0.146642 0
M  V30 13713 C 1318.93 -1.49503 -0.644419 0
M  V30 13714 O 1320.12 -1.71939 -0.479515 0
M  V30 13715 C 1317.22 -3.28945 -0.815369 0
M  V30 13716 C 1316.39 -4.37337 -0.0742515 0
M  V30 13717 C 1315.45 -5.17511 -0.952284 0
M  V30 13718 O 1314.48 -5.67726 -0.409336 0
M  V30 13719 N 1315.68 -5.34001 -2.27648 0
M  V30 13720 H 1318.45 -2.84578 0.939978 0
M  V30 13721 H 1316.01 -1.48545 0.643898 0
M  V30 13722 H 1318 -3.79469 -1.40661 0
M  V30 13723 H 1316.57 -2.73734 -1.50958 0
M  V30 13724 H 1315.79 -3.8797 0.698068 0
M  V30 13725 H 1317.08 -5.06919 0.437148 0
M  V30 13726 H 1316.48 -4.94819 -2.74173 0
M  V30 13727 H 1315.03 -5.87766 -2.81735 0
M  V30 13728 N 1318.47 -0.542005 -1.47987 0
M  V30 13729 C 1319.42 0.234244 -2.26794 0
M  V30 13730 C 1320.4 0.899085 -1.33436 0
M  V30 13731 O 1321.59 0.799904 -1.57894 0
M  V30 13732 C 1318.72 1.27312 -3.18821 0
M  V30 13733 C 1317.81 0.612457 -4.19654 0
M  V30 13734 N 1318.2 -0.30875 -5.04857 0
M  V30 13735 C 1316.5 0.868224 -4.37468 0
M  V30 13736 C 1317.2 -0.691052 -5.77581 0
M  V30 13737 N 1316.17 -0.0493574 -5.43578 0
M  V30 13738 H 1319.97 -0.47427 -2.90048 0
M  V30 13739 H 1317.49 -0.360868 -1.5834 0
M  V30 13740 H 1319.49 1.84305 -3.73948 0
M  V30 13741 H 1318.15 1.98288 -2.57122 0
M  V30 13742 H 1319.16 -0.682054 -5.13389 0
M  V30 13743 H 1315.83 1.56765 -3.86951 0
M  V30 13744 H 1317.22 -1.44713 -6.56131 0
M  V30 13745 N 1319.94 1.55134 -0.277709 0
M  V30 13746 C 1320.89 2.19317 0.623216 0
M  V30 13747 C 1321.88 1.15863 1.11645 0
M  V30 13748 O 1323.07 1.41668 1.0611 0
M  V30 13749 C 1320.2 2.91976 1.80568 0
M  V30 13750 C 1319.28 4.02722 1.3295 0
M  V30 13751 N 1319.68 5.02582 0.569654 0
M  V30 13752 C 1317.97 4.1584 1.61224 0
M  V30 13753 C 1318.67 5.80825 0.318983 0
M  V30 13754 N 1317.65 5.36229 0.892145 0
M  V30 13755 H 1321.45 2.93879 0.0348669 0
M  V30 13756 H 1318.97 1.62196 -0.0813871 0
M  V30 13757 H 1320.96 3.36408 2.46242 0
M  V30 13758 H 1319.62 2.18925 2.39796 0
M  V30 13759 H 1320.63 5.17446 0.216749 0
M  V30 13760 H 1317.31 3.53981 2.21368 0
M  V30 13761 H 1318.7 6.71275 -0.289742 0
M  V30 13762 N 1321.42 0.00503138 1.57599 0
M  V30 13763 C 1322.84 -0.351109 1.5569 0
M  V30 13764 C 1323.04 -1.74465 1.00818 0
M  V30 13765 O 1322.09 -2.44144 0.64422 0
M  V30 13766 C 1323.41 -0.221738 2.99881 0
M  V30 13767 C 1324.95 -0.296303 3.11594 0
M  V30 13768 C 1325.43 -0.195998 4.5758 0
M  V30 13769 N 1326.92 -0.253741 4.62504 0
M  V30 13770 C 1327.66 -0.199546 5.73053 0
M  V30 13771 N 1327.15 -0.0956553 6.92734 0
M  V30 13772 N 1328.94 -0.251779 5.61536 0
M  V30 13773 H 1321.1 0.916578 1.91605 0
M  V30 13774 H 1323.36 0.351802 0.880306 0
M  V30 13775 H 1323.06 0.737255 3.43886 0
M  V30 13776 H 1322.94 -1.00178 3.63654 0
M  V30 13777 H 1325.33 -1.24574 2.67517 0
M  V30 13778 H 1325.41 0.513692 2.50589 0
M  V30 13779 H 1325.05 0.749918 5.02333 0
M  V30 13780 H 1324.98 -1.02455 5.16537 0
M  V30 13781 H 1327.47 -0.335163 3.76411 0
M  V30 13782 H 1327.78 -0.0603357 7.72776 0
M  V30 13783 H 1326.13 -0.0612113 6.94973 0
M  V30 13784 H 1329.32 -0.331173 4.66927 0
M  V30 13785 H 1329.49 -0.206078 6.47672 0
M  V30 13786 N 1322.9 -1.55308 -0.267798 0
M  V30 13787 C 1324.15 -1.75364 -0.996515 0
M  V30 13788 C 1324.46 -0.565028 -1.87261 0
M  V30 13789 O 1325.67 -0.648119 -2.63651 0
M  V30 13790 C 1324.12 -3.10388 -1.82175 0
M  V30 13791 C 1323.73 -4.36832 -0.994062 0
M  V30 13792 C 1325.48 -3.39791 -2.54445 0
M  V30 13793 C 1323.38 -5.62893 -1.81398 0
M  V30 13794 H 1322.31 -0.653679 -0.375793 0
M  V30 13795 H 1324.96 -1.81762 -0.251975 0
M  V30 13796 H 1323.35 -2.98041 -2.60744 0
M  V30 13797 H 1324.52 -4.6011 -0.252167 0
M  V30 13798 H 1322.83 -4.1461 -0.385662 0
M  V30 13799 H 1325.43 -4.31184 -3.16203 0
M  V30 13800 H 1325.77 -2.60159 -3.24997 0
M  V30 13801 H 1326.31 -3.53259 -1.82902 0
M  V30 13802 H 1323.05 -6.45287 -1.15258 0
M  V30 13803 H 1322.57 -5.43751 -2.5317 0
M  V30 13804 H 1324.25 -6.01384 -2.38634 0
M  V30 13805 N 1324.38 0.532545 -1.4833 0
M  V30 13806 C 1325.34 1.61955 -1.62183 0
M  V30 13807 C 1326.34 1.52982 -0.495281 0
M  V30 13808 O 1327.53 1.56698 -0.761005 0
M  V30 13809 C 1324.66 3.0157 -1.58961 0
M  V30 13810 H 1325.86 1.51013 -2.59105 0
M  V30 13811 H 1323.41 0.754405 -1.36888 0
M  V30 13812 H 1324.14 3.18021 -0.635069 0
M  V30 13813 H 1323.93 3.09491 -2.40744 0
M  V30 13814 H 1325.42 3.80604 -1.71843 0
M  V30 13815 N 1325.86 1.36875 0.78122 0
M  V30 13816 C 1326.79 1.27738 1.90304 0
M  V30 13817 C 1327.8 0.195147 1.61626 0
M  V30 13818 O 1328.99 0.450531 1.72721 0
M  V30 13819 C 1326.09 0.950103 3.25309 0
M  V30 13820 C 1325.26 2.13589 3.81705 0
M  V30 13821 C 1324.32 1.78037 4.95166 0
M  V30 13822 O 1323.35 2.50223 5.11251 0
M  V30 13823 N 1324.55 0.718886 5.76031 0
M  V30 13824 H 1327.31 2.24397 1.98661 0
M  V30 13825 H 1324.88 1.30376 0.959883 0
M  V30 13826 H 1326.87 0.693286 3.98717 0
M  V30 13827 H 1325.44 0.0723849 3.12516 0
M  V30 13828 H 1324.66 2.55502 3.00187 0
M  V30 13829 H 1325.95 2.9279 4.16114 0
M  V30 13830 H 1325.34 0.119681 5.65573 0
M  V30 13831 H 1323.9 0.521909 6.49707 0
M  V30 13832 N 1327.33 -1.00632 1.21289 0
M  V30 13833 C 1328.57 -1.75921 1.04073 0
M  V30 13834 C 1328.94 -1.87381 -0.4186 0
M  V30 13835 O 1330.14 -2.5922 -0.711236 0
M  V30 13836 C 1328.41 -3.1344 1.71727 0
M  V30 13837 S 1329.97 -4.04636 1.6975 0
M  V30 13838 H 1326.79 -0.605321 0.372972 0
M  V30 13839 H 1329.39 -1.20417 1.54013 0
M  V30 13840 H 1328.09 -3.02731 2.77096 0
M  V30 13841 H 1327.62 -3.74017 1.21962 0
M  V30 13842 H 1329.64 -4.90686 0.737656 0
M  V30 13843 N 1328.81 -1.02043 -1.20104 0
M  V30 13844 C 1330.23 -0.735967 -1.41618 0
M  V30 13845 C 1330.43 0.68285 -1.89577 0
M  V30 13846 O 1329.48 1.45007 -2.06711 0
M  V30 13847 C 1330.8 -1.76492 -2.43457 0
M  V30 13848 C 1332.34 -1.78349 -2.57217 0
M  V30 13849 C 1332.82 -2.80181 -3.62302 0
M  V30 13850 N 1334.31 -2.78945 -3.69789 0
M  V30 13851 C 1335.05 -3.54395 -4.50768 0
M  V30 13852 N 1334.54 -4.39533 -5.35521 0
M  V30 13853 N 1336.33 -3.42974 -4.45337 0
M  V30 13854 H 1328.49 -1.93634 -0.872916 0
M  V30 13855 H 1330.75 -0.836663 -0.445757 0
M  V30 13856 H 1330.45 -2.78158 -2.15223 0
M  V30 13857 H 1330.33 -1.58022 -3.42504 0
M  V30 13858 H 1332.72 -0.773665 -2.84778 0
M  V30 13859 H 1332.8 -2.00894 -1.58352 0
M  V30 13860 H 1332.44 -3.81331 -3.35484 0
M  V30 13861 H 1332.37 -2.54898 -4.60798 0
M  V30 13862 H 1334.86 -2.17189 -3.09253 0
M  V30 13863 H 1335.17 -4.93863 -5.94407 0
M  V30 13864 H 1333.52 -4.43609 -5.3501 0
M  V30 13865 H 1336.71 -2.75881 -3.78163 0
M  V30 13866 H 1336.88 -4.02028 -5.0821 0
M  V30 13867 N 1330.29 1.35952 -0.797165 0
M  V30 13868 C 1331.52 2.0328 -0.385316 0
M  V30 13869 C 1331.93 1.60095 1.00076 0
M  V30 13870 O 1331.29 0.794014 1.64322 0
M  V30 13871 C 1331.34 3.5871 -0.448284 0
M  V30 13872 O 1331.06 4.00323 -1.7797 0
M  V30 13873 C 1332.56 4.43291 -0.0280465 0
M  V30 13874 H 1329.78 0.652192 -0.157756 0
M  V30 13875 H 1332.33 1.73769 -1.07817 0
M  V30 13876 H 1330.48 3.86903 0.196224 0
M  V30 13877 H 1330.9 4.94941 -1.73592 0
M  V30 13878 H 1332.37 5.51862 -0.123234 0
M  V30 13879 H 1332.85 4.27059 1.02552 0
M  V30 13880 H 1333.45 4.20375 -0.645343 0
M  V30 13881 N 1331.77 0.549846 1.47697 0
M  V30 13882 C 1333.01 0.0230845 2.02787 0
M  V30 13883 C 1333.35 -1.32035 1.42409 0
M  V30 13884 O 1332.62 -1.85745 0.576978 0
M  V30 13885 C 1332.91 -0.0778363 3.60016 0
M  V30 13886 C 1332.76 1.29217 4.3084 0
M  V30 13887 C 1334.08 -0.794909 4.32862 0
M  V30 13888 H 1331.2 0.00986307 0.736934 0
M  V30 13889 H 1333.84 0.710714 1.76207 0
M  V30 13890 H 1331.99 -0.663464 3.82793 0
M  V30 13891 H 1333.66 1.92044 4.19424 0
M  V30 13892 H 1331.9 1.86883 3.91481 0
M  V30 13893 H 1332.57 1.17435 5.39364 0
M  V30 13894 H 1335.05 -0.297743 4.15033 0
M  V30 13895 H 1333.93 -0.834466 5.4252 0
M  V30 13896 H 1334.19 -1.84948 4.01555 0
M  V30 13897 N 1333.25 -1.54984 0.285932 0
M  V30 13898 C 1334.19 -2.2295 -0.596822 0
M  V30 13899 C 1335.16 -1.20674 -1.14136 0
M  V30 13900 O 1336.35 -1.49249 -1.18867 0
M  V30 13901 C 1333.49 -2.9625 -1.77002 0
M  V30 13902 C 1332.6 -4.13268 -1.25831 0
M  V30 13903 C 1331.74 -4.74187 -2.39417 0
M  V30 13904 C 1330.78 -5.83377 -1.85304 0
M  V30 13905 N 1329.91 -6.38313 -2.92405 0
M  V30 13906 H 1334.75 -2.97998 -0.0106104 0
M  V30 13907 H 1332.29 -1.47099 0.00653041 0
M  V30 13908 H 1334.25 -3.36971 -2.4598 0
M  V30 13909 H 1332.88 -2.23606 -2.3281 0
M  V30 13910 H 1331.93 -3.77593 -0.461278 0
M  V30 13911 H 1333.24 -4.91979 -0.822049 0
M  V30 13912 H 1332.4 -5.17683 -3.16369 0
M  V30 13913 H 1331.13 -3.94775 -2.86364 0
M  V30 13914 H 1330.14 -5.3932 -1.06835 0
M  V30 13915 H 1331.36 -6.64664 -1.3928 0
M  V30 13916 H 1329.31 -5.61791 -3.38713 0
M  V30 13917 H 1329.23 -7.12328 -2.53228 0
M  V30 13918 H 1330.5 -6.86468 -3.69299 0
M  V30 13919 N 1334.72 -0.0133892 -1.57594 0
M  V30 13920 C 1335.97 0.667896 -1.90321 0
M  V30 13921 C 1336.29 1.74187 -0.88984 0
M  V30 13922 O 1337.49 2.47871 -1.10779 0
M  V30 13923 C 1335.95 1.23917 -3.37894 0
M  V30 13924 C 1335.56 0.199313 -4.47556 0
M  V30 13925 C 1337.3 1.89788 -3.79712 0
M  V30 13926 C 1335.21 0.781339 -5.86216 0
M  V30 13927 H 1334.14 0.253229 -0.710205 0
M  V30 13928 H 1336.79 -0.0761229 -1.83342 0
M  V30 13929 H 1335.17 2.03429 -3.39754 0
M  V30 13930 H 1336.34 -0.572196 -4.57234 0
M  V30 13931 H 1334.66 -0.359719 -4.14843 0
M  V30 13932 H 1337.26 2.34262 -4.80651 0
M  V30 13933 H 1337.6 2.73406 -3.13934 0
M  V30 13934 H 1338.13 1.16989 -3.80208 0
M  V30 13935 H 1334.87 -0.0163598 -6.55498 0
M  V30 13936 H 1334.39 1.5217 -5.80176 0
M  V30 13937 H 1336.07 1.2759 -6.34295 0
M  V30 13938 N 1336.2 1.55448 0.259558 0
M  V30 13939 C 1337.43 1.81063 1.01148 0
M  V30 13940 C 1337.85 0.58875 1.78649 0
M  V30 13941 O 1337.21 -0.461971 1.75315 0
M  V30 13942 C 1337.26 3.04279 1.93512 0
M  V30 13943 O 1336.36 2.80307 3.02493 0
M  V30 13944 H 1335.7 0.598056 0.288487 0
M  V30 13945 H 1338.23 2.02614 0.284387 0
M  V30 13946 H 1338.24 3.33373 2.35215 0
M  V30 13947 H 1336.92 3.92856 1.36518 0
M  V30 13948 H 1335.5 2.62345 2.65008 0
M  V30 13949 N 1337.68 -0.524672 1.4861 0
M  V30 13950 C 1338.93 -1.27671 1.5615 0
M  V30 13951 C 1339.24 -1.94088 0.242709 0
M  V30 13952 O 1340.45 -2.70789 0.196407 0
M  V30 13953 C 1338.9 -2.31686 2.75408 0
M  V30 13954 C 1338.51 -1.71315 4.13951 0
M  V30 13955 C 1340.26 -3.07867 2.92264 0
M  V30 13956 C 1338.16 -2.73302 5.24462 0
M  V30 13957 H 1337.09 -0.480177 0.581332 0
M  V30 13958 H 1339.74 -0.553473 1.74954 0
M  V30 13959 H 1338.13 -3.07069 2.50049 0
M  V30 13960 H 1339.3 -1.02085 4.4935 0
M  V30 13961 H 1337.62 -1.07608 4.02255 0
M  V30 13962 H 1340.21 -3.84088 3.71995 0
M  V30 13963 H 1340.56 -3.64052 2.01921 0
M  V30 13964 H 1341.09 -2.39599 3.17549 0
M  V30 13965 H 1337.83 -2.21929 6.16788 0
M  V30 13966 H 1337.35 -3.40843 4.93544 0
M  V30 13967 H 1339.03 -3.36186 5.528 0
M  V30 13968 N 1339.16 -1.37287 -0.77395 0
M  V30 13969 C 1340.09 -1.35569 -1.90114 0
M  V30 13970 C 1341.07 -0.224658 -1.6861 0
M  V30 13971 O 1342.25 -0.424676 -1.895 0
M  V30 13972 C 1339.38 -1.15971 -3.27365 0
M  V30 13973 C 1338.34 -2.26063 -3.63427 0
M  V30 13974 C 1337.66 -1.9159 -4.99197 0
M  V30 13975 C 1338.96 -3.68236 -3.70405 0
M  V30 13976 H 1340.66 -2.29891 -1.91808 0
M  V30 13977 H 1338.2 -1.10661 -0.92142 0
M  V30 13978 H 1340.16 -1.134 -4.05855 0
M  V30 13979 H 1338.88 -0.181043 -3.26098 0
M  V30 13980 H 1337.54 -2.27786 -2.87244 0
M  V30 13981 H 1337.19 -0.922586 -4.94467 0
M  V30 13982 H 1336.89 -2.65309 -5.24294 0
M  V30 13983 H 1338.41 -1.90602 -5.80089 0
M  V30 13984 H 1339.83 -3.68655 -4.39052 0
M  V30 13985 H 1338.22 -4.4099 -4.06999 0
M  V30 13986 H 1339.29 -4.02021 -2.71122 0
M  V30 13987 N 1340.64 0.999871 -1.21821 0
M  V30 13988 C 1341.88 1.73497 -1.0365 0
M  V30 13989 C 1342.21 1.90194 0.430271 0
M  V30 13990 O 1341.48 1.45655 1.31002 0
M  V30 13991 H 1340.06 0.642804 -0.380541 0
M  V30 13992 H 1342.72 1.20461 -1.53216 0
M  V30 13993 H 1341.81 2.73215 -1.50864 0
M  V30 13994 N 1342.11 1.02678 1.19562 0
M  V30 13995 C 1343.39 0.63674 1.84946 0
M  V30 13996 C 1343.77 -0.884667 1.91669 0
M  V30 13997 O 1343.12 -1.78053 1.43211 0
M  V30 13998 C 1343.33 1.29637 3.2403 0
M  V30 13999 C 1344.68 1.41828 4.00212 0
M  V30 14000 O 1345.7 1.25338 3.3342 0
M  V30 14001 O 1344.56 1.68573 5.19851 0
M  V30 14002 H 1341.65 0.221044 0.796912 0
M  V30 14003 H 1344.2 1.1248 1.27068 0
M  V30 14004 H 1342.97 2.33549 3.1396 0
M  V30 14005 H 1342.6 0.796041 3.8955 0
M  V30 14006 N 1343.59 -1.35528 0.804364 0
M  V30 14007 C 1344.5 -2.33616 0.214663 0
M  V30 14008 C 1345.52 -1.61757 -0.64115 0
M  V30 14009 O 1346.69 -1.93647 -0.553424 0
M  V30 14010 C 1343.76 -3.40951 -0.628778 0
M  V30 14011 C 1342.82 -4.28587 0.247269 0
M  V30 14012 C 1342.05 -5.30796 -0.556012 0
M  V30 14013 O 1342.28 -5.41557 -1.79088 0
M  V30 14014 O 1341.21 -6.01878 0.0519437 0
M  V30 14015 H 1345.04 -2.85843 1.02605 0
M  V30 14016 H 1342.62 -1.38259 0.566108 0
M  V30 14017 H 1344.5 -4.06538 -1.10926 0
M  V30 14018 H 1343.18 -2.90999 -1.4178 0
M  V30 14019 H 1342.09 -3.65988 0.774835 0
M  V30 14020 H 1343.42 -4.81931 1.00017 0
M  V30 14021 N 1345.07 -0.557671 -1.47404 0
M  V30 14022 C 1346.32 -0.0337216 -2.02072 0
M  V30 14023 C 1346.64 1.32106 -1.43433 0
M  V30 14024 O 1345.91 1.86171 -0.609692 0
M  V30 14025 H 1344.49 -0.00947648 -0.74694 0
M  V30 14026 H 1347.15 -0.727784 -1.80802 0
M  V30 14027 H 1346.25 0.0540331 -3.12053 0
M  V30 14028 N 1346.55 1.54831 -0.294147 0
M  V30 14029 C 1347.8 2.00298 0.317605 0
M  V30 14030 C 1348.13 1.18228 1.54064 0
M  V30 14031 O 1347.4 0.257034 1.92794 0
M  V30 14032 C 1347.69 3.53602 0.680991 0
M  V30 14033 C 1347.54 4.46416 -0.550711 0
M  V30 14034 C 1348.86 4.13379 1.51016 0
M  V30 14035 H 1345.98 0.728135 0.113965 0
M  V30 14036 H 1348.62 1.85636 -0.404883 0
M  V30 14037 H 1346.77 3.66227 1.29654 0
M  V30 14038 H 1348.44 4.45707 -1.18922 0
M  V30 14039 H 1346.68 4.17294 -1.18524 0
M  V30 14040 H 1347.36 5.51423 -0.252412 0
M  V30 14041 H 1349.83 4.04148 0.99012 0
M  V30 14042 H 1348.71 5.20818 1.73321 0
M  V30 14043 H 1348.97 3.64817 2.49722 0
M  V30 14044 N 1348.03 0.0217466 1.57585 0
M  V30 14045 C 1349.44 -0.51811 1.79367 0
M  V30 14046 C 1349.79 -1.72688 0.931313 0
M  V30 14047 O 1348.91 -2.15949 0.139687 0
M  V30 14048 C 1349.51 -0.946711 3.25304 0
M  V30 14049 C 1348.07 -1.43173 3.48107 0
M  V30 14050 C 1347.22 -0.392996 2.74501 0
M  V30 14051 H 1350.17 0.247822 1.56753 0
M  V30 14052 H 1350.19 -1.81152 3.34611 0
M  V30 14053 H 1349.7 -0.0667536 3.88043 0
M  V30 14054 H 1347.8 -2.33186 2.90612 0
M  V30 14055 H 1347.91 -1.44419 4.56815 0
M  V30 14056 H 1346.28 -0.859471 2.39761 0
M  V30 14057 H 1347.06 0.478368 3.39951 0
M  V30 14058 N 1349.51 -1.55583 -0.251311 0
M  V30 14059 C 1350.75 -1.77471 -0.981418 0
M  V30 14060 C 1351.08 -0.586228 -1.85141 0
M  V30 14061 O 1350.36 0.415623 -1.90007 0
M  V30 14062 C 1350.64 -3.09204 -1.84567 0
M  V30 14063 C 1350.5 -4.38448 -1.00417 0
M  V30 14064 C 1351.81 -3.37133 -2.82895 0
M  V30 14065 H 1348.93 -0.645664 -0.355369 0
M  V30 14066 H 1351.58 -1.88318 -0.252228 0
M  V30 14067 H 1349.73 -3.00087 -2.46738 0
M  V30 14068 H 1351.4 -4.5955 -0.40149 0
M  V30 14069 H 1349.64 -4.32703 -0.308365 0
M  V30 14070 H 1350.31 -5.26995 -1.64258 0
M  V30 14071 H 1352.79 -3.46183 -2.3086 0
M  V30 14072 H 1351.66 -4.30531 -3.40491 0
M  V30 14073 H 1351.92 -2.57829 -3.59133 0
M  V30 14074 N 1350.98 0.516783 -1.48886 0
M  V30 14075 C 1351.92 1.63632 -1.60491 0
M  V30 14076 C 1352.93 1.55301 -0.488424 0
M  V30 14077 O 1354.12 1.6152 -0.75983 0
M  V30 14078 C 1351.22 3.02351 -1.53093 0
M  V30 14079 C 1350.39 3.36028 -2.80006 0
M  V30 14080 C 1349.45 4.54087 -2.65879 0
M  V30 14081 O 1348.48 4.56652 -3.3979 0
M  V30 14082 N 1349.68 5.53058 -1.76372 0
M  V30 14083 H 1352.44 1.54109 -2.57042 0
M  V30 14084 H 1350 0.704338 -1.45776 0
M  V30 14085 H 1352 3.79225 -1.41318 0
M  V30 14086 H 1350.57 3.05881 -0.644637 0
M  V30 14087 H 1349.79 2.48204 -3.06249 0
M  V30 14088 H 1351.07 3.5532 -3.64177 0
M  V30 14089 H 1350.47 5.53773 -1.1555 0
M  V30 14090 H 1349.03 6.29097 -1.70529 0
M  V30 14091 N 1352.46 1.37696 0.766659 0
M  V30 14092 C 1353.71 1.33382 1.52765 0
M  V30 14093 C 1354.04 -0.0800569 1.94035 0
M  V30 14094 O 1353.32 -1.03848 1.64456 0
M  V30 14095 C 1353.6 2.2776 2.78922 0
M  V30 14096 C 1353.45 3.77949 2.43874 0
M  V30 14097 C 1354.77 2.20494 3.80881 0
M  V30 14098 H 1351.89 0.485836 0.554195 0
M  V30 14099 H 1354.53 1.68438 0.879119 0
M  V30 14100 H 1352.68 1.97994 3.34261 0
M  V30 14101 H 1354.35 4.18333 1.9441 0
M  V30 14102 H 1352.6 3.96269 1.76503 0
M  V30 14103 H 1353.27 4.39428 3.34077 0
M  V30 14104 H 1355.74 2.46742 3.35048 0
M  V30 14105 H 1354.62 2.88663 4.66867 0
M  V30 14106 H 1354.88 1.19951 4.25516 0
M  V30 14107 N 1353.94 -0.993397 1.22349 0
M  V30 14108 C 1355.22 -1.7063 0.956275 0
M  V30 14109 C 1355.6 -2.0437 -0.52877 0
M  V30 14110 O 1354.94 -1.72662 -1.49667 0
M  V30 14111 C 1355.15 -2.95725 1.85331 0
M  V30 14112 C 1356.5 -3.68514 2.10909 0
M  V30 14113 O 1357.53 -3.05732 1.82775 0
M  V30 14114 O 1356.39 -4.81468 2.58556 0
M  V30 14115 H 1353.48 -0.744734 0.359583 0
M  V30 14116 H 1356.03 -1.04979 1.33333 0
M  V30 14117 H 1354.8 -2.6729 2.85782 0
M  V30 14118 H 1354.42 -3.69116 1.47781 0
M  V30 14119 N 1355.42 -1.03311 -1.19015 0
M  V30 14120 C 1356.67 -0.730593 -1.88432 0
M  V30 14121 C 1356.99 0.743392 -1.80274 0
M  V30 14122 O 1356.26 1.5359 -1.21601 0
M  V30 14123 H 1354.84 -0.267253 -0.697556 0
M  V30 14124 H 1357.5 -1.30824 -1.44468 0
M  V30 14125 H 1356.59 -1.02867 -2.9466 0
M  V30 14126 N 1356.9 1.35099 -0.81154 0
M  V30 14127 C 1357.81 2.33499 -0.22705 0
M  V30 14128 C 1358.82 1.62095 0.632562 0
M  V30 14129 O 1360 1.93938 0.543147 0
M  V30 14130 C 1357.06 3.41279 0.610687 0
M  V30 14131 C 1356.12 4.2845 -0.269994 0
M  V30 14132 C 1355.36 5.31083 0.527854 0
M  V30 14133 O 1355.58 5.42499 1.76213 0
M  V30 14134 O 1354.51 6.01842 -0.083862 0
M  V30 14135 H 1358.34 2.85294 -1.04119 0
M  V30 14136 H 1355.92 1.37957 -0.573432 0
M  V30 14137 H 1357.81 4.07121 1.08768 0
M  V30 14138 H 1356.48 2.91746 1.40235 0
M  V30 14139 H 1355.39 3.65572 -0.794234 0
M  V30 14140 H 1356.72 4.81394 -1.02572 0
M  V30 14141 N 1358.37 0.56548 1.47106 0
M  V30 14142 C 1359.34 -0.167191 2.28589 0
M  V30 14143 C 1360.34 -0.835005 1.3742 0
M  V30 14144 O 1361.53 -0.689598 1.59969 0
M  V30 14145 C 1358.66 -1.24548 3.17333 0
M  V30 14146 H 1359.85 0.548677 2.94838 0
M  V30 14147 H 1357.4 0.322749 1.52931 0
M  V30 14148 H 1358.14 -1.99348 2.55794 0
M  V30 14149 H 1357.92 -0.771335 3.84438 0
M  V30 14150 H 1359.41 -1.75985 3.78707 0
M  V30 14151 N 1359.85 -1.54672 0.302354 0
M  V30 14152 C 1361.1 -2.01178 -0.299842 0
M  V30 14153 C 1361.45 -1.18698 -1.51422 0
M  V30 14154 O 1360.75 -0.255677 -1.89886 0
M  V30 14155 C 1360.94 -3.5035 -0.70638 0
M  V30 14156 C 1360.77 -4.47268 0.467051 0
M  V30 14157 C 1359.54 -4.96107 0.959494 0
M  V30 14158 C 1361.74 -4.97272 1.31245 0
M  V30 14159 N 1359.72 -5.76881 2.09955 0
M  V30 14160 C 1361.09 -5.75761 2.29997 0
M  V30 14161 C 1363.15 -4.79455 1.34267 0
M  V30 14162 C 1361.85 -6.38332 3.31549 0
M  V30 14163 C 1363.87 -5.42845 2.34677 0
M  V30 14164 C 1363.24 -6.21168 3.32159 0
M  V30 14165 H 1359.34 -0.778477 -0.0741425 0
M  V30 14166 H 1361.92 -1.89834 0.432577 0
M  V30 14167 H 1360.09 -3.61982 -1.40797 0
M  V30 14168 H 1361.82 -3.83649 -1.28823 0
M  V30 14169 H 1358.58 -4.70577 0.534246 0
M  V30 14170 H 1359 -6.21953 2.67401 0
M  V30 14171 H 1363.64 -4.18482 0.602738 0
M  V30 14172 H 1361.36 -6.98438 4.0646 0
M  V30 14173 H 1364.95 -5.30987 2.37791 0
M  V30 14174 H 1363.83 -6.69349 4.08584 0
M  V30 14175 N 1361.33 -0.0301034 -1.57571 0
M  V30 14176 C 1362.58 0.649283 -1.92125 0
M  V30 14177 C 1362.91 1.71722 -0.90692 0
M  V30 14178 O 1362.18 1.94373 0.0702019 0
M  V30 14179 C 1362.47 1.26482 -3.37156 0
M  V30 14180 C 1362.32 0.206375 -4.49326 0
M  V30 14181 C 1363.64 2.18256 -3.82168 0
M  V30 14182 H 1360.76 0.234561 -0.698678 0
M  V30 14183 H 1363.4 -0.0875634 -1.89798 0
M  V30 14184 H 1361.55 1.89283 -3.3927 0
M  V30 14185 H 1363.22 -0.424268 -4.59345 0
M  V30 14186 H 1361.47 -0.468035 -4.31268 0
M  V30 14187 H 1362.14 0.676689 -5.47837 0
M  V30 14188 H 1364.61 1.65441 -3.81797 0
M  V30 14189 H 1363.49 2.58277 -4.84339 0
M  V30 14190 H 1363.75 3.07411 -3.17727 0
M  V30 14191 N 1362.81 1.55714 0.243056 0
M  V30 14192 C 1363.74 1.87093 1.32396 0
M  V30 14193 C 1364.75 0.757482 1.44104 0
M  V30 14194 O 1365.94 1.03563 1.45386 0
M  V30 14195 C 1363.04 2.04546 2.70212 0
M  V30 14196 C 1362.22 3.3543 2.80723 0
M  V30 14197 C 1361.27 3.42578 3.99408 0
M  V30 14198 O 1360.3 4.15762 3.88755 0
M  V30 14199 N 1361.5 2.7215 5.12752 0
M  V30 14200 H 1364.27 2.80399 1.05813 0
M  V30 14201 H 1361.83 1.55998 0.433151 0
M  V30 14202 H 1363.82 2.06665 3.47954 0
M  V30 14203 H 1362.39 1.17966 2.89487 0
M  V30 14204 H 1361.61 3.45594 1.89626 0
M  V30 14205 H 1362.9 4.21692 2.84698 0
M  V30 14206 H 1362.3 2.1243 5.24299 0
M  V30 14207 H 1360.85 2.79957 5.88615 0
M  V30 14208 N 1364.29 -0.50888 1.49158 0
M  V30 14209 C 1365.7 -1.09054 1.51539 0
M  V30 14210 C 1366.05 -1.93938 0.297099 0
M  V30 14211 O 1365.17 -2.08092 -0.593849 0
M  V30 14212 C 1365.77 -1.98447 2.74599 0
M  V30 14213 C 1364.33 -2.5179 2.79783 0
M  V30 14214 C 1363.47 -1.29227 2.45348 0
M  V30 14215 H 1366.43 -0.293148 1.55969 0
M  V30 14216 H 1366.45 -2.83028 2.54314 0
M  V30 14217 H 1365.96 -1.3664 3.63251 0
M  V30 14218 H 1364.06 -3.17258 1.95392 0
M  V30 14219 H 1364.17 -2.89481 3.81756 0
M  V30 14220 H 1362.54 -1.61494 1.96957 0
M  V30 14221 H 1363.32 -0.6914 3.36266 0
M  V30 14222 N 1365.76 -1.381 -0.759346 0
M  V30 14223 C 1367.18 -1.30379 -1.33635 0
M  V30 14224 C 1367.53 0.0430279 -1.96153 0
M  V30 14225 O 1366.65 0.945029 -1.94675 0
M  V30 14226 C 1367.25 -2.3611 -2.42976 0
M  V30 14227 C 1365.81 -2.31985 -2.96412 0
M  V30 14228 C 1364.95 -2.19281 -1.69739 0
M  V30 14229 H 1367.9 -1.48542 -0.558656 0
M  V30 14230 H 1367.92 -2.01493 -3.22771 0
M  V30 14231 H 1367.44 -3.34122 -1.97445 0
M  V30 14232 H 1365.54 -1.37536 -3.46287 0
M  V30 14233 H 1365.65 -3.25895 -3.51183 0
M  V30 14234 H 1364.01 -1.66035 -1.93144 0
M  V30 14235 H 1364.8 -3.19225 -1.26293 0
M  V30 14236 N 1367.24 0.986894 -1.22875 0
M  V30 14237 C 1368.49 1.72388 -1.05484 0
M  V30 14238 C 1368.81 1.90639 0.410074 0
M  V30 14239 O 1368.08 1.47036 1.2945 0
M  V30 14240 H 1366.66 0.638732 -0.387337 0
M  V30 14241 H 1369.32 1.18829 -1.54485 0
M  V30 14242 H 1368.42 2.71599 -1.53754 0
M  V30 14243 N 1368.72 1.0394 1.18466 0
M  V30 14244 C 1369.95 0.760909 1.92077 0
M  V30 14245 C 1370.36 -0.685622 1.7634 0
M  V30 14246 O 1369.7 -1.47894 1.08963 0
M  V30 14247 C 1369.76 1.04583 3.43952 0
M  V30 14248 C 1369.43 2.48602 3.83466 0
M  V30 14249 C 1370.42 3.46775 3.87354 0
M  V30 14250 C 1368.11 2.8328 4.14798 0
M  V30 14251 C 1370.1 4.77678 4.22022 0
M  V30 14252 C 1367.79 4.1439 4.49138 0
M  V30 14253 C 1368.79 5.11399 4.52725 0
M  V30 14254 O 1368.48 6.40159 4.86264 0
M  V30 14255 H 1368.21 0.276991 0.616646 0
M  V30 14256 H 1370.76 1.3898 1.5124 0
M  V30 14257 H 1368.99 0.359807 3.85022 0
M  V30 14258 H 1370.68 0.755336 3.9881 0
M  V30 14259 H 1371.45 3.21323 3.63286 0
M  V30 14260 H 1367.33 2.08444 4.11184 0
M  V30 14261 H 1370.87 5.53393 4.24737 0
M  V30 14262 H 1366.77 4.39611 4.72666 0
M  V30 14263 H 1367.54 6.4479 5.04171 0
M  V30 14264 N 1370.2 -1.34667 0.818693 0
M  V30 14265 C 1371.45 -1.9767 0.401184 0
M  V30 14266 C 1371.76 -1.65644 -1.04027 0
M  V30 14267 O 1372.97 -2.22104 -1.56148 0
M  V30 14268 C 1371.42 -3.53677 0.666398 0
M  V30 14269 C 1371.03 -3.94601 2.12119 0
M  V30 14270 C 1372.77 -4.23331 0.314845 0
M  V30 14271 C 1370.68 -5.43502 2.33151 0
M  V30 14272 H 1369.61 -0.739675 0.146275 0
M  V30 14273 H 1372.26 -1.53568 1.00445 0
M  V30 14274 H 1370.64 -3.95999 -0.00698307 0
M  V30 14275 H 1371.82 -3.63396 2.83338 0
M  V30 14276 H 1370.13 -3.37871 2.43377 0
M  V30 14277 H 1372.73 -5.32804 0.449881 0
M  V30 14278 H 1373.07 -4.09666 -0.740235 0
M  V30 14279 H 1373.61 -3.8647 0.942631 0
M  V30 14280 H 1370.35 -5.62148 3.37149 0
M  V30 14281 H 1369.87 -5.76236 1.66471 0
M  V30 14282 H 1371.54 -6.10127 2.153 0
M  V30 14283 N 1371.68 -0.573274 -1.46804 0
M  V30 14284 C 1373.09 -0.23423 -1.57872 0
M  V30 14285 C 1373.29 1.26342 -1.56971 0
M  V30 14286 O 1372.35 2.04459 -1.48165 0
M  V30 14287 C 1373.66 -0.875097 -2.87685 0
M  V30 14288 C 1375.21 -0.847812 -3.01299 0
M  V30 14289 C 1375.68 -1.46804 -4.33835 0
M  V30 14290 N 1377.18 -1.43196 -4.4051 0
M  V30 14291 C 1377.91 -1.88133 -5.41658 0
M  V30 14292 N 1377.41 -2.41001 -6.49531 0
M  V30 14293 N 1379.2 -1.79107 -5.32801 0
M  V30 14294 H 1371.35 -1.54612 -1.45633 0
M  V30 14295 H 1373.61 -0.645703 -0.694098 0
M  V30 14296 H 1373.32 -1.92826 -2.94127 0
M  V30 14297 H 1373.19 -0.377671 -3.75305 0
M  V30 14298 H 1375.58 0.196707 -2.94444 0
M  V30 14299 H 1375.66 -1.38316 -2.1518 0
M  V30 14300 H 1375.31 -2.51171 -4.41447 0
M  V30 14301 H 1375.24 -0.908 -5.18713 0
M  V30 14302 H 1377.73 -1.04541 -3.63152 0
M  V30 14303 H 1378.04 -2.73172 -7.22908 0
M  V30 14304 H 1376.38 -2.45021 -6.50377 0
M  V30 14305 H 1379.58 -1.37569 -4.47429 0
M  V30 14306 H 1379.75 -2.14445 -6.11488 0
M  V30 14307 N 1373.15 1.5451 -0.310553 0
M  V30 14308 C 1374.4 1.99505 0.296731 0
M  V30 14309 C 1374.72 1.20257 1.54265 0
M  V30 14310 O 1375.92 1.55566 2.22512 0
M  V30 14311 C 1374.38 3.55208 0.579251 0
M  V30 14312 C 1373.99 4.43276 -0.648874 0
M  V30 14313 C 1375.73 4.08705 1.1472 0
M  V30 14314 C 1373.64 5.90428 -0.338978 0
M  V30 14315 H 1372.57 0.745232 0.114652 0
M  V30 14316 H 1375.22 1.78611 -0.420749 0
M  V30 14317 H 1373.6 3.72039 1.35658 0
M  V30 14318 H 1374.77 4.3822 -1.42478 0
M  V30 14319 H 1373.09 4.00601 -1.13613 0
M  V30 14320 H 1375.69 5.16223 1.39346 0
M  V30 14321 H 1376.03 3.59889 2.09249 0
M  V30 14322 H 1376.56 3.95454 0.431363 0
M  V30 14323 H 1373.3 6.43411 -1.25309 0
M  V30 14324 H 1372.82 5.98468 0.399475 0
M  V30 14325 H 1374.5 6.46976 0.0559696 0
M  V30 14326 N 1374.63 0.0384594 1.57553 0
M  V30 14327 C 1375.88 -0.639085 1.92467 0
M  V30 14328 C 1376.21 -1.71239 0.916014 0
M  V30 14329 O 1375.49 -1.94408 -0.0598928 0
M  V30 14330 C 1375.77 -1.24693 3.37822 0
M  V30 14331 C 1375.62 -0.182544 4.49429 0
M  V30 14332 C 1376.94 -2.16226 3.8332 0
M  V30 14333 H 1374.06 -0.230852 0.699912 0
M  V30 14334 H 1376.7 0.0976276 1.89749 0
M  V30 14335 H 1374.85 -1.87481 3.40269 0
M  V30 14336 H 1376.53 0.448622 4.59113 0
M  V30 14337 H 1374.77 0.4909 4.31013 0
M  V30 14338 H 1375.44 -0.647626 5.48188 0
M  V30 14339 H 1377.92 -1.63413 3.82669 0
M  V30 14340 H 1376.79 -2.55705 4.85702 0
M  V30 14341 H 1377.05 -3.05722 3.19353 0
M  V30 14342 N 1376.11 -1.55841 -0.234795 0
M  V30 14343 C 1377.06 -1.8772 -1.29403 0
M  V30 14344 C 1378.05 -0.739087 -1.42921 0
M  V30 14345 O 1379.24 -1.00125 -1.45959 0
M  V30 14346 C 1376.37 -2.18592 -2.64712 0
M  V30 14347 C 1375.45 -3.38761 -2.55151 0
M  V30 14348 N 1375.84 -4.57723 -2.15229 0
M  V30 14349 C 1374.14 -3.42112 -2.86138 0
M  V30 14350 C 1374.84 -5.39872 -2.16595 0
M  V30 14351 N 1373.82 -4.79242 -2.5657 0
M  V30 14352 H 1377.62 -2.77219 -0.976067 0
M  V30 14353 H 1375.13 -1.5623 -0.443396 0
M  V30 14354 H 1377.13 -2.39599 -3.41171 0
M  V30 14355 H 1375.79 -1.30398 -2.97366 0
M  V30 14356 H 1376.8 -4.83126 -1.86575 0
M  V30 14357 H 1373.48 -2.64224 -3.23252 0
M  V30 14358 H 1374.87 -6.45072 -1.87967 0
M  V30 14359 N 1377.59 0.500963 -1.49426 0
M  V30 14360 C 1378.54 1.6025 -1.66098 0
M  V30 14361 C 1379.51 1.58318 -0.502453 0
M  V30 14362 O 1380.69 1.76304 -0.729482 0
M  V30 14363 C 1377.83 2.98396 -1.73361 0
M  V30 14364 C 1376.94 3.10343 -3.00518 0
M  V30 14365 C 1376.08 4.39222 -2.9876 0
M  V30 14366 C 1375.12 4.44803 -4.20496 0
M  V30 14367 N 1374.26 5.6511 -4.16648 0
M  V30 14368 H 1379.1 1.45342 -2.60153 0
M  V30 14369 H 1376.63 0.707147 -1.28988 0
M  V30 14370 H 1378.59 3.78467 -1.75553 0
M  V30 14371 H 1377.22 3.12007 -0.827718 0
M  V30 14372 H 1376.27 2.23336 -3.07937 0
M  V30 14373 H 1377.58 3.10327 -3.90511 0
M  V30 14374 H 1376.74 5.27613 -2.99515 0
M  V30 14375 H 1375.48 4.41804 -2.06545 0
M  V30 14376 H 1374.48 3.54814 -4.19985 0
M  V30 14377 H 1375.71 4.43937 -5.13903 0
M  V30 14378 H 1373.65 5.68533 -3.2727 0
M  V30 14379 H 1373.57 5.6671 -5.00376 0
M  V30 14380 H 1374.84 6.55708 -4.21506 0
M  V30 14381 N 1379.07 1.38501 0.752011 0
M  V30 14382 C 1380.02 1.35975 1.88716 0
M  V30 14383 C 1381.01 0.245392 1.67613 0
M  V30 14384 O 1382.22 0.414514 1.75162 0
M  V30 14385 H 1378.59 0.424221 0.620919 0
M  V30 14386 H 1380.56 2.3176 1.87962 0
M  V30 14387 C 1379.31 1.20326 3.26216 0
M  V30 14388 H 1378.63 2.05336 3.43041 0
M  V30 14389 H 1380.07 1.22613 4.05884 0
M  V30 14390 C 1378.53 -0.0897029 3.36781 0
M  V30 14391 O 1379.06 -1.06615 3.87293 0
M  V30 14392 N 1377.27 -0.147065 2.90228 0
M  V30 14393 H 1376.82 0.648216 2.49311 0
M  V30 14394 H 1376.77 -1.01174 2.97676 0
M  V30 14395 N 1380.55 -0.980364 1.23396 0
M  V30 14396 C 1381.96 -1.24658 0.996622 0
M  V30 14397 C 1382.16 -1.9922 -0.302259 0
M  V30 14398 O 1381.22 -2.30906 -1.02169 0
M  V30 14399 C 1382.53 -2.0461 2.20353 0
M  V30 14400 C 1384.08 -2.17749 2.24843 0
M  V30 14401 C 1384.55 -3.01091 3.4512 0
M  V30 14402 N 1386.04 -3.08676 3.4536 0
M  V30 14403 C 1386.78 -3.73487 4.3508 0
M  V30 14404 N 1386.28 -4.40121 5.35038 0
M  V30 14405 N 1388.07 -3.70373 4.22824 0
M  V30 14406 H 1380.22 -0.480851 2.06885 0
M  V30 14407 H 1382.48 -0.275049 0.907222 0
M  V30 14408 H 1382.19 -1.57197 3.14614 0
M  V30 14409 H 1382.06 -3.05359 2.21441 0
M  V30 14410 H 1384.45 -2.64369 1.31122 0
M  V30 14411 H 1384.53 -1.16388 2.27788 0
M  V30 14412 H 1384.17 -2.55168 4.39149 0
M  V30 14413 H 1384.1 -4.02621 3.39417 0
M  V30 14414 H 1386.6 -2.61265 2.73037 0
M  V30 14415 H 1386.91 -4.87354 5.99755 0
M  V30 14416 H 1385.25 -4.38829 5.38938 0
M  V30 14417 H 1388.44 -3.17486 3.43977 0
M  V30 14418 H 1388.62 -4.20601 4.92949 0
M  V30 14419 N 1382.02 -1.04567 -1.17913 0
M  V30 14420 C 1382.99 -0.645476 -2.19923 0
M  V30 14421 C 1383.99 0.299763 -1.57981 0
M  V30 14422 O 1385.18 0.0844825 -1.73995 0
M  V30 14423 C 1382.31 0.0528935 -3.40859 0
M  V30 14424 H 1383.5 -1.54828 -2.56843 0
M  V30 14425 H 1381.05 -0.838812 -1.31885 0
M  V30 14426 H 1381.79 0.969261 -3.09477 0
M  V30 14427 H 1381.57 -0.626558 -3.87062 0
M  V30 14428 H 1383.06 0.319221 -4.16378 0
M  V30 14429 N 1383.5 1.34231 -0.825823 0
M  V30 14430 C 1384.43 2.28261 -0.207234 0
M  V30 14431 C 1385.45 1.51159 0.604554 0
M  V30 14432 O 1386.64 1.7315 0.43376 0
M  V30 14433 C 1383.74 3.30991 0.727868 0
M  V30 14434 C 1382.91 4.3738 -0.0417267 0
M  V30 14435 C 1381.97 5.19854 0.81474 0
M  V30 14436 O 1380.99 5.68612 0.25867 0
M  V30 14437 N 1382.2 5.39849 2.1341 0
M  V30 14438 H 1384.96 2.81986 -1.0151 0
M  V30 14439 H 1382.52 1.46785 -0.683056 0
M  V30 14440 H 1384.51 3.83065 1.3055 0
M  V30 14441 H 1383.08 2.7764 1.43647 0
M  V30 14442 H 1382.3 3.85983 -0.800686 0
M  V30 14443 H 1383.59 5.05581 -0.571395 0
M  V30 14444 H 1382.99 5.01914 2.60958 0
M  V30 14445 H 1381.55 5.95029 2.66052 0
M  V30 14446 N 1384.98 0.581051 1.46498 0
M  V30 14447 C 1386.21 0.0715652 2.06776 0
M  V30 14448 C 1386.62 -1.23267 1.43006 0
M  V30 14449 O 1385.98 -1.74489 0.534776 0
M  V30 14450 C 1386.03 -0.102666 3.61354 0
M  V30 14451 O 1385.75 1.14995 4.22739 0
M  V30 14452 C 1387.25 -0.646692 4.38558 0
M  V30 14453 H 1384.47 0.0566964 0.6686 0
M  V30 14454 H 1387.02 0.801248 1.8815 0
M  V30 14455 H 1385.17 -0.782564 3.79414 0
M  V30 14456 H 1385.59 0.962718 5.15589 0
M  V30 14457 H 1387.06 -0.717791 5.47313 0
M  V30 14458 H 1387.54 -1.6633 4.06486 0
M  V30 14459 H 1388.14 -0.00171739 4.253 0
M  V30 14460 N 1386.46 -1.54343 0.318742 0
M  V30 14461 C 1387.39 -2.27118 -0.542206 0
M  V30 14462 C 1388.37 -1.27731 -1.12334 0
M  V30 14463 O 1389.55 -1.56535 -1.14937 0
M  V30 14464 C 1386.68 -3.02535 -1.70558 0
M  V30 14465 C 1385.64 -4.09218 -1.25398 0
M  V30 14466 C 1384.96 -4.72449 -2.50391 0
M  V30 14467 C 1386.26 -5.20971 -0.372332 0
M  V30 14468 H 1387.96 -2.9933 0.0648226 0
M  V30 14469 H 1385.5 -1.43963 0.0326168 0
M  V30 14470 H 1387.46 -3.52174 -2.31412 0
M  V30 14471 H 1386.18 -2.27931 -2.33912 0
M  V30 14472 H 1384.84 -3.60455 -0.668392 0
M  V30 14473 H 1384.49 -3.94466 -3.12099 0
M  V30 14474 H 1384.19 -5.4451 -2.20868 0
M  V30 14475 H 1385.71 -5.2486 -3.12016 0
M  V30 14476 H 1387.13 -5.66396 -0.887029 0
M  V30 14477 H 1385.52 -5.99859 -0.17009 0
M  V30 14478 H 1386.59 -4.81198 0.598064 0
M  V30 14479 N 1387.94 -0.0468143 -1.5753 0
M  V30 14480 C 1389.16 0.637648 -1.96829 0
M  V30 14481 C 1389.58 1.64635 -0.924158 0
M  V30 14482 O 1388.94 1.82267 0.0921139 0
M  V30 14483 C 1388.99 1.32842 -3.36207 0
M  V30 14484 O 1388.71 0.360111 -4.36617 0
M  V30 14485 C 1390.21 2.10305 -3.90239 0
M  V30 14486 H 1387.43 0.174634 -0.647876 0
M  V30 14487 H 1389.97 -0.111824 -2.04194 0
M  V30 14488 H 1388.13 2.02915 -3.30006 0
M  V30 14489 H 1388.54 0.852661 -5.17523 0
M  V30 14490 H 1390.02 2.54065 -4.90056 0
M  V30 14491 H 1390.49 2.94942 -3.25432 0
M  V30 14492 H 1391.1 1.45152 -3.99764 0
M  V30 14493 N 1389.41 1.55964 0.226527 0
M  V30 14494 C 1390.83 1.48844 0.575999 0
M  V30 14495 C 1391.03 0.740966 1.87382 0
M  V30 14496 O 1390.09 0.278599 2.50958 0
M  V30 14497 C 1391.4 2.93371 0.65984 0
M  V30 14498 C 1392.95 3.03862 0.750802 0
M  V30 14499 C 1393.42 4.49738 0.86603 0
M  V30 14500 N 1394.91 4.5376 0.930379 0
M  V30 14501 C 1395.65 5.63905 1.03916 0
M  V30 14502 N 1395.14 6.83814 1.1122 0
M  V30 14503 N 1396.94 5.51746 1.07391 0
M  V30 14504 H 1389.09 2.02991 -0.625179 0
M  V30 14505 H 1391.35 0.922435 -0.218674 0
M  V30 14506 H 1391.06 3.50985 -0.22411 0
M  V30 14507 H 1390.93 3.44994 1.52509 0
M  V30 14508 H 1393.32 2.46316 1.6252 0
M  V30 14509 H 1393.4 2.55416 -0.140019 0
M  V30 14510 H 1393.04 5.079 -0.00388632 0
M  V30 14511 H 1392.97 4.95884 1.77219 0
M  V30 14512 H 1395.46 3.67404 0.884451 0
M  V30 14513 H 1395.78 7.63507 1.19484 0
M  V30 14514 H 1394.12 6.86535 1.08142 0
M  V30 14515 H 1397.31 4.56997 1.01347 0
M  V30 14516 H 1397.49 6.37619 1.15523 0
M  V30 14517 N 1390.89 -0.493031 1.4969 0
M  V30 14518 C 1392.17 -1.25436 1.50084 0
M  V30 14519 C 1392.55 -2.0981 0.233038 0
M  V30 14520 O 1391.9 -2.14617 -0.784342 0
M  V30 14521 C 1392.11 -2.10425 2.78428 0
M  V30 14522 C 1393.46 -2.69349 3.28232 0
M  V30 14523 O 1394.48 -2.20686 2.796 0
M  V30 14524 O 1393.34 -3.57956 4.12953 0
M  V30 14525 H 1390.43 -0.568044 0.601045 0
M  V30 14526 H 1392.98 -0.506648 1.6196 0
M  V30 14527 H 1391.75 -1.48108 3.62187 0
M  V30 14528 H 1391.37 -2.92374 2.6945 0
M  V30 14529 N 1392.37 -1.38898 -0.744656 0
M  V30 14530 C 1393.79 -1.20291 -1.04892 0
M  V30 14531 C 1393.99 -0.0577705 -2.01417 0
M  V30 14532 O 1393.04 0.593638 -2.45422 0
M  V30 14533 C 1394.36 -2.53302 -1.62045 0
M  V30 14534 C 1395.9 -2.60063 -1.74173 0
M  V30 14535 C 1396.38 -3.93272 -2.34736 0
M  V30 14536 N 1397.87 -3.9486 -2.42157 0
M  V30 14537 C 1398.6 -4.94698 -2.89933 0
M  V30 14538 N 1398.1 -6.04934 -3.37678 0
M  V30 14539 N 1399.89 -4.82083 -2.89055 0
M  V30 14540 H 1392.04 -2.12144 -0.104294 0
M  V30 14541 H 1394.31 -0.941725 -0.108895 0
M  V30 14542 H 1394.01 -3.376 -0.985868 0
M  V30 14543 H 1393.89 -2.72335 -2.60986 0
M  V30 14544 H 1396.27 -1.76155 -2.36756 0
M  V30 14545 H 1396.36 -2.44889 -0.739115 0
M  V30 14546 H 1396 -4.77607 -1.72784 0
M  V30 14547 H 1395.93 -4.05762 -3.35656 0
M  V30 14548 H 1398.42 -3.15243 -2.08399 0
M  V30 14549 H 1398.73 -6.77036 -3.72616 0
M  V30 14550 H 1397.08 -6.08541 -3.35712 0
M  V30 14551 H 1400.27 -3.9507 -2.51072 0
M  V30 14552 H 1400.44 -5.60039 -3.25975 0
M  V30 14553 N 1393.85 0.973806 -1.23914 0
M  V30 14554 C 1394.81 2.04892 -1.02723 0
M  V30 14555 C 1395.81 1.60795 0.0132972 0
M  V30 14556 O 1397 1.72714 -0.227084 0
M  V30 14557 C 1394.13 3.36341 -0.555667 0
M  V30 14558 H 1395.33 2.25124 -1.98139 0
M  V30 14559 H 1392.88 1.14817 -1.06051 0
M  V30 14560 H 1393.61 3.21799 0.40197 0
M  V30 14561 H 1393.4 3.69689 -1.30661 0
M  V30 14562 H 1394.89 4.15398 -0.428248 0
M  V30 14563 N 1395.33 1.05191 1.17357 0
M  V30 14564 C 1396.57 0.761984 1.87617 0
M  V30 14565 C 1396.9 -0.710976 1.8104 0
M  V30 14566 O 1396.16 -1.53566 1.21309 0
M  V30 14567 C 1396.46 1.18779 3.37085 0
M  V30 14568 C 1396.12 2.66296 3.63864 0
M  V30 14569 C 1394.78 3.06594 3.70882 0
M  V30 14570 C 1397.14 3.61622 3.75339 0
M  V30 14571 C 1394.46 4.41081 3.86865 0
M  V30 14572 C 1396.82 4.95842 3.9284 0
M  V30 14573 C 1395.48 5.35793 3.98097 0
M  V30 14574 H 1394.75 0.27883 0.686538 0
M  V30 14575 H 1397.4 1.31899 1.38834 0
M  V30 14576 H 1395.7 0.549782 3.87923 0
M  V30 14577 H 1397.4 0.940667 3.89811 0
M  V30 14578 H 1393.99 2.34089 3.59027 0
M  V30 14579 H 1398.17 3.31628 3.69238 0
M  V30 14580 H 1393.43 4.71536 3.89183 0
M  V30 14581 H 1397.6 5.696 4.00661 0
M  V30 14582 H 1395.23 6.40009 4.10234 0
M  V30 14583 N 1396.8 -1.33791 0.83293 0
M  V30 14584 C 1397.71 -2.33108 0.264169 0
M  V30 14585 C 1398.73 -1.6308 -0.606694 0
M  V30 14586 O 1399.91 -1.94777 -0.512225 0
M  V30 14587 C 1396.97 -3.42208 -0.556315 0
M  V30 14588 C 1396.03 -4.27966 0.338123 0
M  V30 14589 C 1395.27 -5.31856 -0.443297 0
M  V30 14590 O 1395.49 -5.45234 -1.6756 0
M  V30 14591 O 1394.42 -6.01632 0.179599 0
M  V30 14592 H 1398.25 -2.83602 1.08645 0
M  V30 14593 H 1395.83 -1.37027 0.595307 0
M  V30 14594 H 1397.72 -4.088 -1.02277 0
M  V30 14595 H 1396.39 -2.9394 -1.35575 0
M  V30 14596 H 1395.3 -3.64262 0.852293 0
M  V30 14597 H 1396.63 -4.79701 1.10217 0
M  V30 14598 N 1398.28 -0.588812 -1.46187 0
M  V30 14599 C 1399.51 -0.0806571 -2.07243 0
M  V30 14600 C 1399.93 1.21766 -1.43369 0
M  V30 14601 O 1399.29 1.73694 -0.51964 0
M  V30 14602 C 1399.34 0.065267 -3.60541 0
M  V30 14603 O 1398.44 1.12026 -3.96893 0
M  V30 14604 H 1397.78 -0.0655622 -0.660755 0
M  V30 14605 H 1400.31 -0.813489 -1.87733 0
M  V30 14606 H 1400.32 0.269494 -4.07109 0
M  V30 14607 H 1399 -0.88284 -4.06422 0
M  V30 14608 H 1397.58 0.894 -3.62025 0
M  V30 14609 N 1399.76 1.54172 -0.326923 0
M  V30 14610 C 1400.99 2.05044 0.276508 0
M  V30 14611 C 1401.4 1.20288 1.45521 0
M  V30 14612 O 1400.76 0.234324 1.80989 0
M  V30 14613 C 1400.81 3.54505 0.707714 0
M  V30 14614 O 1400.53 4.36042 -0.424098 0
M  V30 14615 C 1402.03 4.21482 1.3736 0
M  V30 14616 H 1399.25 0.668632 0.0563273 0
M  V30 14617 H 1401.8 1.98929 -0.474087 0
M  V30 14618 H 1399.95 3.60896 1.40828 0
M  V30 14619 H 1400.37 5.24433 -0.0836846 0
M  V30 14620 H 1401.84 5.27501 1.62623 0
M  V30 14621 H 1402.32 3.72802 2.32196 0
M  V30 14622 H 1402.92 4.19238 0.715526 0
M  V30 14623 N 1401.24 0.0551678 1.57503 0
M  V30 14624 C 1402.17 -0.915714 2.14795 0
M  V30 14625 C 1403.15 -1.32179 1.07065 0
M  V30 14626 O 1404.33 -1.39579 1.35023 0
M  V30 14627 C 1401.46 -2.18916 2.69616 0
M  V30 14628 C 1400.42 -1.92303 3.82366 0
M  V30 14629 C 1399.74 -3.26136 4.23721 0
M  V30 14630 C 1401.04 -1.24146 5.07331 0
M  V30 14631 H 1402.74 -0.438499 2.96171 0
M  V30 14632 H 1400.28 -0.209477 1.42468 0
M  V30 14633 H 1402.24 -2.87239 3.08337 0
M  V30 14634 H 1400.96 -2.6885 1.85437 0
M  V30 14635 H 1399.62 -1.26391 3.44123 0
M  V30 14636 H 1399.27 -3.73879 3.36487 0
M  V30 14637 H 1398.97 -3.09126 4.99715 0
M  V30 14638 H 1400.49 -3.95684 4.65045 0
M  V30 14639 H 1401.91 -1.8251 5.43473 0
M  V30 14640 H 1400.3 -1.17449 5.88494 0
M  V30 14641 H 1401.37 -0.218073 4.84409 0
M  V30 14642 N 1402.72 -1.56081 -0.218252 0
M  V30 14643 C 1403.66 -1.92684 -1.27049 0
M  V30 14644 C 1404.63 -0.784441 -1.46409 0
M  V30 14645 O 1405.82 -1.04062 -1.59924 0
M  V30 14646 C 1402.96 -2.25174 -2.61516 0
M  V30 14647 C 1402.07 -3.52364 -2.49927 0
M  V30 14648 C 1401.21 -3.74286 -3.7694 0
M  V30 14649 C 1400.25 -4.94979 -3.60087 0
M  V30 14650 N 1399.38 -5.13273 -4.79057 0
M  V30 14651 H 1404.22 -2.82406 -0.951347 0
M  V30 14652 H 1401.76 -1.39774 -0.458441 0
M  V30 14653 H 1403.72 -2.42022 -3.39825 0
M  V30 14654 H 1402.35 -1.38621 -2.9152 0
M  V30 14655 H 1401.4 -3.43691 -1.63036 0
M  V30 14656 H 1402.71 -4.40826 -2.33397 0
M  V30 14657 H 1401.87 -3.91248 -4.63692 0
M  V30 14658 H 1400.6 -2.84111 -3.96399 0
M  V30 14659 H 1399.61 -4.77963 -2.71719 0
M  V30 14660 H 1400.83 -5.86641 -3.42095 0
M  V30 14661 H 1398.78 -4.26041 -4.98824 0
M  V30 14662 H 1398.7 -5.95873 -4.65265 0
M  V30 14663 H 1399.97 -5.34673 -5.67226 0
M  V30 14664 N 1404.2 0.485086 -1.49949 0
M  V30 14665 C 1405.42 1.26648 -1.64241 0
M  V30 14666 C 1405.85 1.85359 -0.319939 0
M  V30 14667 O 1405.2 1.66628 0.714487 0
M  V30 14668 C 1405.25 2.36109 -2.72552 0
M  V30 14669 O 1404.36 3.40387 -2.32832 0
M  V30 14670 H 1403.7 0.373208 -0.549192 0
M  V30 14671 H 1406.23 0.578929 -1.96239 0
M  V30 14672 H 1406.24 2.81634 -2.95205 0
M  V30 14673 H 1404.91 1.92745 -3.6854 0
M  V30 14674 H 1403.49 3.0067 -2.20571 0
M  V30 14675 N 1405.67 1.39291 0.737279 0
M  V30 14676 C 1406.92 1.37597 1.49795 0
M  V30 14677 C 1407.27 -0.0289024 1.92378 0
M  V30 14678 O 1406.57 -0.994964 1.63741 0
M  V30 14679 C 1406.76 2.28043 2.75193 0
M  V30 14680 C 1406.59 3.77184 2.44871 0
M  V30 14681 C 1405.36 4.46123 2.37281 0
M  V30 14682 C 1407.56 4.69219 2.10565 0
M  V30 14683 N 1405.54 5.80612 1.99406 0
M  V30 14684 C 1406.91 5.92342 1.83115 0
M  V30 14685 C 1408.97 4.57263 1.97014 0
M  V30 14686 C 1407.67 7.04845 1.4348 0
M  V30 14687 C 1409.7 5.69686 1.58781 0
M  V30 14688 C 1409.06 6.9188 1.32215 0
M  V30 14689 H 1405.16 0.558776 0.547077 0
M  V30 14690 H 1407.74 1.74821 0.857065 0
M  V30 14691 H 1405.91 1.92981 3.37065 0
M  V30 14692 H 1407.64 2.17358 3.41376 0
M  V30 14693 H 1404.4 3.99535 2.543 0
M  V30 14694 H 1404.82 6.51779 1.83068 0
M  V30 14695 H 1409.46 3.63329 2.16222 0
M  V30 14696 H 1407.18 7.98682 1.23013 0
M  V30 14697 H 1410.77 5.62422 1.48905 0
M  V30 14698 H 1409.65 7.77397 1.03073 0
M  V30 14699 N 1407.15 -0.967221 1.24429 0
M  V30 14700 C 1408.06 -2.09582 1.05417 0
M  V30 14701 C 1409.08 -1.73999 -0.00516127 0
M  V30 14702 O 1410.25 -2.00472 0.193115 0
M  V30 14703 C 1407.32 -3.40327 0.661697 0
M  V30 14704 C 1406.38 -3.89854 1.79756 0
M  V30 14705 C 1405.61 -5.1436 1.42372 0
M  V30 14706 O 1405.84 -5.69536 0.313754 0
M  V30 14707 O 1404.77 -5.58283 2.24952 0
M  V30 14708 H 1408.6 -2.28517 2.00034 0
M  V30 14709 H 1406.18 -1.07978 1.03253 0
M  V30 14710 H 1408.06 -4.18943 0.454369 0
M  V30 14711 H 1406.74 -3.22691 -0.255348 0
M  V30 14712 H 1405.64 -3.12297 2.05964 0
M  V30 14713 H 1406.98 -4.11967 2.69339 0
M  V30 14714 N 1408.63 -1.05812 -1.16797 0
M  V30 14715 C 1409.91 -0.685551 -1.83193 0
M  V30 14716 C 1410.29 0.833539 -1.93947 0
M  V30 14717 O 1409.63 1.74193 -1.47882 0
M  V30 14718 C 1409.84 -1.38183 -3.20479 0
M  V30 14719 C 1411.19 -1.52389 -3.96311 0
M  V30 14720 O 1412.22 -1.34134 -3.2998 0
M  V30 14721 O 1411.08 -1.82297 -5.15199 0
M  V30 14722 H 1408.17 -0.242095 -0.790771 0
M  V30 14723 H 1410.72 -1.15809 -1.24041 0
M  V30 14724 H 1409.49 -2.41791 -3.07657 0
M  V30 14725 H 1409.11 -0.899043 -3.87302 0
M  V30 14726 N 1410.11 1.33347 -0.840014 0
M  V30 14727 C 1411.05 2.29191 -0.272048 0
M  V30 14728 C 1412.02 1.54383 0.612787 0
M  V30 14729 O 1413.21 1.82676 0.550812 0
M  V30 14730 C 1410.35 3.40755 0.545901 0
M  V30 14731 C 1409.46 4.30471 -0.363084 0
M  V30 14732 C 1408.6 5.29151 0.466078 0
M  V30 14733 C 1407.64 6.10508 -0.441225 0
M  V30 14734 N 1406.77 7.01228 0.349877 0
M  V30 14735 H 1411.61 2.77166 -1.09467 0
M  V30 14736 H 1409.15 1.36379 -0.551284 0
M  V30 14737 H 1411.11 4.04142 1.03562 0
M  V30 14738 H 1409.74 2.9397 1.33348 0
M  V30 14739 H 1408.79 3.67795 -0.971119 0
M  V30 14740 H 1410.1 4.87406 -1.06002 0
M  V30 14741 H 1409.26 5.98072 1.01957 0
M  V30 14742 H 1408 4.72796 1.19644 0
M  V30 14743 H 1407 5.40504 -1.00672 0
M  V30 14744 H 1408.23 6.68946 -1.16997 0
M  V30 14745 H 1406.17 6.4732 1.0636 0
M  V30 14746 H 1406.09 7.5545 -0.288317 0
M  V30 14747 H 1407.36 7.74453 0.885573 0
M  V30 14748 N 1411.59 0.596556 1.45873 0
M  V30 14749 C 1412.52 -0.166704 2.28593 0
M  V30 14750 C 1413.53 -0.84231 1.39316 0
M  V30 14751 O 1414.72 -0.709548 1.63792 0
M  V30 14752 C 1411.82 -1.25641 3.1475 0
M  V30 14753 C 1410.99 -0.67006 4.32237 0
M  V30 14754 C 1410.05 -1.64924 4.99686 0
M  V30 14755 O 1409.08 -1.17986 5.56838 0
M  V30 14756 N 1410.28 -2.98355 4.9796 0
M  V30 14757 H 1413.04 0.543045 2.94739 0
M  V30 14758 H 1410.61 0.435274 1.55939 0
M  V30 14759 H 1412.6 -1.91104 3.56737 0
M  V30 14760 H 1411.17 -1.86883 2.50586 0
M  V30 14761 H 1410.39 0.162375 3.93865 0
M  V30 14762 H 1411.68 -0.258345 5.08144 0
M  V30 14763 H 1411.07 -3.39101 4.52799 0
M  V30 14764 H 1409.63 -3.5927 5.43846 0
M  V30 14765 N 1413.06 -1.53996 0.335095 0
M  V30 14766 C 1414.01 -2.24736 -0.52559 0
M  V30 14767 C 1414.98 -1.24244 -1.10239 0
M  V30 14768 O 1416.17 -1.52955 -1.14058 0
M  V30 14769 C 1413.31 -3.01732 -1.67487 0
M  V30 14770 C 1412.42 -4.17062 -1.1262 0
M  V30 14771 C 1411.55 -4.81563 -2.2421 0
M  V30 14772 C 1410.59 -5.88977 -1.6665 0
M  V30 14773 N 1409.73 -6.47293 -2.71949 0
M  V30 14774 H 1414.57 -2.97881 0.0842008 0
M  V30 14775 H 1412.11 -1.47003 0.0533254 0
M  V30 14776 H 1414.06 -3.44626 -2.35135 0
M  V30 14777 H 1412.69 -2.30899 -2.25578 0
M  V30 14778 H 1411.75 -3.78869 -0.340917 0
M  V30 14779 H 1413.06 -4.94346 -0.665113 0
M  V30 14780 H 1412.21 -5.27486 -2.9974 0
M  V30 14781 H 1410.95 -4.03685 -2.73659 0
M  V30 14782 H 1409.96 -5.42446 -0.89623 0
M  V30 14783 H 1411.18 -6.68758 -1.18064 0
M  V30 14784 H 1409.13 -5.72283 -3.20668 0
M  V30 14785 H 1409.04 -7.20024 -2.30438 0
M  V30 14786 H 1410.31 -6.97869 -3.47273 0
M  V30 14787 N 1414.54 -0.0635198 -1.57472 0
M  V30 14788 C 1415.78 0.611234 -1.95047 0
M  V30 14789 C 1416.15 1.67274 -0.94251 0
M  V30 14790 O 1417.35 2.40246 -1.20563 0
M  V30 14791 C 1415.62 1.18071 -3.37334 0
M  V30 14792 S 1417.18 1.87174 -3.96877 0
M  V30 14793 H 1413.99 0.20037 -0.682182 0
M  V30 14794 H 1416.6 -0.135403 -1.95031 0
M  V30 14795 H 1415.3 0.396176 -4.08483 0
M  V30 14796 H 1414.83 1.96388 -3.40874 0
M  V30 14797 H 1416.85 3.15346 -3.83107 0
M  V30 14798 N 1416.02 1.56195 0.209972 0
M  V30 14799 C 1416.93 1.96539 1.28101 0
M  V30 14800 C 1417.95 0.870858 1.50639 0
M  V30 14801 O 1419.12 1.17539 1.63544 0
M  V30 14802 C 1416.19 2.28392 2.60841 0
M  V30 14803 C 1415.25 3.51474 2.46505 0
M  V30 14804 C 1414.48 3.81798 3.72915 0
M  V30 14805 O 1414.7 3.13627 4.76439 0
M  V30 14806 O 1413.64 4.75264 3.69334 0
M  V30 14807 H 1417.46 2.87838 0.968671 0
M  V30 14808 H 1415.05 1.43556 0.413777 0
M  V30 14809 H 1416.93 2.50022 3.39215 0
M  V30 14810 H 1415.61 1.40264 2.91732 0
M  V30 14811 H 1414.51 3.35109 1.66292 0
M  V30 14812 H 1415.85 4.40021 2.2055 0
M  V30 14813 N 1417.5 -0.477127 1.50204 0
M  V30 14814 C 1418.43 -1.58405 1.71552 0
M  V30 14815 C 1419.41 -1.60463 0.564413 0
M  V30 14816 O 1420.59 -1.76826 0.802893 0
M  V30 14817 C 1417.72 -2.96765 1.8041 0
M  V30 14818 C 1416.68 -3.09573 2.95548 0
M  V30 14819 C 1416 -4.49522 2.89542 0
M  V30 14820 C 1417.3 -2.87356 4.36147 0
M  V30 14821 H 1419 -1.40792 2.64231 0
M  V30 14822 H 1416.54 -0.675886 1.27153 0
M  V30 14823 H 1418.5 -3.74125 1.9393 0
M  V30 14824 H 1417.22 -3.1552 0.843489 0
M  V30 14825 H 1415.88 -2.34645 2.81669 0
M  V30 14826 H 1415.53 -4.65186 1.91339 0
M  V30 14827 H 1415.23 -4.59028 3.66834 0
M  V30 14828 H 1416.75 -5.28909 3.05102 0
M  V30 14829 H 1418.17 -3.54469 4.50583 0
M  V30 14830 H 1416.56 -3.08313 5.14843 0
M  V30 14831 H 1417.63 -1.83264 4.48935 0
M  V30 14832 N 1418.98 -1.3968 -0.729882 0
M  V30 14833 C 1420.39 -1.33184 -1.30839 0
M  V30 14834 C 1420.74 0.00141129 -1.962 0
M  V30 14835 O 1419.86 0.903523 -1.96635 0
M  V30 14836 C 1420.46 -2.41211 -2.37913 0
M  V30 14837 C 1419.02 -2.3822 -2.91424 0
M  V30 14838 C 1418.16 -2.22832 -1.65049 0
M  V30 14839 H 1421.12 -1.49694 -0.527023 0
M  V30 14840 H 1421.14 -2.08294 -3.18424 0
M  V30 14841 H 1420.65 -3.38234 -1.90313 0
M  V30 14842 H 1418.75 -1.4485 -3.43292 0
M  V30 14843 H 1418.86 -3.33271 -3.44191 0
M  V30 14844 H 1417.23 -1.70095 -1.89578 0
M  V30 14845 H 1418.01 -3.21832 -1.19494 0
M  V30 14846 N 1420.45 0.960609 -1.2494 0
M  V30 14847 C 1421.87 1.23057 -1.01633 0
M  V30 14848 C 1422.07 1.99676 0.270527 0
M  V30 14849 O 1421.13 2.32503 0.984823 0
M  V30 14850 C 1422.44 2.01078 -2.2358 0
M  V30 14851 C 1423.99 2.14144 -2.28279 0
M  V30 14852 C 1424.46 2.95563 -3.49867 0
M  V30 14853 N 1425.95 3.03143 -3.50227 0
M  V30 14854 C 1426.69 3.66518 -4.40967 0
M  V30 14855 N 1426.18 4.31553 -5.41972 0
M  V30 14856 N 1427.98 3.636 -4.28663 0
M  V30 14857 H 1420.13 0.447876 -2.07624 0
M  V30 14858 H 1422.39 0.260581 -0.911483 0
M  V30 14859 H 1422.1 1.52172 -3.17075 0
M  V30 14860 H 1421.97 3.01797 -2.2627 0
M  V30 14861 H 1424.36 2.6225 -1.35311 0
M  V30 14862 H 1424.44 1.1275 -2.29611 0
M  V30 14863 H 1424.08 2.48149 -4.43153 0
M  V30 14864 H 1424.01 3.9717 -3.45779 0
M  V30 14865 H 1426.5 2.56888 -2.77159 0
M  V30 14866 H 1426.82 4.7775 -6.07433 0
M  V30 14867 H 1425.16 4.302 -5.45851 0
M  V30 14868 H 1428.35 3.11973 -3.48985 0
M  V30 14869 H 1428.53 4.12706 -4.99578 0
M  V30 14870 N 1421.93 1.0643 1.16234 0
M  V30 14871 C 1423.34 0.806012 1.68405 0
M  V30 14872 C 1423.69 -0.670197 1.84398 0
M  V30 14873 O 1422.82 -1.51975 1.54054 0
M  V30 14874 C 1423.41 1.45654 3.05893 0
M  V30 14875 C 1421.97 1.24599 3.55179 0
M  V30 14876 C 1421.12 1.53216 2.31128 0
M  V30 14877 H 1424.07 1.22759 1.00578 0
M  V30 14878 H 1424.09 0.872616 3.70359 0
M  V30 14879 H 1423.6 2.53092 2.94221 0
M  V30 14880 H 1421.71 0.191407 3.72108 0
M  V30 14881 H 1421.82 1.95967 4.37188 0
M  V30 14882 H 1420.18 0.952755 2.36209 0
M  V30 14883 H 1420.97 2.61816 2.22052 0
M  V30 14884 N 1423.41 -1.329 0.847073 0
M  V30 14885 C 1424.82 -1.79813 0.502394 0
M  V30 14886 C 1425.17 -1.70017 -0.979218 0
M  V30 14887 O 1424.3 -1.25427 -1.76344 0
M  V30 14888 C 1424.89 -3.26485 0.905154 0
M  V30 14889 C 1423.45 -3.71383 0.612489 0
M  V30 14890 C 1422.6 -2.54157 1.10903 0
M  V30 14891 H 1425.55 -1.20306 1.035 0
M  V30 14892 H 1425.57 -3.79872 0.218476 0
M  V30 14893 H 1425.08 -3.33583 1.98353 0
M  V30 14894 H 1423.18 -3.69806 -0.45548 0
M  V30 14895 H 1423.3 -4.64507 1.17347 0
M  V30 14896 H 1421.66 -2.49134 0.529576 0
M  V30 14897 H 1422.44 -2.64013 2.19435 0
M  V30 14898 N 1424.89 -0.604284 -1.45555 0
M  V30 14899 C 1426.11 -0.102634 -2.07146 0
M  V30 14900 C 1426.54 1.20239 -1.44652 0
M  V30 14901 O 1425.9 1.73133 -0.538033 0
M  V30 14902 C 1425.94 0.0270231 -3.6059 0
M  V30 14903 O 1425.05 1.0781 -3.98059 0
M  V30 14904 H 1424.39 -0.0725667 -0.660023 0
M  V30 14905 H 1426.92 -0.833355 -1.86859 0
M  V30 14906 H 1426.93 0.226299 -4.07372 0
M  V30 14907 H 1425.6 -0.925896 -4.05463 0
M  V30 14908 H 1424.18 0.855552 -3.62953 0
M  V30 14909 N 1426.37 1.53816 -0.343257 0
M  V30 14910 C 1427.61 2.0282 0.253695 0
M  V30 14911 C 1427.97 1.22564 1.47791 0
M  V30 14912 O 1429.17 1.61464 2.14902 0
M  V30 14913 C 1427.44 3.5298 0.560361 0
M  V30 14914 S 1429 4.23889 1.13416 0
M  V30 14915 H 1425.82 0.706976 0.0755344 0
M  V30 14916 H 1428.42 1.89492 -0.480951 0
M  V30 14917 H 1427.13 4.09002 -0.338451 0
M  V30 14918 H 1426.66 3.70426 1.32468 0
M  V30 14919 H 1428.67 4.33192 2.4199 0
M  V30 14920 N 1427.84 0.0718701 1.57436 0
M  V30 14921 C 1429.07 -0.609701 1.98236 0
M  V30 14922 C 1429.49 -1.6235 0.949959 0
M  V30 14923 O 1428.85 -1.81103 -0.0844281 0
M  V30 14924 C 1428.9 -1.2547 3.38068 0
M  V30 14925 O 1428 -2.37055 3.37459 0
M  V30 14926 H 1427.35 -0.15679 0.645223 0
M  V30 14927 H 1429.88 0.146407 2.04076 0
M  V30 14928 H 1429.89 -1.60152 3.75254 0
M  V30 14929 H 1428.56 -0.511842 4.12738 0
M  V30 14930 H 1427.14 -2.04165 3.12043 0
M  V30 14931 N 1429.32 -1.56304 -0.201686 0
M  V30 14932 C 1430.25 -1.97046 -1.25281 0
M  V30 14933 C 1431.23 -0.841458 -1.47829 0
M  V30 14934 O 1432.42 -1.10529 -1.59678 0
M  V30 14935 C 1429.55 -2.30429 -2.59845 0
M  V30 14936 C 1428.5 -3.46006 -2.5192 0
M  V30 14937 C 1427.83 -3.65047 -3.90697 0
M  V30 14938 C 1429.13 -4.80391 -2.04992 0
M  V30 14939 H 1430.82 -2.85099 -0.914272 0
M  V30 14940 H 1428.37 -1.37166 -0.438359 0
M  V30 14941 H 1430.32 -2.57525 -3.33555 0
M  V30 14942 H 1429.05 -1.39251 -2.95426 0
M  V30 14943 H 1427.7 -3.18991 -1.80667 0
M  V30 14944 H 1427.35 -2.71211 -4.2362 0
M  V30 14945 H 1427.05 -4.42796 -3.86271 0
M  V30 14946 H 1428.58 -3.94512 -4.66039 0
M  V30 14947 H 1429.99 -5.06561 -2.68456 0
M  V30 14948 H 1428.39 -5.61563 -2.11582 0
M  V30 14949 H 1429.46 -4.74416 -1.00288 0
M  V30 14950 N 1430.8 0.469154 -1.50455 0
M  V30 14951 C 1431.75 1.56456 -1.65848 0
M  V30 14952 C 1432.73 1.52501 -0.513048 0
M  V30 14953 O 1433.93 1.59492 -0.767542 0
M  V30 14954 C 1431.06 2.94887 -1.75774 0
M  V30 14955 C 1430.14 3.03719 -2.96 0
M  V30 14956 N 1430.53 2.8236 -4.1965 0
M  V30 14957 C 1428.83 3.34856 -2.94597 0
M  V30 14958 C 1429.53 2.96208 -5.00635 0
M  V30 14959 N 1428.51 3.26494 -4.3463 0
M  V30 14960 H 1432.31 1.38646 -2.59142 0
M  V30 14961 H 1429.82 0.675918 -1.47666 0
M  V30 14962 H 1431.82 3.73652 -1.84905 0
M  V30 14963 H 1430.48 3.13743 -0.836396 0
M  V30 14964 H 1431.49 2.57904 -4.49117 0
M  V30 14965 H 1428.17 3.59687 -2.1197 0
M  V30 14966 H 1429.56 2.83918 -6.08966 0
M  V30 14967 N 1432.28 1.40065 0.722464 0
M  V30 14968 C 1433.69 1.33876 1.30131 0
M  V30 14969 C 1434.04 0.00899369 1.96198 0
M  V30 14970 O 1433.17 -0.893082 1.97112 0
M  V30 14971 C 1433.76 2.42469 2.36631 0
M  V30 14972 C 1432.32 2.39762 2.90157 0
M  V30 14973 C 1431.47 2.23704 1.63865 0
M  V30 14974 H 1434.42 1.49971 0.519077 0
M  V30 14975 H 1434.44 2.0998 3.17315 0
M  V30 14976 H 1433.95 3.39239 1.88517 0
M  V30 14977 H 1432.05 1.46669 3.42519 0
M  V30 14978 H 1432.16 3.35092 3.42419 0
M  V30 14979 H 1430.53 1.71098 1.88674 0
M  V30 14980 H 1431.31 3.22462 1.17785 0
M  V30 14981 N 1433.76 -0.95397 1.25448 0
M  V30 14982 C 1434.67 -2.08452 1.07634 0
M  V30 14983 C 1435.68 -1.73995 0.013294 0
M  V30 14984 O 1436.86 -2.00256 0.214367 0
M  V30 14985 C 1433.92 -3.39606 0.697756 0
M  V30 14986 C 1432.99 -3.87926 1.83881 0
M  V30 14987 C 1432.22 -5.12821 1.47819 0
M  V30 14988 O 1432.44 -5.69172 0.374143 0
M  V30 14989 O 1431.38 -5.55866 2.3086 0
M  V30 14990 H 1435.2 -2.26382 2.02447 0
M  V30 14991 H 1432.79 -1.06877 1.04392 0
M  V30 14992 H 1434.67 -4.18438 0.498778 0
M  V30 14993 H 1433.34 -3.22944 -0.221108 0
M  V30 14994 H 1432.25 -3.10095 2.09265 0
M  V30 14995 H 1433.58 -4.09087 2.73694 0
M  V30 14996 N 1435.24 -1.07045 -1.15668 0
M  V30 14997 C 1436.17 -0.632171 -2.19269 0
M  V30 14998 C 1437.15 0.348973 -1.58811 0
M  V30 14999 O 1438.33 0.256137 -1.86752 0
M  V30 15000 C 1435.46 0.0721491 -3.38623 0
M  V30 15001 C 1434.5 -0.866947 -4.17596 0
M  V30 15002 S 1435.34 -2.36628 -4.80382 0
M  V30 15003 C 1436.49 -1.67367 -6.03108 0
M  V30 15004 H 1436.73 -1.50986 -2.56106 0
M  V30 15005 H 1434.26 -0.884123 -1.2658 0
M  V30 15006 H 1436.22 0.472272 -4.07774 0
M  V30 15007 H 1434.88 0.926138 -3.00136 0
M  V30 15008 H 1434.07 -0.320814 -5.02978 0
M  V30 15009 H 1433.67 -1.20731 -3.53977 0
M  V30 15010 H 1435.96 -0.983606 -6.70322 0
M  V30 15011 H 1436.91 -2.50569 -6.62284 0
M  V30 15012 H 1437.32 -1.15299 -5.526 0
M  V30 15013 N 1436.71 1.32449 -0.85411 0
M  V30 15014 C 1437.64 2.31383 -0.313697 0
M  V30 15015 C 1438.62 1.59656 0.586858 0
M  V30 15016 O 1439.81 1.87459 0.507216 0
M  V30 15017 C 1436.94 3.43693 0.499235 0
M  V30 15018 C 1435.89 4.26899 -0.306839 0
M  V30 15019 C 1435.22 5.30966 0.630795 0
M  V30 15020 C 1436.52 4.99318 -1.53229 0
M  V30 15021 H 1438.21 2.76832 -1.14037 0
M  V30 15022 H 1435.76 1.33091 -0.549805 0
M  V30 15023 H 1437.71 4.11944 0.887709 0
M  V30 15024 H 1436.44 2.96971 1.35926 0
M  V30 15025 H 1435.1 3.60294 -0.677061 0
M  V30 15026 H 1434.74 4.80498 1.48765 0
M  V30 15027 H 1434.44 5.87522 0.0954635 0
M  V30 15028 H 1435.97 6.0208 1.01646 0
M  V30 15029 H 1437.38 5.60253 -1.21614 0
M  V30 15030 H 1435.78 5.65596 -2.00552 0
M  V30 15031 H 1436.85 4.27213 -2.29383 0
M  V30 15032 N 1438.19 0.611994 1.45232 0
M  V30 15033 C 1439.42 0.113618 2.07089 0
M  V30 15034 C 1439.84 -1.1947 1.45288 0
M  V30 15035 O 1439.2 -1.72845 0.547207 0
M  V30 15036 C 1439.25 -0.00789978 3.60599 0
M  V30 15037 O 1438.35 -1.05697 3.98625 0
M  V30 15038 H 1437.69 0.076066 0.659629 0
M  V30 15039 H 1440.22 0.843253 1.86415 0
M  V30 15040 H 1440.23 -0.204692 4.07486 0
M  V30 15041 H 1438.91 0.947386 4.04966 0
M  V30 15042 H 1437.48 -0.836291 3.63401 0
M  V30 15043 N 1439.67 -1.53632 0.351409 0
M  V30 15044 C 1440.58 -2.2899 -0.509985 0
M  V30 15045 C 1441.6 -1.34403 -1.10507 0
M  V30 15046 O 1442.77 -1.67448 -1.11906 0
M  V30 15047 C 1439.84 -3.05392 -1.64124 0
M  V30 15048 C 1438.9 -4.15619 -1.07514 0
M  V30 15049 C 1438.13 -4.88369 -2.15248 0
M  V30 15050 O 1438.35 -4.60854 -3.3611 0
M  V30 15051 O 1437.29 -5.74636 -1.79101 0
M  V30 15052 H 1441.11 -3.03526 0.10283 0
M  V30 15053 H 1438.7 -1.48947 0.116214 0
M  V30 15054 H 1440.58 -3.53146 -2.29926 0
M  V30 15055 H 1439.26 -2.33705 -2.23972 0
M  V30 15056 H 1438.16 -3.7215 -0.381421 0
M  V30 15057 H 1439.5 -4.8943 -0.521413 0
M  V30 15058 N 1441.15 -0.0802183 -1.57396 0
M  V30 15059 C 1442.06 0.898597 -2.16708 0
M  V30 15060 C 1443.07 1.321 -1.1325 0
M  V30 15061 O 1444.25 1.39197 -1.45554 0
M  V30 15062 C 1441.31 2.14501 -2.72379 0
M  V30 15063 C 1440.38 1.77822 -3.9074 0
M  V30 15064 C 1439.61 2.96521 -4.43747 0
M  V30 15065 O 1439.83 4.10797 -3.9573 0
M  V30 15066 O 1438.77 2.75849 -5.34968 0
M  V30 15067 H 1442.59 0.424027 -3.00725 0
M  V30 15068 H 1440.18 0.14332 -1.48711 0
M  V30 15069 H 1442.06 2.87575 -3.08024 0
M  V30 15070 H 1440.73 2.61039 -1.91416 0
M  V30 15071 H 1439.64 1.01974 -3.59934 0
M  V30 15072 H 1440.97 1.36059 -4.73021 0
M  V30 15073 N 1442.63 1.56409 0.193394 0
M  V30 15074 C 1443.54 1.97886 1.26009 0
M  V30 15075 C 1444.55 0.886786 1.49707 0
M  V30 15076 O 1445.73 1.19267 1.62288 0
M  V30 15077 C 1442.79 2.31145 2.58404 0
M  V30 15078 C 1441.85 3.54069 2.42763 0
M  V30 15079 C 1441.09 3.85732 3.68845 0
M  V30 15080 O 1441.31 3.18662 4.73086 0
M  V30 15081 O 1440.24 4.79155 3.64272 0
M  V30 15082 H 1444.07 2.88849 0.938087 0
M  V30 15083 H 1441.65 1.43987 0.398528 0
M  V30 15084 H 1443.54 2.53606 3.36544 0
M  V30 15085 H 1442.21 1.4335 2.90228 0
M  V30 15086 H 1441.12 3.36854 1.62728 0
M  V30 15087 H 1442.45 4.42335 2.15871 0
M  V30 15088 N 1444.1 -0.461169 1.50702 0
M  V30 15089 C 1445.07 -1.54032 1.69725 0
M  V30 15090 C 1446.07 -1.50445 0.567707 0
M  V30 15091 O 1447.26 -1.52889 0.834901 0
M  V30 15092 C 1444.39 -2.93642 1.73168 0
M  V30 15093 H 1445.58 -1.38478 2.66015 0
M  V30 15094 H 1443.13 -0.688235 1.40332 0
M  V30 15095 H 1443.87 -3.14629 0.786078 0
M  V30 15096 H 1443.65 -2.97652 2.55236 0
M  V30 15097 H 1445.14 -3.71972 1.89807 0
M  V30 15098 N 1445.58 -1.40446 -0.715026 0
M  V30 15099 C 1446.81 -1.4207 -1.50412 0
M  V30 15100 C 1447.22 -0.0205547 -1.88789 0
M  V30 15101 O 1446.58 0.955635 -1.55479 0
M  V30 15102 C 1446.63 -2.3119 -2.77909 0
M  V30 15103 O 1446.35 -3.65754 -2.41154 0
M  V30 15104 C 1447.85 -2.41412 -3.718 0
M  V30 15105 H 1445.07 -0.484554 -0.464164 0
M  V30 15106 H 1447.62 -1.84504 -0.881964 0
M  V30 15107 H 1445.77 -1.92117 -3.36407 0
M  V30 15108 H 1446.19 -4.13091 -3.23197 0
M  V30 15109 H 1447.66 -3.07976 -4.58099 0
M  V30 15110 H 1448.14 -1.43934 -4.14945 0
M  V30 15111 H 1448.74 -2.81039 -3.19213 0
M  V30 15112 N 1447.06 0.947303 -1.25952 0
M  V30 15113 C 1447.99 2.0487 -1.02767 0
M  V30 15114 C 1449 1.62797 0.00985984 0
M  V30 15115 O 1450.19 1.77018 -0.229527 0
M  V30 15116 C 1447.29 3.34682 -0.533048 0
M  V30 15117 C 1446.47 4.05555 -1.63841 0
M  V30 15118 C 1445.53 5.13638 -1.1429 0
M  V30 15119 O 1444.55 5.38682 -1.83876 0
M  V30 15120 N 1445.75 5.80499 0.0119377 0
M  V30 15121 H 1448.52 2.25327 -1.97605 0
M  V30 15122 H 1446.08 1.11636 -1.17256 0
M  V30 15123 H 1448.07 4.04273 -0.185868 0
M  V30 15124 H 1446.64 3.10941 0.321585 0
M  V30 15125 H 1445.86 3.29962 -2.15683 0
M  V30 15126 H 1447.15 4.49661 -2.38081 0
M  V30 15127 H 1446.55 5.62581 0.593212 0
M  V30 15128 H 1445.1 6.51109 0.30009 0
M  V30 15129 N 1448.54 1.07657 1.15099 0
M  V30 15130 C 1449.47 0.643791 2.18931 0
M  V30 15131 C 1450.45 -0.340546 1.58994 0
M  V30 15132 O 1451.63 -0.24623 1.86885 0
M  V30 15133 C 1448.76 -0.0541901 3.38657 0
M  V30 15134 C 1447.81 0.889081 4.1713 0
M  V30 15135 S 1448.64 2.39173 4.79121 0
M  V30 15136 C 1449.8 1.70563 6.02212 0
M  V30 15137 H 1450.03 1.52342 2.55302 0
M  V30 15138 H 1447.56 0.890824 1.2611 0
M  V30 15139 H 1449.52 -0.45064 4.08019 0
M  V30 15140 H 1448.18 -0.910208 3.00623 0
M  V30 15141 H 1447.37 0.347484 5.02801 0
M  V30 15142 H 1446.98 1.22606 3.53332 0
M  V30 15143 H 1449.27 1.01914 6.69791 0
M  V30 15144 H 1450.21 2.54078 6.60946 0
M  V30 15145 H 1450.62 1.18228 5.51981 0
M  V30 15146 N 1450.02 -1.31994 0.861122 0
M  V30 15147 C 1451.29 -1.91699 0.388705 0
M  V30 15148 C 1451.67 -1.78412 -1.12838 0
M  V30 15149 O 1451.02 -1.18625 -1.95296 0
M  V30 15150 C 1451.23 -3.38232 0.860248 0
M  V30 15151 C 1452.58 -4.15355 0.881201 0
M  V30 15152 O 1453.6 -3.46977 0.805313 0
M  V30 15153 O 1452.46 -5.37468 0.98945 0
M  V30 15154 H 1449.56 -0.819017 0.114629 0
M  V30 15155 H 1452.1 -1.40721 0.94845 0
M  V30 15156 H 1450.87 -3.41876 1.9036 0
M  V30 15157 H 1450.5 -3.96625 0.278316 0
M  V30 15158 N 1451.49 -0.619688 -1.44906 0
M  V30 15159 C 1452.43 0.130316 -2.28829 0
M  V30 15160 C 1453.44 0.820039 -1.40639 0
M  V30 15161 O 1454.63 0.683401 -1.649 0
M  V30 15162 C 1451.73 1.20618 -3.16709 0
M  V30 15163 C 1450.9 0.60121 -4.33248 0
M  V30 15164 C 1449.96 1.56954 -5.02247 0
M  V30 15165 O 1448.99 1.09112 -5.58644 0
M  V30 15166 N 1450.19 2.90395 -5.02644 0
M  V30 15167 H 1452.95 -0.589867 -2.93838 0
M  V30 15168 H 1450.51 -0.460028 -1.55227 0
M  V30 15169 H 1452.51 1.85404 -3.59732 0
M  V30 15170 H 1451.08 1.82873 -2.53528 0
M  V30 15171 H 1450.3 -0.225015 -3.93557 0
M  V30 15172 H 1451.58 0.177471 -5.0849 0
M  V30 15173 H 1450.98 3.31855 -4.58136 0
M  V30 15174 H 1449.54 3.50572 -5.49493 0
M  V30 15175 N 1452.97 1.53444 -0.359552 0
M  V30 15176 C 1454.22 2.01166 0.232022 0
M  V30 15177 C 1454.55 1.24699 1.49266 0
M  V30 15178 O 1453.8 0.327164 1.92946 0
M  V30 15179 C 1454.1 3.5273 0.575863 0
M  V30 15180 C 1453.77 4.47027 -0.589746 0
M  V30 15181 C 1452.43 4.72525 -0.909587 0
M  V30 15182 C 1454.78 5.02846 -1.37095 0
M  V30 15183 C 1452.11 5.51096 -2.01271 0
M  V30 15184 C 1454.46 5.82622 -2.46444 0
M  V30 15185 C 1453.13 6.06409 -2.7897 0
M  V30 15186 H 1452.4 0.73612 0.084903 0
M  V30 15187 H 1455.04 1.85105 -0.490771 0
M  V30 15188 H 1453.35 3.66708 1.37959 0
M  V30 15189 H 1455.04 3.87125 1.04573 0
M  V30 15190 H 1451.63 4.27324 -0.330418 0
M  V30 15191 H 1455.82 4.83098 -1.1371 0
M  V30 15192 H 1451.07 5.67747 -2.26877 0
M  V30 15193 H 1455.25 6.24884 -3.07398 0
M  V30 15194 H 1452.88 6.67077 -3.64572 0
M  V30 15195 N 1454.45 0.0885642 1.57351 0
M  V30 15196 C 1455.7 -0.575536 1.93732 0
M  V30 15197 C 1456.02 -1.69126 0.970644 0
M  V30 15198 O 1455.29 -1.95888 0.0215907 0
M  V30 15199 H 1453.87 -0.215592 0.715213 0
M  V30 15200 H 1456.53 0.150362 1.94319 0
M  V30 15201 H 1455.63 -0.989979 2.95983 0
M  V30 15202 N 1455.93 -1.56509 -0.185096 0
M  V30 15203 C 1456.86 -1.91878 -1.25361 0
M  V30 15204 C 1457.87 -0.810443 -1.41194 0
M  V30 15205 O 1459.06 -1.08887 -1.41442 0
M  V30 15206 C 1456.16 -2.14433 -2.62434 0
M  V30 15207 C 1455.34 -3.45618 -2.6808 0
M  V30 15208 C 1454.39 -3.57165 -3.86419 0
M  V30 15209 O 1453.42 -4.29904 -3.73056 0
M  V30 15210 N 1454.62 -2.90993 -5.02298 0
M  V30 15211 H 1457.39 -2.84133 -0.953328 0
M  V30 15212 H 1454.95 -1.57498 -0.374955 0
M  V30 15213 H 1456.94 -2.19437 -3.40044 0
M  V30 15214 H 1455.51 -1.28629 -2.84909 0
M  V30 15215 H 1454.73 -3.52394 -1.76669 0
M  V30 15216 H 1456.02 -4.31968 -2.68851 0
M  V30 15217 H 1455.42 -2.31743 -5.16054 0
M  V30 15218 H 1453.97 -3.01611 -5.77819 0
M  V30 15219 N 1457.41 0.45317 -1.50944 0
M  V30 15220 C 1458.37 1.5313 -1.7054 0
M  V30 15221 C 1459.37 1.50142 -0.575678 0
M  V30 15222 O 1460.56 1.52444 -0.842997 0
M  V30 15223 C 1457.69 2.92719 -1.74723 0
M  V30 15224 H 1458.88 1.37066 -2.66745 0
M  V30 15225 H 1456.44 0.680783 -1.40695 0
M  V30 15226 H 1457.17 3.14208 -0.802753 0
M  V30 15227 H 1456.96 2.96295 -2.56811 0
M  V30 15228 H 1458.45 3.7096 -1.91777 0
M  V30 15229 N 1458.88 1.40823 0.707568 0
M  V30 15230 C 1459.85 1.41464 1.80334 0
M  V30 15231 C 1460.85 0.307143 1.57839 0
M  V30 15232 O 1462.04 0.566444 1.64733 0
M  V30 15233 C 1459.17 1.21426 3.18541 0
M  V30 15234 H 1460.36 2.38998 1.81162 0
M  V30 15235 H 1457.92 1.2679 0.914007 0
M  V30 15236 H 1458.65 0.246847 3.23359 0
M  V30 15237 H 1458.44 2.01657 3.36269 0
M  V30 15238 H 1459.93 1.24681 3.98553 0
M  V30 15239 N 1460.36 -0.94061 1.26453 0
M  V30 15240 C 1461.61 -1.68354 1.11809 0
M  V30 15241 C 1461.93 -1.9203 -0.339037 0
M  V30 15242 O 1461.2 -1.51739 -1.23903 0
M  V30 15243 H 1459.78 -0.623916 0.410777 0
M  V30 15244 H 1462.44 -1.13014 1.58789 0
M  V30 15245 H 1461.54 -2.65706 1.63728 0
M  V30 15246 N 1461.84 -1.08266 -1.14527 0
M  V30 15247 C 1463.09 -0.812661 -1.85805 0
M  V30 15248 C 1463.42 0.659878 -1.82645 0
M  V30 15249 O 1462.69 1.48498 -1.25612 0
M  V30 15250 C 1462.98 -1.33335 -3.34505 0
M  V30 15251 C 1462.83 -2.87113 -3.46246 0
M  V30 15252 C 1464.15 -0.957435 -4.29559 0
M  V30 15253 H 1461.27 -0.296681 -0.674648 0
M  V30 15254 H 1463.91 -1.34203 -1.34497 0
M  V30 15255 H 1462.06 -0.883056 -3.78331 0
M  V30 15256 H 1463.73 -3.40502 -3.11217 0
M  V30 15257 H 1461.98 -3.24845 -2.87504 0
M  V30 15258 H 1462.65 -3.18618 -4.50762 0
M  V30 15259 H 1465.12 -1.3456 -3.93742 0
M  V30 15260 H 1464 -1.34897 -5.32066 0
M  V30 15261 H 1464.26 0.135689 -4.41892 0
M  V30 15262 N 1463.32 1.31536 -0.86811 0
M  V30 15263 C 1464.25 2.31037 -0.33822 0
M  V30 15264 C 1465.23 1.60269 0.569892 0
M  V30 15265 O 1466.42 1.87987 0.487305 0
M  V30 15266 C 1463.55 3.44203 0.462753 0
M  V30 15267 C 1462.5 4.26549 -0.3521 0
M  V30 15268 C 1461.83 5.31605 0.574443 0
M  V30 15269 C 1463.13 4.97665 -1.58516 0
M  V30 15270 H 1464.82 2.75607 -1.16967 0
M  V30 15271 H 1462.37 1.325 -0.56389 0
M  V30 15272 H 1464.32 4.12862 0.843967 0
M  V30 15273 H 1463.04 2.98396 1.32769 0
M  V30 15274 H 1461.7 3.59555 -0.715237 0
M  V30 15275 H 1461.35 4.82048 1.43661 0
M  V30 15276 H 1461.05 5.87591 0.0331436 0
M  V30 15277 H 1462.57 6.03124 0.952541 0
M  V30 15278 H 1463.99 5.58931 -1.27549 0
M  V30 15279 H 1462.38 5.63437 -2.06539 0
M  V30 15280 H 1463.45 4.24756 -2.33902 0
M  V30 15281 N 1464.8 0.627364 1.44575 0
M  V30 15282 C 1466.05 0.127824 2.01295 0
M  V30 15283 C 1466.36 -1.25647 1.49907 0
M  V30 15284 O 1467.57 -1.84982 1.9873 0
M  V30 15285 C 1466.02 0.177775 3.59461 0
M  V30 15286 C 1465.63 1.56315 4.19845 0
M  V30 15287 C 1467.37 -0.265497 4.23669 0
M  V30 15288 C 1465.28 1.56842 5.70223 0
M  V30 15289 H 1464.21 0.0440205 0.752714 0
M  V30 15290 H 1466.86 0.785607 1.65833 0
M  V30 15291 H 1465.24 -0.547038 3.92203 0
M  V30 15292 H 1466.42 2.31125 3.98645 0
M  V30 15293 H 1464.73 1.95019 3.67909 0
M  V30 15294 H 1467.33 -0.281038 5.33961 0
M  V30 15295 H 1467.67 -1.29208 3.95741 0
M  V30 15296 H 1468.21 0.406698 3.95716 0
M  V30 15297 H 1464.94 2.57325 6.0288 0
M  V30 15298 H 1464.46 0.863198 5.93556 0
M  V30 15299 H 1466.14 1.30071 6.33791 0
M  V30 15300 N 1466.28 -1.53251 0.367684 0
M  V30 15301 C 1467.23 -2.22578 -0.494287 0
M  V30 15302 C 1468.21 -1.22175 -1.047 0
M  V30 15303 O 1469.4 -1.47613 -0.976696 0
M  V30 15304 C 1466.53 -3.02007 -1.63238 0
M  V30 15305 C 1465.62 -4.09788 -1.09244 0
M  V30 15306 N 1466.01 -5.05048 -0.275665 0
M  V30 15307 C 1464.31 -4.24532 -1.36705 0
M  V30 15308 C 1465.01 -5.81696 0.0201973 0
M  V30 15309 N 1463.98 -5.40518 -0.577991 0
M  V30 15310 H 1467.78 -2.93583 0.136532 0
M  V30 15311 H 1465.3 -1.61446 0.175813 0
M  V30 15312 H 1467.3 -3.50193 -2.26209 0
M  V30 15313 H 1465.96 -2.32533 -2.26624 0
M  V30 15314 H 1466.97 -5.1783 0.0853053 0
M  V30 15315 H 1463.64 -3.66285 -2.00354 0
M  V30 15316 H 1465.03 -6.68444 0.680622 0
M  V30 15317 N 1467.75 -0.0969077 -1.57302 0
M  V30 15318 C 1468.98 0.578086 -1.99181 0
M  V30 15319 C 1469.4 1.60818 -0.975667 0
M  V30 15320 O 1468.76 1.81215 0.0556054 0
M  V30 15321 C 1468.81 1.20076 -3.40021 0
M  V30 15322 O 1467.91 2.31656 -3.41188 0
M  V30 15323 H 1467.25 0.146506 -0.647636 0
M  V30 15324 H 1469.78 -0.178855 -2.03817 0
M  V30 15325 H 1469.79 1.54162 -3.77754 0
M  V30 15326 H 1468.47 0.446114 -4.135 0
M  V30 15327 H 1467.05 1.99175 -3.15252 0
M  V30 15328 N 1469.23 1.56605 0.176793 0
M  V30 15329 C 1470.48 1.80875 0.892578 0
M  V30 15330 C 1470.79 0.673245 1.83648 0
M  V30 15331 O 1472 0.800732 2.59423 0
M  V30 15332 C 1470.46 3.20481 1.63768 0
M  V30 15333 C 1470.06 4.41885 0.737685 0
M  V30 15334 C 1471.81 3.54048 2.34202 0
M  V30 15335 C 1469.71 5.72512 1.48271 0
M  V30 15336 H 1468.64 0.674476 0.337042 0
M  V30 15337 H 1471.3 1.82922 0.145574 0
M  V30 15338 H 1469.68 3.12736 2.42924 0
M  V30 15339 H 1470.85 4.60797 -0.0165186 0
M  V30 15340 H 1469.17 4.16153 0.143277 0
M  V30 15341 H 1471.76 4.48886 2.90526 0
M  V30 15342 H 1472.11 2.78665 3.09276 0
M  V30 15343 H 1472.64 3.63322 1.61995 0
M  V30 15344 H 1469.38 6.5091 0.774399 0
M  V30 15345 H 1468.9 5.57586 2.21038 0
M  V30 15346 H 1470.58 6.14274 2.03165 0
M  V30 15347 N 1470.71 -0.445159 1.51182 0
M  V30 15348 C 1472.13 -0.781023 1.39184 0
M  V30 15349 C 1472.33 -1.95988 0.468076 0
M  V30 15350 O 1471.38 -2.52374 -0.0796822 0
M  V30 15351 C 1472.69 -1.06874 2.81067 0
M  V30 15352 C 1474.24 -1.17364 2.90163 0
M  V30 15353 C 1474.72 -1.49433 4.32936 0
M  V30 15354 N 1476.21 -1.56373 4.36006 0
M  V30 15355 C 1476.94 -1.82743 5.435 0
M  V30 15356 N 1476.44 -2.06958 6.61166 0
M  V30 15357 N 1478.23 -1.84461 5.30971 0
M  V30 15358 H 1470.38 0.331347 2.098 0
M  V30 15359 H 1472.65 0.0858102 0.944108 0
M  V30 15360 H 1472.35 -0.275306 3.50621 0
M  V30 15361 H 1472.23 -1.99839 3.19913 0
M  V30 15362 H 1474.61 -1.95771 2.20812 0
M  V30 15363 H 1474.69 -0.22318 2.54825 0
M  V30 15364 H 1474.34 -0.715573 5.02834 0
M  V30 15365 H 1474.27 -2.45673 4.65782 0
M  V30 15366 H 1476.76 -1.39595 3.51172 0
M  V30 15367 H 1477.07 -2.26427 7.38885 0
M  V30 15368 H 1475.42 -2.04297 6.64295 0
M  V30 15369 H 1478.61 -1.65057 4.38034 0
M  V30 15370 H 1478.78 -2.04675 6.14827 0
M  V30 15371 N 1472.19 -1.41197 -0.700089 0
M  V30 15372 C 1473.1 -1.45038 -1.84394 0
M  V30 15373 C 1474.11 -0.34141 -1.70618 0
M  V30 15374 O 1475.29 -0.588428 -1.92612 0
M  V30 15375 C 1472.35 -1.32611 -3.20336 0
M  V30 15376 C 1471.42 -2.53784 -3.46254 0
M  V30 15377 C 1470.65 -2.4194 -4.75711 0
M  V30 15378 O 1470.87 -1.44153 -5.51884 0
M  V30 15379 O 1469.81 -3.31613 -5.02311 0
M  V30 15380 H 1473.63 -2.41531 -1.8411 0
M  V30 15381 H 1471.22 -1.22686 -0.852558 0
M  V30 15382 H 1473.1 -1.27947 -4.01507 0
M  V30 15383 H 1471.77 -0.392309 -3.21314 0
M  V30 15384 H 1470.68 -2.64024 -2.65032 0
M  V30 15385 H 1472.01 -3.45977 -3.50087 0
M  V30 15386 N 1473.67 0.933891 -1.2695 0
M  V30 15387 C 1474.91 1.67539 -1.1231 0
M  V30 15388 C 1475.23 1.92765 0.331788 0
M  V30 15389 O 1476.43 2.6481 0.598983 0
M  V30 15390 C 1474.89 3.01722 -1.96194 0
M  V30 15391 C 1474.5 2.84216 -3.46302 0
M  V30 15392 C 1476.24 3.79513 -1.90185 0
M  V30 15393 C 1474.15 4.13916 -4.22407 0
M  V30 15394 H 1473.08 0.62839 -0.416704 0
M  V30 15395 H 1475.73 1.03801 -1.5132 0
M  V30 15396 H 1474.11 3.66482 -1.50023 0
M  V30 15397 H 1475.29 2.28261 -4.00292 0
M  V30 15398 H 1473.6 2.1986 -3.53625 0
M  V30 15399 H 1476.2 4.75615 -2.44325 0
M  V30 15400 H 1476.54 4.07019 -0.874129 0
M  V30 15401 H 1477.07 3.21539 -2.34217 0
M  V30 15402 H 1473.81 3.91591 -5.25677 0
M  V30 15403 H 1473.33 4.69558 -3.73196 0
M  V30 15404 H 1475.01 4.82322 -4.31248 0
M  V30 15405 N 1475.14 1.08871 1.13951 0
M  V30 15406 C 1476.11 0.726655 2.17376 0
M  V30 15407 C 1477.11 -0.240922 1.58985 0
M  V30 15408 O 1478.3 -0.0198472 1.74189 0
M  V30 15409 C 1475.43 0.0736505 3.4082 0
M  V30 15410 H 1476.62 1.64254 2.5092 0
M  V30 15411 H 1474.17 0.887183 1.28681 0
M  V30 15412 H 1474.91 -0.853733 3.12861 0
M  V30 15413 H 1474.69 0.769782 3.84469 0
M  V30 15414 H 1476.18 -0.164465 4.17276 0
M  V30 15415 N 1476.62 -1.31073 0.875073 0
M  V30 15416 C 1477.55 -2.27335 0.291809 0
M  V30 15417 C 1478.57 -1.53298 -0.548036 0
M  V30 15418 O 1479.76 -1.7464 -0.369198 0
M  V30 15419 C 1476.86 -3.33465 -0.604521 0
M  V30 15420 C 1476.03 -4.36924 0.204029 0
M  V30 15421 C 1475.09 -5.2252 -0.621238 0
M  V30 15422 O 1474.11 -5.6918 -0.0474551 0
M  V30 15423 N 1475.32 -5.47397 -1.93227 0
M  V30 15424 H 1478.08 -2.78024 1.11906 0
M  V30 15425 H 1475.64 -1.44149 0.737064 0
M  V30 15426 H 1477.63 -3.87646 -1.16243 0
M  V30 15427 H 1476.2 -2.8278 -1.33244 0
M  V30 15428 H 1475.42 -3.82745 0.943389 0
M  V30 15429 H 1476.71 -5.03112 0.758644 0
M  V30 15430 H 1476.11 -5.11253 -2.4215 0
M  V30 15431 H 1474.67 -6.04493 -2.43785 0
M  V30 15432 N 1478.1 -0.635022 -1.4424 0
M  V30 15433 C 1479.33 -0.146549 -2.06882 0
M  V30 15434 C 1479.75 1.17143 -1.4717 0
M  V30 15435 O 1479.11 1.71952 -0.574636 0
M  V30 15436 C 1479.16 -0.0494694 -3.60566 0
M  V30 15437 O 1478.26 0.993423 -4.00256 0
M  V30 15438 H 1477.6 -0.0865505 -0.658335 0
M  V30 15439 H 1480.13 -0.872803 -1.85049 0
M  V30 15440 H 1480.14 0.139839 -4.0776 0
M  V30 15441 H 1478.82 -1.01169 -4.03407 0
M  V30 15442 H 1477.39 0.778372 -3.64686 0
M  V30 15443 N 1479.58 1.53054 -0.375806 0
M  V30 15444 C 1480.53 2.22837 0.482477 0
M  V30 15445 C 1481.51 1.22728 1.04051 0
M  V30 15446 O 1482.7 1.48129 0.968854 0
M  V30 15447 C 1479.83 3.02869 1.61634 0
M  V30 15448 C 1478.92 4.10362 1.07069 0
M  V30 15449 N 1479.31 5.05187 0.248878 0
M  V30 15450 C 1477.61 4.25251 1.34452 0
M  V30 15451 C 1478.31 5.81678 -0.0510458 0
M  V30 15452 N 1477.29 5.40817 0.549318 0
M  V30 15453 H 1481.09 2.93506 -0.1521 0
M  V30 15454 H 1478.6 1.6135 -0.184373 0
M  V30 15455 H 1480.6 3.51387 2.24349 0
M  V30 15456 H 1479.26 2.33732 2.25387 0
M  V30 15457 H 1480.27 5.17777 -0.112766 0
M  V30 15458 H 1476.95 3.67342 1.98408 0
M  V30 15459 H 1478.34 6.68073 -0.716061 0
M  V30 15460 N 1481.06 0.105248 1.57248 0
M  V30 15461 C 1482.47 -0.251385 1.57608 0
M  V30 15462 C 1482.67 -1.677 1.11709 0
M  V30 15463 O 1481.73 -2.39552 0.798182 0
M  V30 15464 C 1483.04 -0.0305755 3.00684 0
M  V30 15465 C 1484.59 -0.0975409 3.12848 0
M  V30 15466 C 1485.06 0.0954024 4.57901 0
M  V30 15467 N 1486.56 0.040908 4.63182 0
M  V30 15468 C 1487.29 0.165298 5.73162 0
M  V30 15469 N 1486.79 0.345091 6.9194 0
M  V30 15470 N 1488.58 0.105847 5.62 0
M  V30 15471 H 1480.73 1.03658 1.85388 0
M  V30 15472 H 1482.99 0.407074 0.856151 0
M  V30 15473 H 1482.7 0.954461 3.38501 0
M  V30 15474 H 1482.57 -0.768477 3.69289 0
M  V30 15475 H 1484.96 -1.07309 2.74898 0
M  V30 15476 H 1485.04 0.672017 2.46815 0
M  V30 15477 H 1484.69 1.06786 4.96547 0
M  V30 15478 H 1484.62 -0.693974 5.22007 0
M  V30 15479 H 1487.11 -0.0951009 3.7778 0
M  V30 15480 H 1487.42 0.431243 7.71596 0
M  V30 15481 H 1485.76 0.38089 6.93955 0
M  V30 15482 H 1488.96 -0.0335544 4.68088 0
M  V30 15483 H 1489.13 0.206235 6.47672 0
M  V30 15484 N 1482.53 -1.56697 -0.168486 0
M  V30 15485 C 1483.81 -1.73032 -0.912097 0
M  V30 15486 C 1484.19 -0.667424 -2.00271 0
M  V30 15487 O 1483.54 0.317307 -2.26286 0
M  V30 15488 C 1483.75 -3.16334 -1.47424 0
M  V30 15489 C 1485.1 -3.77378 -1.94606 0
M  V30 15490 O 1486.12 -3.19629 -1.57212 0
M  V30 15491 O 1484.98 -4.78781 -2.63497 0
M  V30 15492 H 1482.07 -0.706713 -0.429518 0
M  V30 15493 H 1484.62 -1.68981 -0.156093 0
M  V30 15494 H 1483.39 -3.85179 -0.689421 0
M  V30 15495 H 1483.02 -3.24723 -2.29435 0
M  V30 15496 N 1484.01 0.437135 -1.51416 0
M  V30 15497 C 1484.95 1.55058 -1.67429 0
M  V30 15498 C 1485.92 1.53997 -0.521878 0
M  V30 15499 O 1487.11 1.73121 -0.74574 0
M  V30 15500 C 1484.23 2.93637 -1.68805 0
M  V30 15501 C 1483.28 3.12721 -2.90013 0
M  V30 15502 S 1484.11 2.88998 -4.50822 0
M  V30 15503 C 1485.27 4.29858 -4.54942 0
M  V30 15504 H 1485.5 1.41241 -2.61607 0
M  V30 15505 H 1483.04 0.62684 -1.41103 0
M  V30 15506 H 1484.99 3.73516 -1.70282 0
M  V30 15507 H 1483.65 3.04816 -0.758031 0
M  V30 15508 H 1482.85 4.14041 -2.87377 0
M  V30 15509 H 1482.45 2.40667 -2.86278 0
M  V30 15510 H 1484.74 5.23062 -4.30596 0
M  V30 15511 H 1485.68 4.37528 -5.56754 0
M  V30 15512 H 1486.09 4.13523 -3.84265 0
M  V30 15513 N 1485.49 1.41566 0.692592 0
M  V30 15514 C 1486.4 1.46014 1.83622 0
M  V30 15515 C 1487.42 0.350453 1.70434 0
M  V30 15516 O 1488.59 0.598634 1.92298 0
M  V30 15517 C 1485.66 1.34308 3.19628 0
M  V30 15518 C 1484.72 2.55617 3.44904 0
M  V30 15519 C 1483.95 2.4446 4.74421 0
M  V30 15520 O 1484.17 1.47078 5.51112 0
M  V30 15521 O 1483.11 3.34272 5.00546 0
M  V30 15522 H 1486.93 2.42504 1.82826 0
M  V30 15523 H 1484.52 1.23136 0.846039 0
M  V30 15524 H 1486.4 1.30075 4.00822 0
M  V30 15525 H 1485.08 0.409343 3.21101 0
M  V30 15526 H 1483.98 2.65426 2.63628 0
M  V30 15527 H 1485.32 3.47829 3.48247 0
M  V30 15528 N 1486.97 -0.927146 1.27443 0
M  V30 15529 C 1487.9 -2.03209 1.06013 0
M  V30 15530 C 1488.91 -1.62792 0.016041 0
M  V30 15531 O 1490.1 -1.76631 0.25766 0
M  V30 15532 C 1487.2 -3.33791 0.586225 0
M  V30 15533 C 1486.38 -4.02897 1.70273 0
M  V30 15534 C 1485.43 -5.11755 1.22447 0
M  V30 15535 O 1484.46 -5.35688 1.92423 0
M  V30 15536 N 1485.66 -5.80444 0.0804162 0
M  V30 15537 H 1488.43 -2.22155 2.01165 0
M  V30 15538 H 1485.99 -1.09757 1.19017 0
M  V30 15539 H 1487.98 -4.03926 0.250161 0
M  V30 15540 H 1486.55 -3.11414 -0.272076 0
M  V30 15541 H 1485.77 -3.26489 2.20905 0
M  V30 15542 H 1487.06 -4.45816 2.45205 0
M  V30 15543 H 1486.46 -5.63454 -0.503635 0
M  V30 15544 H 1485.01 -6.51504 -0.196466 0
M  V30 15545 N 1488.45 -1.09474 -1.13372 0
M  V30 15546 C 1489.36 -0.746674 -2.224 0
M  V30 15547 C 1490.37 0.251572 -1.72172 0
M  V30 15548 O 1491.55 0.092793 -2.01186 0
M  V30 15549 C 1488.61 -0.172965 -3.46268 0
M  V30 15550 C 1487.67 -1.22722 -4.11385 0
M  V30 15551 C 1486.91 -0.680794 -5.2934 0
M  V30 15552 O 1487.13 0.496135 -5.68238 0
M  V30 15553 O 1486.06 -1.43605 -5.84518 0
M  V30 15554 H 1489.89 -1.65649 -2.54547 0
M  V30 15555 H 1487.48 -0.869172 -1.21514 0
M  V30 15556 H 1489.36 0.143629 -4.21155 0
M  V30 15557 H 1488.03 0.709853 -3.15821 0
M  V30 15558 H 1486.94 -1.59652 -3.38323 0
M  V30 15559 H 1488.27 -2.0827 -4.45965 0
M  V30 15560 N 1489.92 1.30607 -0.882012 0
M  V30 15561 C 1490.85 2.30666 -0.362706 0
M  V30 15562 C 1491.84 1.60865 0.552861 0
M  V30 15563 O 1493.02 1.88493 0.467339 0
M  V30 15564 C 1490.15 3.44675 0.42622 0
M  V30 15565 C 1489.1 4.26152 -0.397322 0
M  V30 15566 C 1488.43 5.32185 0.518027 0
M  V30 15567 C 1489.73 4.95955 -1.63785 0
M  V30 15568 H 1491.42 2.74351 -1.19883 0
M  V30 15569 H 1488.97 1.31895 -0.577912 0
M  V30 15570 H 1490.92 4.13734 0.80013 0
M  V30 15571 H 1489.65 2.99787 1.29597 0
M  V30 15572 H 1488.31 3.58776 -0.753332 0
M  V30 15573 H 1487.95 4.83545 1.3854 0
M  V30 15574 H 1487.65 5.87593 -0.0291802 0
M  V30 15575 H 1489.18 6.04101 0.888518 0
M  V30 15576 H 1490.59 5.57547 -1.3347 0
M  V30 15577 H 1488.99 5.61215 -2.12504 0
M  V30 15578 H 1490.06 4.22252 -2.38394 0
M  V30 15579 N 1491.4 0.642663 1.43901 0
M  V30 15580 C 1492.37 -0.0457858 2.29154 0
M  V30 15581 C 1493.37 -0.760988 1.41653 0
M  V30 15582 O 1494.56 -0.603832 1.634 0
M  V30 15583 C 1491.69 -1.07552 3.23489 0
M  V30 15584 H 1492.88 0.704193 2.91515 0
M  V30 15585 H 1490.43 0.403361 1.51006 0
M  V30 15586 H 1491.17 -1.85509 2.66002 0
M  V30 15587 H 1490.95 -0.566468 3.87987 0
M  V30 15588 H 1492.44 -1.55663 3.87503 0
M  V30 15589 N 1492.88 -1.52852 0.383918 0
M  V30 15590 C 1493.83 -2.23089 -0.470652 0
M  V30 15591 C 1494.82 -1.23278 -1.03399 0
M  V30 15592 O 1496.01 -1.48641 -0.960985 0
M  V30 15593 C 1493.14 -3.03721 -1.60025 0
M  V30 15594 C 1492.22 -4.10924 -1.04892 0
M  V30 15595 N 1492.61 -5.05312 -0.222083 0
M  V30 15596 C 1490.91 -4.25958 -1.32195 0
M  V30 15597 C 1491.61 -5.81642 0.0818929 0
M  V30 15598 N 1490.59 -5.41101 -0.520629 0
M  V30 15599 H 1494.39 -2.93421 0.167663 0
M  V30 15600 H 1491.9 -1.6125 0.192927 0
M  V30 15601 H 1493.9 -3.52572 -2.22482 0
M  V30 15602 H 1492.56 -2.34924 -2.24145 0
M  V30 15603 H 1493.57 -5.1771 0.140223 0
M  V30 15604 H 1490.25 -3.68389 -1.96457 0
M  V30 15605 H 1491.64 -6.67684 0.751481 0
M  V30 15606 N 1494.36 -0.113586 -1.5719 0
M  V30 15607 C 1495.32 0.824258 -2.13866 0
M  V30 15608 C 1496.32 1.19831 -1.07224 0
M  V30 15609 O 1497.51 1.12471 -1.33026 0
M  V30 15610 C 1494.64 2.11391 -2.67445 0
M  V30 15611 H 1495.84 0.331803 -2.98059 0
M  V30 15612 H 1493.39 0.135599 -1.55711 0
M  V30 15613 H 1494.13 2.65079 -1.86824 0
M  V30 15614 H 1493.91 1.85523 -3.45433 0
M  V30 15615 H 1495.4 2.78443 -3.11222 0
M  V30 15616 N 1495.84 1.56784 0.160173 0
M  V30 15617 C 1497.08 1.82891 0.876278 0
M  V30 15618 C 1497.42 0.693173 1.81408 0
M  V30 15619 O 1496.69 -0.304136 1.92107 0
M  V30 15620 C 1496.97 3.19439 1.66226 0
M  V30 15621 C 1496.83 4.43557 0.746831 0
M  V30 15622 C 1498.15 3.53053 2.62758 0
M  V30 15623 H 1495.27 0.665285 0.31712 0
M  V30 15624 H 1497.91 1.89469 0.142004 0
M  V30 15625 H 1496.06 3.13962 2.28823 0
M  V30 15626 H 1497.73 4.61109 0.132876 0
M  V30 15627 H 1495.97 4.33764 0.0555625 0
M  V30 15628 H 1496.64 5.35675 1.33253 0
M  V30 15629 H 1499.12 3.59054 2.10284 0
M  V30 15630 H 1498 4.4965 3.14811 0
M  V30 15631 H 1498.26 2.78329 3.4349 0
M  V30 15632 N 1497.32 -0.429099 1.51646 0
M  V30 15633 C 1498.26 -1.54202 1.74139 0
M  V30 15634 C 1499.26 -1.58117 0.607905 0
M  V30 15635 O 1500.46 -1.61763 0.789486 0
M  V30 15636 H 1496.84 -0.512456 0.550357 0
M  V30 15637 H 1498.81 -1.32408 2.67415 0
M  V30 15638 C 1497.56 -2.91779 1.89104 0
M  V30 15639 H 1496.88 -2.89502 2.75733 0
M  V30 15640 H 1498.32 -3.68995 2.08851 0
M  V30 15641 C 1496.78 -3.30512 0.652945 0
M  V30 15642 O 1497.31 -4.01257 -0.188553 0
M  V30 15643 N 1495.52 -2.86359 0.494634 0
M  V30 15644 H 1495.06 -2.28959 1.18049 0
M  V30 15645 H 1495.02 -3.12637 -0.332503 0
M  V30 15646 N 1498.79 -1.41931 -0.685074 0
M  V30 15647 C 1499.76 -1.44315 -1.78061 0
M  V30 15648 C 1500.76 -0.332215 -1.57331 0
M  V30 15649 O 1501.95 -0.59258 -1.63811 0
M  V30 15650 C 1499.08 -1.26479 -3.16569 0
M  V30 15651 H 1500.27 -2.4185 -1.77337 0
M  V30 15652 H 1497.82 -1.28228 -0.893721 0
M  V30 15653 H 1498.56 -0.298259 -3.22926 0
M  V30 15654 H 1498.34 -2.06981 -3.33018 0
M  V30 15655 H 1499.83 -1.31006 -3.96519 0
M  V30 15656 N 1500.27 0.920374 -1.27933 0
M  V30 15657 C 1501.5 1.70804 -1.17647 0
M  V30 15658 C 1501.92 1.86264 0.262189 0
M  V30 15659 O 1501.28 1.36798 1.18979 0
M  V30 15660 C 1501.33 3.08142 -1.87298 0
M  V30 15661 O 1500.43 3.95279 -1.17593 0
M  V30 15662 H 1499.77 0.523267 -0.408763 0
M  V30 15663 H 1502.3 1.15127 -1.69136 0
M  V30 15664 H 1502.31 3.58414 -1.94945 0
M  V30 15665 H 1500.99 2.96208 -2.91948 0
M  V30 15666 H 1499.56 3.53716 -1.18065 0
M  V30 15667 N 1501.75 1.10074 1.1279 0
M  V30 15668 C 1502.97 0.863106 1.88587 0
M  V30 15669 C 1503.4 -0.580595 1.78915 0
M  V30 15670 O 1502.76 -1.40859 1.14142 0
M  V30 15671 C 1502.81 1.31142 3.35908 0
M  V30 15672 O 1501.91 0.474088 4.09666 0
M  V30 15673 H 1501.25 0.312034 0.586115 0
M  V30 15674 H 1503.78 1.46659 1.42662 0
M  V30 15675 H 1503.79 1.29974 3.86744 0
M  V30 15676 H 1502.47 2.36279 3.42265 0
M  V30 15677 H 1501.04 0.550665 3.68812 0
M  V30 15678 N 1503.23 -1.30138 0.888926 0
M  V30 15679 C 1504.17 -2.28023 0.356923 0
M  V30 15680 C 1505.14 -1.56551 -0.555066 0
M  V30 15681 O 1506.33 -1.84595 -0.482633 0
M  V30 15682 C 1503.47 -3.42546 -0.419056 0
M  V30 15683 C 1502.58 -4.28827 0.5226 0
M  V30 15684 C 1501.72 -5.30517 -0.269366 0
M  V30 15685 C 1500.76 -6.08449 0.667507 0
M  V30 15686 N 1499.89 -7.02043 -0.08938 0
M  V30 15687 H 1504.73 -2.72912 1.19678 0
M  V30 15688 H 1502.27 -1.34239 0.60152 0
M  V30 15689 H 1504.23 -4.07707 -0.884911 0
M  V30 15690 H 1502.86 -2.98716 -1.22346 0
M  V30 15691 H 1501.91 -3.63938 1.10695 0
M  V30 15692 H 1503.22 -4.83136 1.24018 0
M  V30 15693 H 1502.38 -6.01444 -0.796901 0
M  V30 15694 H 1501.12 -4.76911 -1.02014 0
M  V30 15695 H 1500.12 -5.36396 1.20664 0
M  V30 15696 H 1501.35 -6.64143 1.41744 0
M  V30 15697 H 1499.29 -6.50822 -0.822622 0
M  V30 15698 H 1499.21 -7.53859 0.568499 0
M  V30 15699 H 1500.48 -7.77206 -0.597529 0
M  V30 15700 N 1504.71 -0.650285 -1.43559 0
M  V30 15701 C 1505.93 -0.168483 -2.06715 0
M  V30 15702 C 1506.36 1.15576 -1.48404 0
M  V30 15703 O 1505.71 1.71333 -0.592842 0
M  V30 15704 C 1505.76 -0.0877095 -3.60493 0
M  V30 15705 O 1504.87 0.950915 -4.01287 0
M  V30 15706 H 1504.21 -0.0935281 -0.65738 0
M  V30 15707 H 1506.74 -0.892381 -1.84113 0
M  V30 15708 H 1506.75 0.0965825 -4.07886 0
M  V30 15709 H 1505.42 -1.05442 -4.02312 0
M  V30 15710 H 1504 0.739648 -3.65491 0
M  V30 15711 N 1506.18 1.52647 -0.392018 0
M  V30 15712 C 1507.12 2.22965 0.486007 0
M  V30 15713 C 1508.09 1.23138 1.06188 0
M  V30 15714 O 1509.28 1.52133 1.113 0
M  V30 15715 C 1506.41 2.94498 1.67298 0
M  V30 15716 C 1505.45 4.08616 1.22211 0
M  V30 15717 S 1506.28 5.35121 0.201397 0
M  V30 15718 C 1507.44 6.10177 1.39409 0
M  V30 15719 H 1507.67 2.97092 -0.111111 0
M  V30 15720 H 1505.21 1.53391 -0.176221 0
M  V30 15721 H 1507.16 3.3632 2.3537 0
M  V30 15722 H 1505.83 2.20045 2.24141 0
M  V30 15723 H 1505.02 4.57778 2.10844 0
M  V30 15724 H 1504.62 3.68821 0.620272 0
M  V30 15725 H 1506.91 6.36514 2.3207 0
M  V30 15726 H 1507.86 7.01788 0.943337 0
M  V30 15727 H 1508.26 5.4099 1.61213 0
M  V30 15728 N 1507.66 0.121921 1.57128 0
M  V30 15729 C 1508.94 -0.579087 1.86831 0
M  V30 15730 C 1509.32 -1.84623 1.0236 0
M  V30 15731 O 1508.67 -2.28266 0.103326 0
M  V30 15732 C 1508.88 -0.86872 3.38015 0
M  V30 15733 C 1510.23 -1.22051 4.0668 0
M  V30 15734 O 1511.25 -0.958889 3.43051 0
M  V30 15735 O 1510.11 -1.71164 5.19004 0
M  V30 15736 H 1507.2 -0.292539 0.773531 0
M  V30 15737 H 1509.75 0.156644 1.68975 0
M  V30 15738 H 1508.52 0.0291056 3.91289 0
M  V30 15739 H 1508.14 -1.65951 3.61312 0
M  V30 15740 N 1509.14 -1.56867 -0.151857 0
M  V30 15741 C 1510.56 -1.51422 -0.504328 0
M  V30 15742 C 1510.76 -0.829524 -1.83633 0
M  V30 15743 O 1509.81 -0.398018 -2.49343 0
M  V30 15744 C 1511.13 -2.96185 -0.519117 0
M  V30 15745 C 1512.67 -3.07098 -0.60497 0
M  V30 15746 C 1513.15 -4.53357 -0.650468 0
M  V30 15747 N 1514.64 -4.57682 -0.712825 0
M  V30 15748 C 1515.37 -5.68221 -0.768931 0
M  V30 15749 N 1514.87 -6.88342 -0.784678 0
M  V30 15750 N 1516.66 -5.56241 -0.809441 0
M  V30 15751 H 1508.81 -1.99777 0.721316 0
M  V30 15752 H 1511.08 -0.910951 0.262436 0
M  V30 15753 H 1510.78 -3.49516 0.391315 0
M  V30 15754 H 1510.66 -3.51877 -1.35876 0
M  V30 15755 H 1513.04 -2.53789 -1.50582 0
M  V30 15756 H 1513.13 -2.54458 0.261722 0
M  V30 15757 H 1512.77 -5.07303 0.246207 0
M  V30 15758 H 1512.7 -5.03775 -1.53358 0
M  V30 15759 H 1515.19 -3.71206 -0.708151 0
M  V30 15760 H 1515.5 -7.68339 -0.829202 0
M  V30 15761 H 1513.85 -6.90913 -0.752634 0
M  V30 15762 H 1517.04 -4.61312 -0.794274 0
M  V30 15763 H 1517.21 -6.42405 -0.849701 0
M  V30 15764 N 1510.62 0.421051 -1.51871 0
M  V30 15765 C 1511.86 1.17082 -1.65589 0
M  V30 15766 C 1512.2 1.90469 -0.378861 0
M  V30 15767 O 1511.47 1.84277 0.622259 0
M  V30 15768 C 1511.76 2.17483 -2.87007 0
M  V30 15769 C 1511.61 1.48071 -4.24729 0
M  V30 15770 C 1512.93 3.18288 -3.03942 0
M  V30 15771 H 1510.05 0.424284 -0.602621 0
M  V30 15772 H 1512.69 0.457998 -1.84397 0
M  V30 15773 H 1510.84 2.78273 -2.71102 0
M  V30 15774 H 1512.51 0.904926 -4.52337 0
M  V30 15775 H 1510.75 0.782814 -4.26678 0
M  V30 15776 H 1511.42 2.21272 -5.0571 0
M  V30 15777 H 1513.9 2.67565 -3.18666 0
M  V30 15778 H 1512.78 3.85815 -3.90433 0
M  V30 15779 H 1513.04 3.85333 -2.16728 0
M  V30 15780 N 1512.1 1.42293 0.677538 0
M  V30 15781 C 1513.33 1.45797 1.46379 0
M  V30 15782 C 1513.73 0.0669696 1.89081 0
M  V30 15783 O 1513.08 -0.928025 1.58535 0
M  V30 15784 C 1513.14 2.31982 2.74635 0
M  V30 15785 C 1512.8 3.79894 2.54026 0
M  V30 15786 C 1513.8 4.71615 2.18805 0
M  V30 15787 C 1511.49 4.24131 2.69106 0
M  V30 15788 C 1513.48 6.05563 1.98927 0
M  V30 15789 C 1511.17 5.5814 2.48844 0
M  V30 15790 C 1512.16 6.48672 2.13807 0
M  V30 15791 O 1511.85 7.80206 1.93737 0
M  V30 15792 H 1511.58 0.498113 0.457012 0
M  V30 15793 H 1514.14 1.87432 0.840151 0
M  V30 15794 H 1512.37 1.85191 3.39472 0
M  V30 15795 H 1514.06 2.26974 3.36508 0
M  V30 15796 H 1514.82 4.38723 2.06753 0
M  V30 15797 H 1510.7 3.53957 2.95357 0
M  V30 15798 H 1514.25 6.7619 1.71502 0
M  V30 15799 H 1510.14 5.90605 2.60491 0
M  V30 15800 H 1510.91 7.91536 2.08357 0
M  V30 15801 N 1513.57 -0.913576 1.28419 0
M  V30 15802 C 1514.82 -1.65944 1.15355 0
M  V30 15803 C 1515.14 -1.92706 -0.298228 0
M  V30 15804 O 1514.41 -1.54333 -1.20657 0
M  V30 15805 H 1512.99 -0.615063 0.423919 0
M  V30 15806 H 1515.66 -1.0962 1.6115 0
M  V30 15807 H 1514.75 -2.62173 1.69327 0
M  V30 15808 N 1515.05 -1.1067 -1.12204 0
M  V30 15809 C 1516 -0.757745 -2.18007 0
M  V30 15810 C 1516.97 0.26706 -1.63939 0
M  V30 15811 O 1518.15 0.145789 -1.90242 0
M  V30 15812 C 1515.29 -0.198379 -3.44529 0
M  V30 15813 C 1514.41 -1.27878 -4.12639 0
M  V30 15814 C 1513.54 -0.6808 -5.26819 0
M  V30 15815 C 1512.58 -1.74161 -5.868 0
M  V30 15816 N 1511.72 -1.16372 -6.92389 0
M  V30 15817 H 1516.56 -1.66418 -2.47202 0
M  V30 15818 H 1514.1 -0.831216 -1.21364 0
M  V30 15819 H 1516.05 0.143838 -4.16952 0
M  V30 15820 H 1514.68 0.671279 -3.15743 0
M  V30 15821 H 1513.74 -1.73808 -3.38371 0
M  V30 15822 H 1515.05 -2.08169 -4.53285 0
M  V30 15823 H 1514.2 -0.288172 -6.06015 0
M  V30 15824 H 1512.94 0.153521 -4.87458 0
M  V30 15825 H 1511.95 -2.14364 -5.06289 0
M  V30 15826 H 1513.17 -2.57882 -6.28231 0
M  V30 15827 H 1511.12 -0.350899 -6.55061 0
M  V30 15828 H 1511.03 -1.90344 -7.31646 0
M  V30 15829 H 1512.3 -0.797715 -7.75407 0
M  V30 15830 N 1516.53 1.29665 -0.895815 0
M  V30 15831 C 1517.94 1.77825 -0.568784 0
M  V30 15832 C 1518.29 1.73534 0.915443 0
M  V30 15833 O 1517.42 1.31885 1.71567 0
M  V30 15834 C 1518.01 3.22901 -1.0257 0
M  V30 15835 C 1516.57 3.68854 -0.749903 0
M  V30 15836 C 1515.72 2.49866 -1.20259 0
M  V30 15837 H 1518.67 1.16381 -1.07894 0
M  V30 15838 H 1518.69 3.788 -0.359312 0
M  V30 15839 H 1518.2 3.25991 -2.10597 0
M  V30 15840 H 1516.3 3.71241 0.317916 0
M  V30 15841 H 1516.42 4.59831 -1.34506 0
M  V30 15842 H 1514.78 2.46997 -0.621676 0
M  V30 15843 H 1515.56 2.55687 -2.29083 0
M  V30 15844 N 1518.01 0.657889 1.43212 0
M  V30 15845 C 1519.42 0.325876 1.56238 0
M  V30 15846 C 1519.62 -1.16975 1.6407 0
M  V30 15847 O 1518.68 -1.95473 1.59833 0
M  V30 15848 C 1519.99 1.04134 2.82093 0
M  V30 15849 C 1521.54 1.02204 2.95844 0
M  V30 15850 C 1522.02 1.71849 4.24537 0
M  V30 15851 N 1523.51 1.68635 4.31412 0
M  V30 15852 C 1524.24 2.19393 5.29768 0
M  V30 15853 N 1523.74 2.7846 6.34375 0
M  V30 15854 N 1525.53 2.09866 5.21452 0
M  V30 15855 H 1517.68 1.62839 1.36371 0
M  V30 15856 H 1519.95 0.685072 0.655271 0
M  V30 15857 H 1519.65 2.09647 2.82385 0
M  V30 15858 H 1519.53 0.595842 3.72464 0
M  V30 15859 H 1521.91 -0.0247029 2.9509 0
M  V30 15860 H 1521.99 1.50627 2.06749 0
M  V30 15861 H 1521.64 2.76482 4.26052 0
M  V30 15862 H 1521.57 1.20888 5.12536 0
M  V30 15863 H 1524.06 1.25536 3.56439 0
M  V30 15864 H 1524.37 3.14855 7.05752 0
M  V30 15865 H 1522.72 2.82523 6.34985 0
M  V30 15866 H 1525.91 1.63422 4.38647 0
M  V30 15867 H 1526.08 2.49732 5.97945 0
M  V30 15868 N 1519.49 -1.52437 0.400108 0
M  V30 15869 C 1520.71 -2.0613 -0.178364 0
M  V30 15870 C 1521.13 -1.27094 -1.39616 0
M  V30 15871 O 1520.49 -0.320409 -1.79665 0
M  V30 15872 C 1520.54 -3.57478 -0.53777 0
M  V30 15873 O 1520.26 -4.33522 0.631657 0
M  V30 15874 C 1521.76 -4.27556 -1.17094 0
M  V30 15875 H 1518.98 -0.670558 -0.0243619 0
M  V30 15876 H 1521.52 -1.9644 0.568459 0
M  V30 15877 H 1519.68 -3.67205 -1.23449 0
M  V30 15878 H 1520.09 -5.23437 0.333803 0
M  V30 15879 H 1521.57 -5.3466 -1.3727 0
M  V30 15880 H 1522.04 -3.83456 -2.14145 0
M  V30 15881 H 1522.65 -4.22174 -0.514687 0
M  V30 15882 N 1520.96 -0.130252 -1.57061 0
M  V30 15883 C 1522.19 0.532416 -1.99932 0
M  V30 15884 C 1522.61 1.59505 -1.01013 0
M  V30 15885 O 1521.96 1.82499 -0.00463158 0
M  V30 15886 C 1522.02 1.14833 -3.42776 0
M  V30 15887 O 1521.74 0.128163 -4.37912 0
M  V30 15888 C 1523.24 1.89324 -4.00838 0
M  V30 15889 H 1520.46 0.140046 -0.656223 0
M  V30 15890 H 1523 -0.219905 -2.03314 0
M  V30 15891 H 1521.16 1.85137 -3.40298 0
M  V30 15892 H 1521.57 0.577135 -5.21315 0
M  V30 15893 H 1523.04 2.27731 -5.02835 0
M  V30 15894 H 1523.52 2.77277 -3.40608 0
M  V30 15895 H 1524.13 1.23757 -4.06896 0
M  V30 15896 N 1522.44 1.56945 0.143535 0
M  V30 15897 C 1523.35 2.01795 1.1965 0
M  V30 15898 C 1524.37 0.933965 1.4681 0
M  V30 15899 O 1525.55 1.2437 1.58411 0
M  V30 15900 C 1522.61 2.39249 2.5092 0
M  V30 15901 C 1521.67 3.61613 2.31376 0
M  V30 15902 C 1520.9 3.97271 3.56386 0
M  V30 15903 O 1521.13 3.33552 4.62709 0
M  V30 15904 O 1520.06 4.90501 3.48844 0
M  V30 15905 H 1523.89 2.91687 0.845718 0
M  V30 15906 H 1521.47 1.45182 0.352518 0
M  V30 15907 H 1523.35 2.64184 3.28306 0
M  V30 15908 H 1522.03 1.52511 2.85521 0
M  V30 15909 H 1520.94 3.4186 1.51929 0
M  V30 15910 H 1522.27 4.48979 2.01689 0
M  V30 15911 N 1523.92 -0.412991 1.52093 0
M  V30 15912 C 1525.17 -1.15801 1.65634 0
M  V30 15913 C 1525.49 -1.91127 0.386737 0
M  V30 15914 O 1524.76 -1.86541 -0.598262 0
M  V30 15915 H 1523.34 -0.430467 0.610498 0
M  V30 15916 H 1526 -0.471127 1.8912 0
M  V30 15917 H 1525.1 -1.87421 2.49559 0
M  V30 15918 N 1525.4 -1.4265 -0.669982 0
M  V30 15919 C 1526.33 -1.49298 -1.79534 0
M  V30 15920 C 1527.31 -0.34911 -1.66479 0
M  V30 15921 O 1528.5 -0.564072 -1.85828 0
M  V30 15922 C 1525.63 -1.39935 -3.17861 0
M  V30 15923 C 1524.58 -2.52398 -3.45657 0
M  V30 15924 C 1523.91 -2.28092 -4.8361 0
M  V30 15925 C 1525.21 -3.94697 -3.4207 0
M  V30 15926 H 1526.9 -2.43486 -1.74227 0
M  V30 15927 H 1524.45 -1.17191 -0.836796 0
M  V30 15928 H 1526.4 -1.43193 -3.96325 0
M  V30 15929 H 1525.12 -0.422436 -3.23857 0
M  V30 15930 H 1523.78 -2.48465 -2.69556 0
M  V30 15931 H 1523.43 -1.28683 -4.86261 0
M  V30 15932 H 1523.13 -3.03469 -5.0317 0
M  V30 15933 H 1524.65 -2.33107 -5.64352 0
M  V30 15934 H 1526.07 -4.00207 -4.10496 0
M  V30 15935 H 1524.46 -4.69965 -3.73166 0
M  V30 15936 H 1525.53 -4.21025 -2.40554 0
M  V30 15937 N 1526.88 0.906753 -1.28902 0
M  V30 15938 C 1527.83 2.03141 -1.13299 0
M  V30 15939 C 1528.82 1.69325 -0.0504114 0
M  V30 15940 O 1530.03 1.78774 -0.209696 0
M  V30 15941 H 1526.4 0.665709 -0.349766 0
M  V30 15942 H 1528.37 2.13441 -2.08531 0
M  V30 15943 C 1527.12 3.37918 -0.818935 0
M  V30 15944 H 1526.44 3.64437 -1.64395 0
M  V30 15945 H 1527.88 4.17318 -0.749753 0
M  V30 15946 C 1526.34 3.33498 0.477582 0
M  V30 15947 O 1526.87 3.7241 1.50578 0
M  V30 15948 N 1525.08 2.86594 0.480862 0
M  V30 15949 H 1524.63 2.55124 -0.356308 0
M  V30 15950 H 1524.58 2.84019 1.34835 0
M  V30 15951 N 1528.36 1.11264 1.11616 0
M  V30 15952 C 1529.6 0.870286 1.84947 0
M  V30 15953 C 1529.96 -0.593351 1.82602 0
M  V30 15954 O 1531.16 -0.952396 2.51362 0
M  V30 15955 C 1529.43 1.4142 3.2823 0
M  V30 15956 S 1530.99 1.30856 4.18834 0
M  V30 15957 H 1527.81 0.314257 0.63778 0
M  V30 15958 H 1530.41 1.41978 1.34397 0
M  V30 15959 H 1529.11 2.47328 3.27501 0
M  V30 15960 H 1528.65 0.861661 3.83848 0
M  V30 15961 H 1530.66 0.271878 4.95455 0
M  V30 15962 N 1529.83 -1.29188 0.902679 0
M  V30 15963 C 1531.06 -2.00113 0.544953 0
M  V30 15964 C 1531.48 -1.67093 -0.863805 0
M  V30 15965 O 1530.84 -0.897179 -1.57545 0
M  V30 15966 C 1530.89 -3.52762 0.747741 0
M  V30 15967 O 1529.99 -4.11923 -0.198388 0
M  V30 15968 H 1529.33 -0.629054 0.212572 0
M  V30 15969 H 1531.86 -1.64611 1.21508 0
M  V30 15970 H 1531.87 -4.02732 0.653546 0
M  V30 15971 H 1530.55 -3.76131 1.77478 0
M  V30 15972 H 1529.13 -3.72857 -0.0563959 0
M  V30 15973 N 1531.31 -0.665475 -1.42861 0
M  V30 15974 C 1532.56 -0.183884 -2.01663 0
M  V30 15975 C 1532.89 1.2064 -1.52566 0
M  V30 15976 O 1532.14 1.82191 -0.714479 0
M  V30 15977 C 1532.44 -0.156963 -3.57055 0
M  V30 15978 C 1532.11 -1.49065 -4.25547 0
M  V30 15979 C 1530.77 -1.85584 -4.43973 0
M  V30 15980 C 1533.12 -2.36942 -4.64228 0
M  V30 15981 C 1530.45 -3.09622 -4.98348 0
M  V30 15982 C 1532.8 -3.60284 -5.19979 0
M  V30 15983 C 1531.46 -3.96984 -5.36619 0
M  V30 15984 H 1530.73 -0.0672879 -0.737939 0
M  V30 15985 H 1533.38 -0.858614 -1.71173 0
M  V30 15986 H 1531.69 0.601253 -3.87159 0
M  V30 15987 H 1533.38 0.232721 -4.00324 0
M  V30 15988 H 1529.97 -1.19653 -4.11559 0
M  V30 15989 H 1534.16 -2.10015 -4.49675 0
M  V30 15990 H 1529.41 -3.3809 -5.09417 0
M  V30 15991 H 1533.59 -4.28586 -5.48896 0
M  V30 15992 H 1531.21 -4.93175 -5.78518 0
M  V30 15993 N 1532.79 1.52222 -0.408187 0
M  V30 15994 C 1534.04 2.02102 0.168154 0
M  V30 15995 C 1534.37 1.2933 1.4487 0
M  V30 15996 O 1533.64 0.399336 1.90356 0
M  V30 15997 C 1533.93 3.57679 0.416821 0
M  V30 15998 C 1533.78 4.41101 -0.880335 0
M  V30 15999 C 1535.1 4.23442 1.19936 0
M  V30 16000 H 1532.22 0.734583 0.0596402 0
M  V30 16001 H 1534.86 1.82121 -0.541467 0
M  V30 16002 H 1533.01 3.74835 1.02131 0
M  V30 16003 H 1534.68 4.35658 -1.51656 0
M  V30 16004 H 1532.92 4.07353 -1.49152 0
M  V30 16005 H 1533.6 5.48031 -0.660748 0
M  V30 16006 H 1536.07 4.10379 0.687605 0
M  V30 16007 H 1534.95 5.32239 1.3421 0
M  V30 16008 H 1535.21 3.82335 2.21973 0
M  V30 16009 N 1534.27 0.138579 1.5699 0
M  V30 16010 C 1535.2 -0.800568 2.19347 0
M  V30 16011 C 1536.18 -1.26318 1.13921 0
M  V30 16012 O 1537.36 -1.32226 1.42232 0
M  V30 16013 C 1534.49 -2.04317 2.80842 0
M  V30 16014 C 1533.45 -1.71764 3.92022 0
M  V30 16015 C 1532.77 -3.03217 4.40413 0
M  V30 16016 C 1534.07 -0.970789 5.13199 0
M  V30 16017 H 1535.77 -0.280888 2.98079 0
M  V30 16018 H 1533.31 -0.133663 1.43378 0
M  V30 16019 H 1535.27 -2.70491 3.2313 0
M  V30 16020 H 1533.99 -2.58643 1.99428 0
M  V30 16021 H 1532.65 -1.07972 3.50339 0
M  V30 16022 H 1532.3 -3.55517 3.55832 0
M  V30 16023 H 1532 -2.82203 5.15398 0
M  V30 16024 H 1533.52 -3.70477 4.85365 0
M  V30 16025 H 1534.94 -1.53445 5.52384 0
M  V30 16026 H 1533.33 -0.860895 5.93893 0
M  V30 16027 H 1534.4 0.0390088 4.84884 0
M  V30 16028 N 1535.75 -1.57019 -0.13521 0
M  V30 16029 C 1536.66 -2.02427 -1.18578 0
M  V30 16030 C 1537.67 -0.941738 -1.46312 0
M  V30 16031 O 1538.85 -1.25208 -1.57749 0
M  V30 16032 C 1535.91 -2.40577 -2.49647 0
M  V30 16033 C 1534.97 -3.62835 -2.29455 0
M  V30 16034 C 1534.21 -3.99156 -3.54274 0
M  V30 16035 O 1534.43 -3.36001 -4.60933 0
M  V30 16036 O 1533.36 -4.92345 -3.46238 0
M  V30 16037 H 1537.19 -2.92131 -0.830237 0
M  V30 16038 H 1534.77 -1.45366 -0.344814 0
M  V30 16039 H 1536.66 -2.65922 -3.269 0
M  V30 16040 H 1535.33 -1.54023 -2.84708 0
M  V30 16041 H 1534.24 -3.42661 -1.50114 0
M  V30 16042 H 1535.57 -4.50043 -1.99305 0
M  V30 16043 N 1537.22 0.404919 -1.52309 0
M  V30 16044 C 1538.16 1.51471 -1.7068 0
M  V30 16045 C 1539.14 1.52856 -0.554425 0
M  V30 16046 O 1540.32 1.715 -0.782294 0
M  V30 16047 C 1537.45 2.8999 -1.74995 0
M  V30 16048 C 1536.49 3.06499 -2.96581 0
M  V30 16049 S 1537.33 2.7937 -4.56851 0
M  V30 16050 C 1538.48 4.20112 -4.63958 0
M  V30 16051 H 1538.71 1.35661 -2.64544 0
M  V30 16052 H 1536.25 0.596769 -1.42401 0
M  V30 16053 H 1538.21 3.6982 -1.78167 0
M  V30 16054 H 1536.87 3.03139 -0.822517 0
M  V30 16055 H 1536.06 4.07853 -2.96095 0
M  V30 16056 H 1535.66 2.34541 -2.91319 0
M  V30 16057 H 1537.95 5.13811 -4.41594 0
M  V30 16058 H 1538.9 4.2562 -5.6591 0
M  V30 16059 H 1539.3 4.05279 -3.9295 0
M  V30 16060 N 1538.7 1.43003 0.662408 0
M  V30 16061 C 1539.95 1.44346 1.4245 0
M  V30 16062 C 1540.28 0.064094 1.94094 0
M  V30 16063 O 1539.56 -0.913633 1.71706 0
M  V30 16064 C 1539.84 2.47822 2.61259 0
M  V30 16065 C 1539.69 3.94998 2.15166 0
M  V30 16066 C 1541.01 2.48139 3.63476 0
M  V30 16067 H 1538.13 0.525606 0.51663 0
M  V30 16068 H 1540.77 1.74495 0.751754 0
M  V30 16069 H 1538.92 2.22244 3.18653 0
M  V30 16070 H 1540.59 4.31601 1.62843 0
M  V30 16071 H 1538.84 4.0827 1.46622 0
M  V30 16072 H 1539.51 4.62998 3.00561 0
M  V30 16073 H 1541.98 2.70916 3.15823 0
M  V30 16074 H 1540.86 3.22498 4.44169 0
M  V30 16075 H 1541.12 1.51184 4.15447 0
M  V30 16076 N 1540.18 -0.899904 1.29381 0
M  V30 16077 C 1541.13 -2.02537 1.14375 0
M  V30 16078 C 1542.12 -1.69296 0.0593904 0
M  V30 16079 O 1543.33 -1.78661 0.219174 0
M  V30 16080 H 1539.7 -0.663844 0.353291 0
M  V30 16081 H 1541.67 -2.12332 2.0966 0
M  V30 16082 C 1540.42 -3.37479 0.836845 0
M  V30 16083 H 1539.75 -3.6356 1.66326 0
M  V30 16084 H 1541.19 -4.16915 0.771873 0
M  V30 16085 C 1539.65 -3.33746 -0.459889 0
M  V30 16086 O 1540.18 -3.73203 -1.48601 0
M  V30 16087 N 1538.38 -2.86845 -0.465657 0
M  V30 16088 H 1537.93 -2.54931 0.369833 0
M  V30 16089 H 1537.89 -2.8473 -1.33327 0
M  V30 16090 N 1541.66 -1.11854 -1.11024 0
M  V30 16091 C 1542.61 -0.77596 -2.19275 0
M  V30 16092 C 1543.6 0.234503 -1.67769 0
M  V30 16093 O 1544.81 0.0933372 -1.79758 0
M  V30 16094 H 1541.18 -0.23307 -0.71497 0
M  V30 16095 H 1543.15 -1.69749 -2.45414 0
M  V30 16096 C 1541.9 -0.240148 -3.4687 0
M  V30 16097 H 1541.22 -1.00895 -3.86859 0
M  V30 16098 H 1542.66 -0.0386799 -4.23982 0
M  V30 16099 C 1541.12 1.03056 -3.20751 0
M  V30 16100 O 1541.65 2.10948 -3.41854 0
M  V30 16101 N 1539.86 0.955066 -2.74457 0
M  V30 16102 H 1539.41 0.0769523 -2.57485 0
M  V30 16103 H 1539.36 1.80593 -2.57359 0
M  V30 16104 N 1543.14 1.28707 -0.909517 0
M  V30 16105 C 1544.38 1.95154 -0.540481 0
M  V30 16106 C 1544.71 1.7163 0.91506 0
M  V30 16107 O 1543.97 1.02786 1.66534 0
M  V30 16108 C 1544.27 3.48536 -0.791037 0
M  V30 16109 C 1543.93 3.92153 -2.22546 0
M  V30 16110 C 1542.59 4.03772 -2.61766 0
M  V30 16111 C 1544.95 4.14547 -3.15912 0
M  V30 16112 C 1542.27 4.35162 -3.93511 0
M  V30 16113 C 1544.63 4.47414 -4.47218 0
M  V30 16114 C 1543.29 4.57244 -4.86296 0
M  V30 16115 H 1542.56 0.714119 -0.197776 0
M  V30 16116 H 1545.21 1.53122 -1.15004 0
M  V30 16117 H 1543.51 3.91676 -0.0986412 0
M  V30 16118 H 1545.21 3.98059 -0.48474 0
M  V30 16119 H 1541.8 3.83633 -1.91113 0
M  V30 16120 H 1545.98 4.05027 -2.86822 0
M  V30 16121 H 1541.24 4.40977 -4.23496 0
M  V30 16122 H 1545.41 4.6369 -5.19581 0
M  V30 16123 H 1543.04 4.81321 -5.88416 0
M  V30 16124 N 1544.61 0.673042 1.42506 0
M  V30 16125 C 1546.03 0.342429 1.55883 0
M  V30 16126 C 1546.23 -1.15229 1.65302 0
M  V30 16127 O 1545.29 -1.93767 1.61897 0
M  V30 16128 C 1546.6 1.0712 2.80973 0
M  V30 16129 C 1548.15 1.05336 2.94743 0
M  V30 16130 C 1548.62 1.76342 4.22691 0
M  V30 16131 N 1550.11 1.73201 4.29599 0
M  V30 16132 C 1550.85 2.25 5.27411 0
M  V30 16133 N 1550.34 2.85173 6.31386 0
M  V30 16134 N 1552.14 2.15385 5.19197 0
M  V30 16135 H 1544.29 1.64277 1.34636 0
M  V30 16136 H 1546.55 0.691984 0.647968 0
M  V30 16137 H 1546.26 2.1263 2.80145 0
M  V30 16138 H 1546.13 0.635313 3.71811 0
M  V30 16139 H 1548.52 0.00659669 2.95099 0
M  V30 16140 H 1548.6 1.52811 2.0514 0
M  V30 16141 H 1548.24 2.80985 4.23096 0
M  V30 16142 H 1548.17 1.26317 5.11225 0
M  V30 16143 H 1550.66 1.2931 3.55088 0
M  V30 16144 H 1550.98 3.22323 7.02373 0
M  V30 16145 H 1549.32 2.89242 6.31953 0
M  V30 16146 H 1552.51 1.68065 4.36889 0
M  V30 16147 H 1552.69 2.5606 5.95262 0
M  V30 16148 N 1546.09 -1.52004 0.416254 0
M  V30 16149 C 1547.06 -2.2579 -0.393882 0
M  V30 16150 C 1548.06 -1.28427 -0.967637 0
M  V30 16151 O 1549.25 -1.52311 -0.845396 0
M  V30 16152 C 1546.38 -3.03361 -1.55515 0
M  V30 16153 H 1547.57 -2.98835 0.252492 0
M  V30 16154 H 1545.12 -1.55384 0.168929 0
M  V30 16155 H 1545.86 -2.34682 -2.23818 0
M  V30 16156 H 1545.64 -3.74852 -1.15015 0
M  V30 16157 H 1547.13 -3.5931 -2.12805 0
M  V30 16158 N 1547.57 -0.146903 -1.56914 0
M  V30 16159 C 1548.5 0.788924 -2.19769 0
M  V30 16160 C 1549.48 1.25712 -1.14589 0
M  V30 16161 O 1550.67 1.3147 -1.42931 0
M  V30 16162 C 1547.8 2.02824 -2.81921 0
M  V30 16163 C 1546.75 1.69683 -3.92927 0
M  V30 16164 C 1546.08 3.00877 -4.42015 0
M  V30 16165 C 1547.38 0.943559 -5.13706 0
M  V30 16166 H 1549.07 0.265076 -2.98224 0
M  V30 16167 H 1546.62 0.126057 -1.43447 0
M  V30 16168 H 1548.57 2.68773 -3.2456 0
M  V30 16169 H 1547.29 2.57581 -2.00797 0
M  V30 16170 H 1545.95 1.06112 -3.50907 0
M  V30 16171 H 1545.6 3.53625 -3.57713 0
M  V30 16172 H 1545.3 2.79466 -5.16888 0
M  V30 16173 H 1546.82 3.67897 -4.87323 0
M  V30 16174 H 1548.24 1.50513 -5.5319 0
M  V30 16175 H 1546.64 0.829387 -5.94341 0
M  V30 16176 H 1547.71 -0.0647228 -4.84857 0
M  V30 16177 N 1549.05 1.57088 0.126881 0
M  V30 16178 C 1550.46 1.52205 0.480175 0
M  V30 16179 C 1550.66 0.858634 1.8229 0
M  V30 16180 O 1549.72 0.437636 2.48679 0
M  V30 16181 C 1551.03 2.96974 0.471931 0
M  V30 16182 C 1552.58 3.08021 0.556037 0
M  V30 16183 C 1553.06 4.54335 0.57826 0
M  V30 16184 N 1554.55 4.58758 0.639922 0
M  V30 16185 C 1555.28 5.69372 0.678434 0
M  V30 16186 N 1554.78 6.89503 0.67507 0
M  V30 16187 N 1556.57 5.57459 0.720845 0
M  V30 16188 H 1548.72 1.98604 -0.753008 0
M  V30 16189 H 1550.99 0.90666 -0.276895 0
M  V30 16190 H 1550.69 3.48849 -0.44687 0
M  V30 16191 H 1550.57 3.53994 1.3026 0
M  V30 16192 H 1552.95 2.56153 1.46526 0
M  V30 16193 H 1553.03 2.54009 -0.302171 0
M  V30 16194 H 1552.68 5.06847 -0.326884 0
M  V30 16195 H 1552.61 5.06151 1.45324 0
M  V30 16196 H 1555.1 3.72285 0.649005 0
M  V30 16197 H 1555.41 7.6956 0.706862 0
M  V30 16198 H 1553.76 6.92023 0.64262 0
M  V30 16199 H 1556.95 4.62517 0.720783 0
M  V30 16200 H 1557.12 6.43675 0.747392 0
M  V30 16201 N 1550.53 -0.396836 1.52522 0
M  V30 16202 C 1551.75 -1.16857 1.71345 0
M  V30 16203 C 1552.18 -1.83178 0.427465 0
M  V30 16204 O 1551.53 -1.7051 -0.616123 0
M  V30 16205 C 1551.58 -2.19817 2.85855 0
M  V30 16206 O 1550.69 -3.26233 2.52281 0
M  V30 16207 H 1550.03 -0.340554 0.570017 0
M  V30 16208 H 1552.56 -0.463532 1.9928 0
M  V30 16209 H 1552.57 -2.63944 3.11123 0
M  V30 16210 H 1551.24 -1.70931 3.79151 0
M  V30 16211 H 1549.82 -2.87299 2.37726 0
M  V30 16212 N 1552.01 -1.43353 -0.654814 0
M  V30 16213 C 1552.92 -1.50831 -1.79687 0
M  V30 16214 C 1553.93 -0.395518 -1.69445 0
M  V30 16215 O 1555.11 -0.649408 -1.90643 0
M  V30 16216 C 1552.17 -1.42735 -3.15955 0
M  V30 16217 C 1551.23 -2.64671 -3.38005 0
M  V30 16218 C 1550.47 -2.56952 -4.67773 0
M  V30 16219 O 1550.69 -1.61638 -5.47019 0
M  V30 16220 O 1549.62 -3.47425 -4.91507 0
M  V30 16221 H 1553.45 -2.47266 -1.76333 0
M  V30 16222 H 1551.03 -1.25336 -0.813095 0
M  V30 16223 H 1552.92 -1.40656 -3.97233 0
M  V30 16224 H 1551.59 -0.494334 -3.19903 0
M  V30 16225 H 1550.5 -2.72323 -2.56498 0
M  V30 16226 H 1551.83 -3.5694 -3.38903 0
M  V30 16227 N 1553.48 0.89303 -1.29857 0
M  V30 16228 C 1554.71 1.67744 -1.21119 0
M  V30 16229 C 1555.13 1.87428 0.227198 0
M  V30 16230 O 1554.48 1.41605 1.15128 0
M  V30 16231 C 1554.53 3.05827 -1.92749 0
M  V30 16232 O 1554.26 2.87036 -3.30971 0
M  V30 16233 C 1555.76 4.00248 -1.9057 0
M  V30 16234 H 1552.98 0.523699 -0.4195 0
M  V30 16235 H 1555.52 1.1163 -1.71344 0
M  V30 16236 H 1553.68 3.58696 -1.46342 0
M  V30 16237 H 1554.09 3.74578 -3.6714 0
M  V30 16238 H 1555.56 4.9453 -2.45242 0
M  V30 16239 H 1556.04 4.30237 -0.882753 0
M  V30 16240 H 1556.65 3.53312 -2.36751 0
M  V30 16241 N 1554.96 1.12442 1.10429 0
M  V30 16242 C 1555.87 0.805377 2.20343 0
M  V30 16243 C 1556.89 -0.205836 1.72778 0
M  V30 16244 O 1558.06 -0.0394195 2.01361 0
M  V30 16245 C 1555.13 0.264711 3.45688 0
M  V30 16246 C 1554.19 1.33586 4.07987 0
M  V30 16247 C 1553.42 0.8209 5.27349 0
M  V30 16248 O 1553.65 -0.345303 5.69354 0
M  V30 16249 O 1552.58 1.59052 5.80505 0
M  V30 16250 H 1556.41 1.7234 2.50065 0
M  V30 16251 H 1553.99 0.901084 1.19167 0
M  V30 16252 H 1555.87 -0.0319164 4.21388 0
M  V30 16253 H 1554.55 -0.625869 3.17592 0
M  V30 16254 H 1553.45 1.68566 3.33971 0
M  V30 16255 H 1554.79 2.20021 4.40286 0
M  V30 16256 N 1556.44 -1.28223 0.91633 0
M  V30 16257 C 1557.37 -2.29623 0.423735 0
M  V30 16258 C 1558.35 -1.62274 -0.510016 0
M  V30 16259 O 1559.54 -1.89666 -0.4172 0
M  V30 16260 C 1556.67 -3.45684 -0.334686 0
M  V30 16261 C 1555.62 -4.24949 0.510169 0
M  V30 16262 C 1554.95 -5.33371 -0.376745 0
M  V30 16263 C 1556.25 -4.91438 1.76877 0
M  V30 16264 H 1557.94 -2.71076 1.27115 0
M  V30 16265 H 1555.49 -1.30316 0.612678 0
M  V30 16266 H 1557.44 -4.1571 -0.690154 0
M  V30 16267 H 1556.16 -3.03118 -1.21603 0
M  V30 16268 H 1554.82 -3.56653 0.848191 0
M  V30 16269 H 1554.47 -4.87048 -1.25671 0
M  V30 16270 H 1554.17 -5.87309 0.18496 0
M  V30 16271 H 1555.69 -6.06244 -0.728039 0
M  V30 16272 H 1557.11 -5.53812 1.48205 0
M  V30 16273 H 1555.5 -5.55384 2.27308 0
M  V30 16274 H 1556.57 -4.15783 2.49505 0
M  V30 16275 N 1557.92 -0.68059 -1.42147 0
M  V30 16276 C 1558.85 -0.0199376 -2.33491 0
M  V30 16277 C 1559.83 0.783164 -1.50999 0
M  V30 16278 O 1561.01 0.739154 -1.79583 0
M  V30 16279 C 1558.14 0.927902 -3.34675 0
M  V30 16280 C 1557.1 0.232979 -4.27365 0
M  V30 16281 C 1556.42 1.29415 -5.18802 0
M  V30 16282 C 1557.72 -0.891559 -5.14634 0
M  V30 16283 H 1559.42 -0.782823 -2.88985 0
M  V30 16284 H 1556.96 -0.377898 -1.38953 0
M  V30 16285 H 1558.92 1.3992 -3.97493 0
M  V30 16286 H 1557.64 1.72228 -2.77498 0
M  V30 16287 H 1556.3 -0.21814 -3.6595 0
M  V30 16288 H 1555.95 2.08067 -4.57949 0
M  V30 16289 H 1555.65 0.834274 -5.81647 0
M  V30 16290 H 1557.17 1.76627 -5.84496 0
M  V30 16291 H 1558.59 -0.501219 -5.71105 0
M  V30 16292 H 1556.98 -1.27759 -5.86343 0
M  V30 16293 H 1558.05 -1.73781 -4.5269 0
M  V30 16294 N 1559.4 1.51781 -0.424309 0
M  V30 16295 C 1560.33 2.30313 0.384462 0
M  V30 16296 C 1561.31 1.35166 1.03268 0
M  V30 16297 O 1562.49 1.64081 1.0388 0
M  V30 16298 C 1559.62 3.13566 1.49311 0
M  V30 16299 C 1558.58 4.16884 0.969096 0
M  V30 16300 C 1557.9 4.88576 2.17251 0
M  V30 16301 C 1559.2 5.22298 0.0125613 0
M  V30 16302 H 1560.9 2.98172 -0.270871 0
M  V30 16303 H 1558.44 1.43396 -0.131712 0
M  V30 16304 H 1560.39 3.67279 2.06602 0
M  V30 16305 H 1559.12 2.43504 2.17655 0
M  V30 16306 H 1557.78 3.64203 0.418494 0
M  V30 16307 H 1557.43 4.15029 2.84183 0
M  V30 16308 H 1557.13 5.58432 1.82833 0
M  V30 16309 H 1558.65 5.45107 2.75119 0
M  V30 16310 H 1560.06 5.71161 0.494744 0
M  V30 16311 H 1558.46 5.99606 -0.243544 0
M  V30 16312 H 1559.53 4.75935 -0.92813 0
M  V30 16313 N 1560.87 0.155222 1.56834 0
M  V30 16314 C 1562.1 -0.503763 2.01189 0
M  V30 16315 C 1562.52 -1.57086 1.03468 0
M  V30 16316 O 1561.88 -1.81296 0.0116895 0
M  V30 16317 C 1561.93 -1.07373 3.44243 0
M  V30 16318 O 1561.03 -2.18834 3.49551 0
M  V30 16319 H 1560.37 -0.122368 0.652627 0
M  V30 16320 H 1562.9 0.254377 2.03013 0
M  V30 16321 H 1562.91 -1.40036 3.83215 0
M  V30 16322 H 1561.59 -0.292339 4.14871 0
M  V30 16323 H 1560.17 -1.87337 3.22427 0
M  V30 16324 N 1562.35 -1.57153 -0.118549 0
M  V30 16325 C 1563.6 -1.84511 -0.824623 0
M  V30 16326 C 1563.92 -0.740473 -1.80394 0
M  V30 16327 O 1563.19 0.235481 -1.9448 0
M  V30 16328 H 1561.77 -0.680764 -0.307522 0
M  V30 16329 H 1564.43 -1.94613 -0.105764 0
M  V30 16330 H 1563.53 -2.80444 -1.36958 0
M  V30 16331 N 1563.83 0.388742 -1.5273 0
M  V30 16332 C 1564.78 1.47488 -1.77527 0
M  V30 16333 C 1565.75 1.54155 -0.618505 0
M  V30 16334 O 1566.93 1.70407 -0.858251 0
M  V30 16335 C 1564.07 2.84714 -1.95018 0
M  V30 16336 C 1563.18 2.87197 -3.2271 0
M  V30 16337 C 1562.32 4.15851 -3.30517 0
M  V30 16338 C 1561.36 4.12386 -4.52332 0
M  V30 16339 N 1560.5 5.32647 -4.57418 0
M  V30 16340 H 1565.34 1.25644 -2.70218 0
M  V30 16341 H 1562.87 0.609519 -1.33878 0
M  V30 16342 H 1564.83 3.64402 -2.03143 0
M  V30 16343 H 1563.46 3.05008 -1.05688 0
M  V30 16344 H 1562.51 1.99879 -3.23655 0
M  V30 16345 H 1563.82 2.80505 -4.12454 0
M  V30 16346 H 1562.98 5.03943 -3.37827 0
M  V30 16347 H 1561.72 4.25265 -2.38748 0
M  V30 16348 H 1560.72 3.22683 -4.45147 0
M  V30 16349 H 1561.95 4.04594 -5.45418 0
M  V30 16350 H 1559.89 5.42691 -3.68541 0
M  V30 16351 H 1559.81 5.28032 -5.41035 0
M  V30 16352 H 1561.08 6.22636 -4.68983 0
M  V30 16353 N 1565.31 1.43698 0.647203 0
M  V30 16354 C 1566.24 1.43777 1.7721 0
M  V30 16355 C 1567.22 0.298484 1.59837 0
M  V30 16356 O 1568.4 0.493002 1.81939 0
M  V30 16357 C 1565.53 1.2551 3.14587 0
M  V30 16358 C 1564.58 2.42793 3.50647 0
M  V30 16359 S 1565.41 4.05341 3.49941 0
M  V30 16360 C 1566.56 3.89468 4.89965 0
M  V30 16361 H 1566.8 2.38963 1.76873 0
M  V30 16362 H 1564.33 1.30801 0.820387 0
M  V30 16363 H 1566.29 1.15658 3.9387 0
M  V30 16364 H 1564.95 0.318629 3.1248 0
M  V30 16365 H 1564.14 2.25832 4.50573 0
M  V30 16366 H 1563.74 2.49302 2.78791 0
M  V30 16367 H 1566.04 3.52164 5.7878 0
M  V30 16368 H 1566.98 4.89167 5.11978 0
M  V30 16369 H 1567.39 3.21816 4.63783 0
M  V30 16370 N 1566.79 -0.886131 1.30328 0
M  V30 16371 C 1567.75 -1.97328 1.16594 0
M  V30 16372 C 1568.75 -1.60504 0.0975023 0
M  V30 16373 O 1569.94 -1.70739 0.345524 0
M  V30 16374 C 1567.07 -3.31714 0.786045 0
M  V30 16375 H 1568.26 -2.1094 2.13177 0
M  V30 16376 H 1565.82 -1.07238 1.13708 0
M  V30 16377 H 1566.55 -3.23804 -0.179334 0
M  V30 16378 H 1566.34 -3.5981 1.55817 0
M  V30 16379 H 1567.83 -4.11461 0.71339 0
M  V30 16380 N 1568.26 -1.13026 -1.09832 0
M  V30 16381 C 1569.19 -0.826338 -2.18389 0
M  V30 16382 C 1570.18 0.212529 -1.68767 0
M  V30 16383 O 1571.36 0.072363 -1.94065 0
M  V30 16384 C 1568.49 -0.286991 -3.46112 0
M  V30 16385 C 1567.44 -1.25963 -4.09044 0
M  V30 16386 C 1566.77 -0.580231 -5.31542 0
M  V30 16387 C 1568.07 -2.61661 -4.5203 0
M  V30 16388 H 1569.76 -1.73408 -2.4407 0
M  V30 16389 H 1567.31 -0.835201 -1.17305 0
M  V30 16390 H 1569.26 -0.062067 -4.21354 0
M  V30 16391 H 1567.99 0.656121 -3.19942 0
M  V30 16392 H 1566.65 -1.47047 -3.35816 0
M  V30 16393 H 1566.29 0.368222 -5.0165 0
M  V30 16394 H 1565.99 -1.2291 -5.74601 0
M  V30 16395 H 1567.52 -0.36449 -6.09511 0
M  V30 16396 H 1568.93 -2.44569 -5.18516 0
M  V30 16397 H 1567.33 -3.22685 -5.05959 0
M  V30 16398 H 1568.4 -3.19637 -3.64637 0
M  V30 16399 N 1569.74 1.27735 -0.923117 0
M  V30 16400 C 1570.67 2.26095 -0.375982 0
M  V30 16401 C 1571.69 1.55227 0.490763 0
M  V30 16402 O 1572.88 1.7589 0.304127 0
M  V30 16403 C 1569.98 3.35479 0.480342 0
M  V30 16404 C 1569.15 4.35866 -0.36605 0
M  V30 16405 C 1568.21 5.24466 0.42688 0
M  V30 16406 O 1567.23 5.68964 -0.163825 0
M  V30 16407 N 1568.44 5.54192 1.72777 0
M  V30 16408 H 1571.2 2.73679 -1.22147 0
M  V30 16409 H 1568.76 1.41314 -0.790056 0
M  V30 16410 H 1570.75 3.91693 1.01776 0
M  V30 16411 H 1569.32 2.87531 1.22657 0
M  V30 16412 H 1568.54 3.7898 -1.08479 0
M  V30 16413 H 1569.83 4.9995 -0.944849 0
M  V30 16414 H 1569.23 5.19888 2.23008 0
M  V30 16415 H 1567.79 6.13125 2.21181 0
M  V30 16416 N 1571.22 0.688118 1.41784 0
M  V30 16417 C 1572.15 0.0323199 2.33478 0
M  V30 16418 C 1573.13 -0.775145 1.51412 0
M  V30 16419 O 1574.32 -0.72962 1.79973 0
M  V30 16420 C 1571.45 -0.910141 3.35162 0
M  V30 16421 C 1570.4 -0.210312 4.27483 0
M  V30 16422 C 1569.73 -1.26662 5.19481 0
M  V30 16423 C 1571.03 0.918839 5.14154 0
M  V30 16424 H 1572.72 0.798138 2.88566 0
M  V30 16425 H 1570.27 0.385262 1.38751 0
M  V30 16426 H 1572.22 -1.3781 3.98229 0
M  V30 16427 H 1570.94 -1.70754 2.78408 0
M  V30 16428 H 1569.6 0.237544 3.6583 0
M  V30 16429 H 1569.25 -2.05635 4.59046 0
M  V30 16430 H 1568.95 -0.803416 5.82082 0
M  V30 16431 H 1570.47 -1.73524 5.85424 0
M  V30 16432 H 1571.89 0.531499 5.70831 0
M  V30 16433 H 1570.29 1.30867 5.85657 0
M  V30 16434 H 1571.36 1.7618 4.51762 0
M  V30 16435 N 1572.7 -1.51554 0.432352 0
M  V30 16436 C 1573.98 -1.94621 -0.195472 0
M  V30 16437 C 1574.36 -1.37072 -1.60544 0
M  V30 16438 O 1573.7 -0.555781 -2.21638 0
M  V30 16439 C 1573.91 -3.48544 -0.178267 0
M  V30 16440 C 1575.26 -4.22839 -0.386283 0
M  V30 16441 O 1576.29 -3.55275 -0.256604 0
M  V30 16442 O 1575.14 -5.42693 -0.643927 0
M  V30 16443 H 1572.24 -0.816291 -0.132656 0
M  V30 16444 H 1574.78 -1.62473 0.489972 0
M  V30 16445 H 1573.56 -3.82874 0.807658 0
M  V30 16446 H 1573.18 -3.87121 -0.906832 0
M  V30 16447 N 1574.18 -0.163538 -1.56749 0
M  V30 16448 C 1575.59 0.354516 -1.83303 0
M  V30 16449 C 1575.94 1.63601 -1.08301 0
M  V30 16450 O 1575.06 2.13814 -0.333546 0
M  V30 16451 C 1575.66 0.649983 -3.32507 0
M  V30 16452 C 1574.22 1.1125 -3.59584 0
M  V30 16453 C 1573.36 0.144257 -2.76925 0
M  V30 16454 H 1576.32 -0.387945 -1.53885 0
M  V30 16455 H 1576.34 1.5029 -3.49562 0
M  V30 16456 H 1575.85 -0.282886 -3.87068 0
M  V30 16457 H 1573.95 2.06074 -3.10426 0
M  V30 16458 H 1574.06 1.02704 -4.67962 0
M  V30 16459 H 1572.43 0.640116 -2.46525 0
M  V30 16460 H 1573.21 -0.782495 -3.34263 0
M  V30 16461 N 1575.65 1.57214 0.110213 0
M  V30 16462 C 1577.07 1.74402 0.666405 0
M  V30 16463 C 1577.42 0.783524 1.79876 0
M  V30 16464 O 1576.54 -0.0415306 2.1636 0
M  V30 16465 C 1577.14 3.1624 1.21564 0
M  V30 16466 C 1575.7 3.34904 1.71804 0
M  V30 16467 C 1574.84 2.70249 0.621347 0
M  V30 16468 H 1577.79 1.58277 -0.115765 0
M  V30 16469 H 1577.81 3.18276 2.0852 0
M  V30 16470 H 1577.33 3.86123 0.391273 0
M  V30 16471 H 1575.43 2.70077 2.56689 0
M  V30 16472 H 1575.54 4.43126 1.82143 0
M  V30 16473 H 1573.9 2.31727 1.05711 0
M  V30 16474 H 1574.69 3.42762 -0.192185 0
M  V30 16475 N 1577.13 -0.380637 1.52934 0
M  V30 16476 C 1578.06 -1.48518 1.74571 0
M  V30 16477 C 1579.08 -1.50272 0.626263 0
M  V30 16478 O 1580.27 -1.54023 0.902167 0
M  V30 16479 C 1577.37 -2.87339 1.79693 0
M  V30 16480 C 1576.54 -3.09454 3.09123 0
M  V30 16481 C 1575.6 -4.28305 3.05682 0
M  V30 16482 O 1574.62 -4.24205 3.79524 0
M  V30 16483 N 1575.83 -5.34932 2.2545 0
M  V30 16484 H 1578.59 -1.30341 2.69873 0
M  V30 16485 H 1576.15 -0.57023 1.51526 0
M  V30 16486 H 1578.14 -3.64961 1.74887 0
M  V30 16487 H 1576.71 -2.98835 0.917414 0
M  V30 16488 H 1575.93 -2.19623 3.27352 0
M  V30 16489 H 1577.22 -3.21089 3.94689 0
M  V30 16490 H 1576.62 -5.41121 1.64939 0
M  V30 16491 H 1575.18 -6.11189 2.26476 0
M  V30 16492 N 1578.61 -1.44039 -0.639573 0
M  V30 16493 C 1579.56 -1.50254 -1.75192 0
M  V30 16494 C 1580.53 -0.350994 -1.62349 0
M  V30 16495 O 1581.71 -0.56006 -1.82395 0
M  V30 16496 C 1578.85 -1.44464 -3.13407 0
M  V30 16497 C 1577.97 -2.69929 -3.37287 0
M  V30 16498 C 1577.1 -2.56031 -4.65426 0
M  V30 16499 C 1576.14 -3.76699 -4.82456 0
M  V30 16500 N 1575.28 -3.61529 -6.01865 0
M  V30 16501 H 1580.12 -2.45296 -1.69216 0
M  V30 16502 H 1577.65 -1.21748 -0.825576 0
M  V30 16503 H 1579.61 -1.39099 -3.93328 0
M  V30 16504 H 1578.24 -0.529951 -3.1842 0
M  V30 16505 H 1577.29 -2.85516 -2.51366 0
M  V30 16506 H 1578.61 -3.59523 -3.45753 0
M  V30 16507 H 1577.76 -2.48451 -5.53495 0
M  V30 16508 H 1576.5 -1.63983 -4.59305 0
M  V30 16509 H 1575.5 -3.84672 -3.92819 0
M  V30 16510 H 1576.73 -4.69772 -4.90398 0
M  V30 16511 H 1574.67 -2.72226 -5.96849 0
M  V30 16512 H 1574.59 -4.44733 -6.1135 0
M  V30 16513 H 1575.86 -3.57826 -6.92518 0
M  V30 16514 N 1580.09 0.879207 -1.30796 0
M  V30 16515 C 1581 2.01822 -1.19604 0
M  V30 16516 C 1582.01 1.73621 -0.114715 0
M  V30 16517 O 1583.19 1.98665 -0.330757 0
M  V30 16518 C 1580.26 3.3496 -0.894569 0
M  V30 16519 C 1579.32 3.76545 -2.06185 0
M  V30 16520 C 1578.55 5.0333 -1.77467 0
M  V30 16521 O 1578.77 5.66022 -0.70535 0
M  V30 16522 O 1577.71 5.41461 -2.62876 0
M  V30 16523 H 1581.53 2.14194 -2.15301 0
M  V30 16524 H 1579.12 1.00608 -1.10446 0
M  V30 16525 H 1581 4.14818 -0.741891 0
M  V30 16526 H 1579.67 3.23684 0.0324464 0
M  V30 16527 H 1578.58 2.97367 -2.26988 0
M  V30 16528 H 1579.91 3.92434 -2.97079 0
M  V30 16529 N 1581.57 1.13606 1.09231 0
M  V30 16530 C 1582.5 0.77306 2.15769 0
M  V30 16531 C 1583.51 -0.206148 1.6149 0
M  V30 16532 O 1584.7 0.014338 1.78494 0
M  V30 16533 C 1581.8 0.125475 3.38668 0
M  V30 16534 C 1580.97 1.13728 4.22356 0
M  V30 16535 C 1580.03 0.515021 5.23674 0
M  V30 16536 O 1579.06 1.1756 5.56928 0
M  V30 16537 N 1580.26 -0.712028 5.76117 0
M  V30 16538 H 1583.03 1.68984 2.47517 0
M  V30 16539 H 1580.59 1.02935 1.24964 0
M  V30 16540 H 1582.58 -0.303109 4.03563 0
M  V30 16541 H 1581.15 -0.694284 3.04792 0
M  V30 16542 H 1580.37 1.74309 3.53568 0
M  V30 16543 H 1581.66 1.82106 4.75094 0
M  V30 16544 H 1581.06 -1.26745 5.51319 0
M  V30 16545 H 1579.61 -1.08324 6.42736 0
M  V30 16546 N 1583.05 -1.27244 0.929878 0
M  V30 16547 C 1583.98 -2.29161 0.448066 0
M  V30 16548 C 1584.96 -1.62806 -0.492776 0
M  V30 16549 O 1586.14 -1.90098 -0.39706 0
M  V30 16550 C 1583.27 -3.46019 -0.298002 0
M  V30 16551 C 1582.23 -4.24384 0.555211 0
M  V30 16552 C 1581.55 -5.33741 -0.320153 0
M  V30 16553 C 1582.85 -4.89535 1.8208 0
M  V30 16554 H 1584.55 -2.69712 1.29983 0
M  V30 16555 H 1582.09 -1.29659 0.626466 0
M  V30 16556 H 1584.04 -4.16419 -0.646024 0
M  V30 16557 H 1582.77 -3.0439 -1.18381 0
M  V30 16558 H 1581.43 -3.55733 0.885971 0
M  V30 16559 H 1581.08 -4.88354 -1.20498 0
M  V30 16560 H 1580.78 -5.8708 0.247241 0
M  V30 16561 H 1582.3 -6.06982 -0.663697 0
M  V30 16562 H 1583.71 -5.52209 1.54071 0
M  V30 16563 H 1582.11 -5.52941 2.33186 0
M  V30 16564 H 1583.18 -4.13113 2.53901 0
M  V30 16565 N 1584.52 -0.695628 -1.41417 0
M  V30 16566 C 1585.77 -0.226171 -2.0083 0
M  V30 16567 C 1586.09 1.17833 -1.55371 0
M  V30 16568 O 1585.36 1.79512 -0.784362 0
M  V30 16569 H 1583.94 -0.0806271 -0.742636 0
M  V30 16570 H 1586.6 -0.8968 -1.73042 0
M  V30 16571 H 1585.7 -0.243643 -3.11148 0
M  V30 16572 N 1586 1.51322 -0.440383 0
M  V30 16573 C 1587.23 2.07017 0.126018 0
M  V30 16574 C 1587.65 1.30537 1.35431 0
M  V30 16575 O 1587.01 0.344178 1.78003 0
M  V30 16576 C 1587.06 3.58101 0.4238 0
M  V30 16577 O 1586.16 3.83772 1.50973 0
M  V30 16578 H 1585.5 0.664 0.000530178 0
M  V30 16579 H 1588.03 1.94897 -0.622594 0
M  V30 16580 H 1588.04 4.02405 0.673363 0
M  V30 16581 H 1586.72 4.13191 -0.473932 0
M  V30 16582 H 1585.29 3.51329 1.24989 0
M  V30 16583 N 1587.48 0.171848 1.5666 0
M  V30 16584 C 1588.44 -0.744316 2.16778 0
M  V30 16585 C 1589.44 -1.15769 1.11598 0
M  V30 16586 O 1590.63 -1.07456 1.37109 0
M  V30 16587 C 1587.76 -2.01319 2.75106 0
M  V30 16588 H 1588.96 -0.220952 2.99085 0
M  V30 16589 H 1586.51 -0.0777149 1.56107 0
M  V30 16590 H 1587.25 -2.57963 1.96534 0
M  V30 16591 H 1587.03 -1.72575 3.5208 0
M  V30 16592 H 1588.52 -2.667 3.21342 0
M  V30 16593 N 1588.96 -1.5727 -0.101874 0
M  V30 16594 C 1589.89 -2.04614 -1.12496 0
M  V30 16595 C 1590.87 -0.933768 -1.42179 0
M  V30 16596 O 1592.05 -1.2046 -1.52325 0
M  V30 16597 C 1589.18 -2.46488 -2.44665 0
M  V30 16598 C 1588.14 -3.61327 -2.29406 0
M  V30 16599 C 1587.46 -3.89155 -3.66691 0
M  V30 16600 C 1588.76 -4.92455 -1.74026 0
M  V30 16601 H 1590.46 -2.90336 -0.731109 0
M  V30 16602 H 1588 -1.39676 -0.350239 0
M  V30 16603 H 1589.96 -2.78216 -3.16502 0
M  V30 16604 H 1588.68 -1.57757 -2.85972 0
M  V30 16605 H 1587.34 -3.29835 -1.60015 0
M  V30 16606 H 1586.99 -2.97603 -4.05514 0
M  V30 16607 H 1586.69 -4.66465 -3.57329 0
M  V30 16608 H 1588.21 -4.23352 -4.40006 0
M  V30 16609 H 1589.63 -5.22609 -2.35697 0
M  V30 16610 H 1588.02 -5.73882 -1.75441 0
M  V30 16611 H 1589.09 -4.79833 -0.699136 0
M  V30 16612 N 1590.44 0.372521 -1.53134 0
M  V30 16613 C 1591.4 1.43875 -1.78417 0
M  V30 16614 C 1592.4 1.46879 -0.654455 0
M  V30 16615 O 1593.59 1.47761 -0.922619 0
M  V30 16616 C 1590.72 2.83046 -1.89994 0
M  V30 16617 H 1591.91 1.22733 -2.73636 0
M  V30 16618 H 1589.47 0.605247 -1.44106 0
M  V30 16619 H 1590.2 3.09511 -0.968179 0
M  V30 16620 H 1589.99 2.82265 -2.72156 0
M  V30 16621 H 1591.48 3.60273 -2.11171 0
M  V30 16622 N 1591.91 1.44376 0.631925 0
M  V30 16623 C 1592.82 1.5367 1.77264 0
M  V30 16624 C 1593.84 0.422425 1.68794 0
M  V30 16625 O 1595.02 0.679656 1.89585 0
M  V30 16626 C 1592.08 1.47743 3.13644 0
M  V30 16627 C 1591.14 2.70015 3.33752 0
M  V30 16628 C 1590.37 2.64362 4.63626 0
M  V30 16629 O 1590.6 1.7032 5.44378 0
M  V30 16630 O 1589.53 3.55201 4.85918 0
M  V30 16631 H 1593.36 2.5004 1.72376 0
M  V30 16632 H 1590.94 1.26614 0.793052 0
M  V30 16633 H 1592.82 1.46958 3.94945 0
M  V30 16634 H 1591.5 0.545165 3.19076 0
M  V30 16635 H 1590.41 2.76369 2.52133 0
M  V30 16636 H 1591.74 3.62286 3.33181 0
M  V30 16637 N 1593.39 -0.872258 1.31261 0
M  V30 16638 C 1594.32 -1.98231 1.13047 0
M  V30 16639 C 1595.3 -1.62563 0.0345979 0
M  V30 16640 O 1596.49 -1.87534 0.190586 0
M  V30 16641 C 1593.61 -3.30809 0.726841 0
M  V30 16642 C 1592.66 -3.85461 1.82542 0
M  V30 16643 S 1593.49 -4.11197 3.43041 0
M  V30 16644 C 1594.65 -5.46776 3.0461 0
M  V30 16645 H 1594.88 -2.13377 2.07021 0
M  V30 16646 H 1592.41 -1.02217 1.1572 0
M  V30 16647 H 1594.37 -4.07435 0.500707 0
M  V30 16648 H 1593.03 -3.13502 -0.193741 0
M  V30 16649 H 1592.23 -4.81299 1.49558 0
M  V30 16650 H 1591.83 -3.1562 2.0065 0
M  V30 16651 H 1594.12 -6.28343 2.53361 0
M  V30 16652 H 1595.06 -5.84708 3.99402 0
M  V30 16653 H 1595.47 -5.09941 2.42116 0
M  V30 16654 N 1594.87 -1.14184 -1.08627 0
M  V30 16655 C 1596.15 -0.81955 -1.77603 0
M  V30 16656 C 1596.53 0.687377 -1.99595 0
M  V30 16657 O 1595.87 1.62744 -1.60396 0
M  V30 16658 C 1596.08 -1.61574 -3.09346 0
M  V30 16659 C 1597.43 -1.81367 -3.83916 0
M  V30 16660 O 1598.46 -1.58241 -3.19121 0
M  V30 16661 O 1597.32 -2.20011 -5.00257 0
M  V30 16662 H 1594.41 -0.300086 -0.770635 0
M  V30 16663 H 1596.96 -1.24691 -1.15109 0
M  V30 16664 H 1595.73 -2.63946 -2.88874 0
M  V30 16665 H 1595.35 -1.18386 -3.79566 0
M  V30 16666 N 1596.35 1.26749 -0.936613 0
M  V30 16667 C 1597.76 1.46284 -0.638218 0
M  V30 16668 C 1597.96 1.84509 0.80986 0
M  V30 16669 O 1597.02 1.96399 1.58693 0
M  V30 16670 C 1598.33 2.54867 -1.59573 0
M  V30 16671 C 1599.88 2.68721 -1.60493 0
M  V30 16672 C 1600.36 3.80471 -2.54963 0
M  V30 16673 N 1601.85 3.87857 -2.53221 0
M  V30 16674 C 1602.58 4.73767 -3.23005 0
M  V30 16675 N 1602.08 5.641 -4.02198 0
M  V30 16676 N 1603.87 4.67574 -3.11979 0
M  V30 16677 H 1596.02 1.00224 -1.87267 0
M  V30 16678 H 1598.29 0.501478 -0.804502 0
M  V30 16679 H 1597.99 2.33594 -2.62919 0
M  V30 16680 H 1597.87 3.52433 -1.34427 0
M  V30 16681 H 1600.25 2.8937 -0.578729 0
M  V30 16682 H 1600.33 1.71613 -1.89691 0
M  V30 16683 H 1599.98 3.60575 -3.57698 0
M  V30 16684 H 1599.91 4.77026 -2.23056 0
M  V30 16685 H 1602.4 3.23272 -1.95714 0
M  V30 16686 H 1602.71 6.26535 -4.52409 0
M  V30 16687 H 1601.06 5.63866 -4.063 0
M  V30 16688 H 1604.25 3.96004 -2.49596 0
M  V30 16689 H 1604.42 5.34308 -3.66633 0
M  V30 16690 N 1597.83 0.703118 1.41046 0
M  V30 16691 C 1598.76 0.00331992 2.292 0
M  V30 16692 C 1599.77 -0.736648 1.4518 0
M  V30 16693 O 1600.96 -0.586097 1.68604 0
M  V30 16694 C 1598.06 -1.01948 3.23203 0
M  V30 16695 C 1597.23 -0.347591 4.36017 0
M  V30 16696 C 1596.29 -1.27404 5.10543 0
M  V30 16697 O 1595.32 -0.763558 5.64055 0
M  V30 16698 N 1596.52 -2.60596 5.1872 0
M  V30 16699 H 1599.29 0.760179 2.89899 0
M  V30 16700 H 1596.85 0.549747 1.52281 0
M  V30 16701 H 1598.84 -1.64115 3.6993 0
M  V30 16702 H 1597.41 -1.6778 2.63758 0
M  V30 16703 H 1596.63 0.454088 3.91576 0
M  V30 16704 H 1597.92 0.119295 5.0866 0
M  V30 16705 H 1597.31 -3.0458 4.76705 0
M  V30 16706 H 1595.87 -3.17939 5.68998 0
M  V30 16707 N 1599.3 -1.51086 0.448402 0
M  V30 16708 C 1600.23 -2.30896 -0.347773 0
M  V30 16709 C 1601.22 -1.36792 -1.01104 0
M  V30 16710 O 1602.4 -1.65713 -1.01257 0
M  V30 16711 C 1599.53 -3.15901 -1.44304 0
M  V30 16712 C 1598.48 -4.18373 -0.90265 0
M  V30 16713 C 1597.81 -4.9197 -2.0945 0
M  V30 16714 C 1599.11 -5.22252 0.0705335 0
M  V30 16715 H 1600.8 -2.97704 0.318273 0
M  V30 16716 H 1598.35 -1.43169 0.154509 0
M  V30 16717 H 1600.3 -3.70519 -2.00733 0
M  V30 16718 H 1599.03 -2.46935 -2.13753 0
M  V30 16719 H 1597.69 -3.64823 -0.3605 0
M  V30 16720 H 1597.33 -4.19497 -2.77545 0
M  V30 16721 H 1597.03 -5.6127 -1.73926 0
M  V30 16722 H 1598.56 -5.49415 -2.66412 0
M  V30 16723 H 1599.97 -5.71876 -0.403814 0
M  V30 16724 H 1598.37 -5.99142 0.338905 0
M  V30 16725 H 1599.44 -4.74398 1.00373 0
M  V30 16726 N 1600.78 -0.180154 -1.56567 0
M  V30 16727 C 1602.2 0.175902 -1.58628 0
M  V30 16728 C 1602.4 1.62179 -1.19583 0
M  V30 16729 O 1601.45 2.35471 -0.911566 0
M  V30 16730 C 1602.77 -0.11292 -3.00488 0
M  V30 16731 C 1604.32 -0.051834 -3.12957 0
M  V30 16732 C 1604.79 -0.313764 -4.56924 0
M  V30 16733 N 1606.28 -0.261852 -4.62459 0
M  V30 16734 C 1607.02 -0.438573 -5.7172 0
M  V30 16735 N 1606.51 -0.674832 -6.89506 0
M  V30 16736 N 1608.31 -0.373864 -5.60855 0
M  V30 16737 H 1600.46 -1.12385 -1.80232 0
M  V30 16738 H 1602.72 -0.447459 -0.835754 0
M  V30 16739 H 1602.43 -1.11488 -3.33562 0
M  V30 16740 H 1602.3 0.591409 -3.72535 0
M  V30 16741 H 1604.69 0.940711 -2.79705 0
M  V30 16742 H 1604.77 -0.78901 -2.43327 0
M  V30 16743 H 1604.41 -1.30356 -4.90887 0
M  V30 16744 H 1604.34 0.444127 -5.24724 0
M  V30 16745 H 1606.83 -0.0852513 -3.77804 0
M  V30 16746 H 1607.15 -0.798891 -7.6866 0
M  V30 16747 H 1605.49 -0.711551 -6.91348 0
M  V30 16748 H 1608.68 -0.189815 -4.67715 0
M  V30 16749 H 1608.85 -0.515012 -6.4595 0
M  V30 16750 N 1602.26 1.57322 0.0935319 0
M  V30 16751 C 1603.68 1.5319 0.447781 0
M  V30 16752 C 1603.88 0.897107 1.80428 0
M  V30 16753 O 1602.93 0.490285 2.47694 0
M  V30 16754 C 1604.25 2.97908 0.408832 0
M  V30 16755 C 1605.79 3.09132 0.490576 0
M  V30 16756 C 1606.27 4.55459 0.481759 0
M  V30 16757 N 1607.76 4.60013 0.542468 0
M  V30 16758 C 1608.49 5.70683 0.557509 0
M  V30 16759 N 1607.99 6.9078 0.528664 0
M  V30 16760 N 1609.78 5.58862 0.602438 0
M  V30 16761 H 1601.93 1.96962 -0.794965 0
M  V30 16762 H 1604.2 0.900583 -0.296064 0
M  V30 16763 H 1603.9 3.47823 -0.520766 0
M  V30 16764 H 1603.78 3.56678 1.22722 0
M  V30 16765 H 1606.16 2.59203 1.41059 0
M  V30 16766 H 1606.25 2.53311 -0.355982 0
M  V30 16767 H 1605.89 5.0604 -0.43432 0
M  V30 16768 H 1605.82 5.09119 1.34555 0
M  V30 16769 H 1608.31 3.73578 0.569892 0
M  V30 16770 H 1608.62 7.70887 0.543467 0
M  V30 16771 H 1606.97 6.9323 0.495687 0
M  V30 16772 H 1610.16 4.63942 0.622514 0
M  V30 16773 H 1610.33 6.45116 0.610691 0
M  V30 16774 N 1603.74 -0.364395 1.53329 0
M  V30 16775 C 1604.67 -1.45243 1.8283 0
M  V30 16776 C 1605.65 -1.55834 0.681886 0
M  V30 16777 O 1606.83 -1.70383 0.931845 0
M  V30 16778 C 1603.96 -2.82565 2.01926 0
M  V30 16779 C 1602.92 -2.86797 3.17697 0
M  V30 16780 C 1602.24 -4.26806 3.22089 0
M  V30 16781 C 1603.54 -2.54212 4.56261 0
M  V30 16782 H 1605.24 -1.20804 2.73946 0
M  V30 16783 H 1602.78 -0.579705 1.31816 0
M  V30 16784 H 1604.74 -3.58709 2.21147 0
M  V30 16785 H 1603.46 -3.08394 1.07521 0
M  V30 16786 H 1602.12 -2.13105 2.98298 0
M  V30 16787 H 1601.77 -4.49712 2.25318 0
M  V30 16788 H 1601.47 -4.30553 3.99873 0
M  V30 16789 H 1602.99 -5.04821 3.43495 0
M  V30 16790 H 1604.41 -3.20069 4.75635 0
M  V30 16791 H 1602.8 -2.69273 5.36295 0
M  V30 16792 H 1603.87 -1.49458 4.61292 0
M  V30 16793 N 1605.22 -1.44709 -0.62426 0
M  V30 16794 C 1606.18 -1.51738 -1.7178 0
M  V30 16795 C 1607.18 -0.398646 -1.5578 0
M  V30 16796 O 1608.37 -0.661525 -1.61151 0
M  V30 16797 C 1605.5 -1.39792 -3.1092 0
M  V30 16798 H 1606.69 -2.49154 -1.6692 0
M  V30 16799 H 1604.25 -1.31903 -0.838531 0
M  V30 16800 H 1604.98 -0.434955 -3.2137 0
M  V30 16801 H 1604.77 -2.20919 -3.2394 0
M  V30 16802 H 1606.26 -1.47706 -3.90606 0
M  V30 16803 N 1606.69 0.865285 -1.31722 0
M  V30 16804 C 1607.97 1.60146 -1.12306 0
M  V30 16805 C 1608.35 2.08653 0.320508 0
M  V30 16806 O 1607.7 1.86841 1.31539 0
M  V30 16807 C 1607.91 2.75583 -2.14138 0
M  V30 16808 C 1609.26 3.45429 -2.46909 0
M  V30 16809 O 1610.28 2.85795 -2.12602 0
M  V30 16810 O 1609.14 4.53017 -3.05676 0
M  V30 16811 H 1606.23 0.704786 -0.432673 0
M  V30 16812 H 1608.78 0.910339 -1.43216 0
M  V30 16813 H 1607.55 2.37187 -3.1122 0
M  V30 16814 H 1607.18 3.52378 -1.84161 0
M  V30 16815 N 1608.17 1.14759 1.0802 0
M  V30 16816 C 1609.4 0.941887 1.84218 0
M  V30 16817 C 1609.82 -0.509702 1.8179 0
M  V30 16818 O 1609.17 -1.35331 1.22441 0
M  V30 16819 C 1609.22 1.43978 3.31591 0
M  V30 16820 O 1608.94 2.83449 3.34048 0
M  V30 16821 C 1610.45 1.27459 4.24581 0
M  V30 16822 H 1607.67 0.334942 0.581425 0
M  V30 16823 H 1610.21 1.52367 1.36399 0
M  V30 16824 H 1608.36 0.900674 3.76785 0
M  V30 16825 H 1608.78 3.05878 4.26073 0
M  V30 16826 H 1610.25 1.67151 5.26084 0
M  V30 16827 H 1610.73 0.217925 4.38659 0
M  V30 16828 H 1611.34 1.80243 3.85217 0
M  V30 16829 N 1609.65 -1.26251 0.943322 0
M  V30 16830 C 1611.06 -1.75591 0.634391 0
M  V30 16831 C 1611.41 -1.76812 -0.850406 0
M  V30 16832 O 1610.54 -1.38162 -1.66554 0
M  V30 16833 C 1611.13 -3.18871 1.14484 0
M  V30 16834 C 1609.69 -3.65817 0.886285 0
M  V30 16835 C 1608.84 -2.4523 1.2945 0
M  V30 16836 H 1611.79 -1.12297 1.12139 0
M  V30 16837 H 1611.81 -3.77205 0.499654 0
M  V30 16838 H 1611.32 -3.17951 2.22551 0
M  V30 16839 H 1609.42 -3.72165 -0.179913 0
M  V30 16840 H 1609.54 -4.54523 1.5148 0
M  V30 16841 H 1607.9 -2.44519 0.712919 0
M  V30 16842 H 1608.68 -2.47009 2.38415 0
M  V30 16843 N 1611.13 -0.710588 -1.40671 0
M  V30 16844 C 1612.38 -0.257123 -2.01768 0
M  V30 16845 C 1612.73 1.13545 -1.55323 0
M  V30 16846 O 1612.02 1.75831 -0.761183 0
M  V30 16847 C 1612.22 -0.270478 -3.56375 0
M  V30 16848 C 1612.05 -1.66282 -4.17828 0
M  V30 16849 C 1610.82 -2.26928 -4.51478 0
M  V30 16850 C 1613.01 -2.61216 -4.43025 0
M  V30 16851 N 1611 -3.58569 -4.98298 0
M  V30 16852 C 1612.37 -3.77557 -4.91783 0
M  V30 16853 C 1614.42 -2.59291 -4.25056 0
M  V30 16854 C 1613.13 -4.92274 -5.24461 0
M  V30 16855 C 1615.15 -3.73132 -4.58831 0
M  V30 16856 C 1614.51 -4.88205 -5.07775 0
M  V30 16857 H 1610.61 -0.13981 -0.7694 0
M  V30 16858 H 1613.2 -0.931308 -1.70982 0
M  V30 16859 H 1611.37 0.373251 -3.86602 0
M  V30 16860 H 1613.1 0.199227 -4.04209 0
M  V30 16861 H 1609.85 -1.79072 -4.38441 0
M  V30 16862 H 1610.28 -4.26088 -5.26097 0
M  V30 16863 H 1614.92 -1.71533 -3.86441 0
M  V30 16864 H 1612.64 -5.80681 -5.61992 0
M  V30 16865 H 1616.22 -3.72912 -4.46573 0
M  V30 16866 H 1615.1 -5.74835 -5.33418 0
M  V30 16867 N 1612.61 1.50847 -0.456408 0
M  V30 16868 C 1613.54 2.31077 0.335523 0
M  V30 16869 C 1614.52 1.37326 1.00377 0
M  V30 16870 O 1615.7 1.66247 1.00376 0
M  V30 16871 C 1612.83 3.16662 1.42627 0
M  V30 16872 C 1611.79 4.18846 0.88045 0
M  V30 16873 C 1611.11 4.93074 2.06838 0
M  V30 16874 C 1612.41 5.22208 -0.0982288 0
M  V30 16875 H 1614.11 2.97531 -0.334056 0
M  V30 16876 H 1611.65 1.43085 -0.162099 0
M  V30 16877 H 1613.61 3.71578 1.98765 0
M  V30 16878 H 1612.33 2.48066 2.12441 0
M  V30 16879 H 1610.99 3.65009 0.341147 0
M  V30 16880 H 1610.64 4.20963 2.75316 0
M  V30 16881 H 1610.34 5.62184 1.70947 0
M  V30 16882 H 1611.86 5.5082 2.63494 0
M  V30 16883 H 1613.28 5.72082 0.373481 0
M  V30 16884 H 1611.67 5.98954 -0.370674 0
M  V30 16885 H 1612.74 4.73859 -1.02887 0
M  V30 16886 N 1614.09 0.188454 1.56469 0
M  V30 16887 C 1615.33 -0.454307 1.99287 0
M  V30 16888 C 1615.69 -1.59256 1.07245 0
M  V30 16889 O 1616.89 -2.29905 1.39273 0
M  V30 16890 C 1615.16 -0.908909 3.4565 0
M  V30 16891 S 1616.72 -1.55044 4.10496 0
M  V30 16892 H 1613.54 -0.145527 0.695948 0
M  V30 16893 H 1616.14 0.289956 1.93338 0
M  V30 16894 H 1614.84 -0.0703211 4.1034 0
M  V30 16895 H 1614.38 -1.6868 3.55402 0
M  V30 16896 H 1616.39 -2.83905 4.06955 0
M  V30 16897 N 1615.56 -1.5737 -0.0851874 0
M  V30 16898 C 1616.5 -1.99462 -1.12905 0
M  V30 16899 C 1617.51 -0.898597 -1.35754 0
M  V30 16900 O 1618.7 -1.17662 -1.34231 0
M  V30 16901 C 1615.8 -2.30689 -2.48266 0
M  V30 16902 C 1614.97 -3.61967 -2.45557 0
M  V30 16903 C 1614.03 -3.81017 -3.62922 0
M  V30 16904 O 1613.06 -4.52759 -3.44961 0
M  V30 16905 N 1614.26 -3.22348 -4.82775 0
M  V30 16906 H 1617.02 -2.89621 -0.7707 0
M  V30 16907 H 1614.58 -1.59564 -0.274033 0
M  V30 16908 H 1616.58 -2.40618 -3.254 0
M  V30 16909 H 1615.15 -1.46488 -2.76152 0
M  V30 16910 H 1614.37 -3.62916 -1.539 0
M  V30 16911 H 1615.65 -4.48191 -2.40836 0
M  V30 16912 H 1615.05 -2.64093 -5.00271 0
M  V30 16913 H 1613.61 -3.37747 -5.57468 0
M  V30 16914 N 1617.04 0.356258 -1.53521 0
M  V30 16915 C 1618.27 1.12273 -1.74383 0
M  V30 16916 C 1618.69 1.81981 -0.475881 0
M  V30 16917 O 1618.05 1.72083 0.570699 0
M  V30 16918 C 1618.1 2.12161 -2.91582 0
M  V30 16919 O 1617.2 3.1943 -2.60842 0
M  V30 16920 H 1616.54 0.325321 -0.578845 0
M  V30 16921 H 1619.07 0.410533 -2.00439 0
M  V30 16922 H 1619.08 2.55602 -3.18012 0
M  V30 16923 H 1617.76 1.60818 -3.8355 0
M  V30 16924 H 1616.33 2.80895 -2.4526 0
M  V30 16925 N 1618.52 1.45038 0.616577 0
M  V30 16926 C 1619.48 1.52647 1.70973 0
M  V30 16927 C 1620.48 0.406902 1.55567 0
M  V30 16928 O 1621.67 0.670062 1.60797 0
M  V30 16929 C 1618.8 1.41438 3.10174 0
M  V30 16930 H 1620 2.50036 1.65596 0
M  V30 16931 H 1617.55 1.32346 0.831524 0
M  V30 16932 H 1618.29 0.451991 3.21135 0
M  V30 16933 H 1618.07 2.22634 3.22764 0
M  V30 16934 H 1619.56 1.49776 3.89817 0
M  V30 16935 N 1620 -0.858287 1.32179 0
M  V30 16936 C 1620.91 -1.99894 1.228 0
M  V30 16937 C 1621.92 -1.73417 0.142323 0
M  V30 16938 O 1623.1 -1.98114 0.362321 0
M  V30 16939 C 1620.16 -3.33495 0.947745 0
M  V30 16940 C 1619.23 -3.73217 2.12149 0
M  V30 16941 C 1618.46 -5.00443 1.85452 0
M  V30 16942 O 1618.68 -5.64828 0.79531 0
M  V30 16943 O 1617.62 -5.3721 2.71457 0
M  V30 16944 H 1621.44 -2.10742 2.18682 0
M  V30 16945 H 1619.03 -0.988385 1.12033 0
M  V30 16946 H 1620.91 -4.13585 0.807791 0
M  V30 16947 H 1619.58 -3.23694 0.019053 0
M  V30 16948 H 1618.49 -2.93718 2.3169 0
M  V30 16949 H 1619.82 -3.87659 3.03285 0
M  V30 16950 N 1621.48 -1.1533 -1.07409 0
M  V30 16951 C 1622.89 -0.937287 -1.61468 0
M  V30 16952 C 1623.24 0.521545 -1.89141 0
M  V30 16953 O 1622.36 1.39253 -1.65643 0
M  V30 16954 C 1622.96 -1.69501 -2.93351 0
M  V30 16955 C 1621.52 -1.52429 -3.44154 0
M  V30 16956 C 1620.66 -1.71098 -2.18222 0
M  V30 16957 H 1623.61 -1.30364 -0.905044 0
M  V30 16958 H 1623.64 -1.16416 -3.62253 0
M  V30 16959 H 1623.15 -2.75672 -2.73178 0
M  V30 16960 H 1621.25 -0.486498 -3.6941 0
M  V30 16961 H 1621.36 -2.30089 -4.20233 0
M  V30 16962 H 1619.73 -1.13745 -2.27891 0
M  V30 16963 H 1620.51 -2.78634 -2.00545 0
M  V30 16964 N 1622.95 1.25748 -0.950004 0
M  V30 16965 C 1624.2 1.92954 -0.601104 0
M  V30 16966 C 1624.52 1.74817 0.863953 0
M  V30 16967 O 1623.79 1.10904 1.61484 0
M  V30 16968 H 1622.37 0.714077 -0.219325 0
M  V30 16969 H 1625.03 1.53009 -1.20724 0
M  V30 16970 H 1624.13 3.00959 -0.826447 0
M  V30 16971 N 1624.43 0.718038 1.40292 0
M  V30 16972 C 1625.71 0.185648 1.94717 0
M  V30 16973 C 1626.09 -1.30916 1.65603 0
M  V30 16974 O 1625.44 -2.06653 0.975031 0
M  V30 16975 C 1625.65 0.501015 3.45385 0
M  V30 16976 C 1626.99 0.441021 4.22303 0
M  V30 16977 O 1628.02 0.437217 3.53507 0
M  V30 16978 O 1626.88 0.420689 5.44878 0
M  V30 16979 H 1623.97 0.0281581 0.82652 0
M  V30 16980 H 1626.52 0.795738 1.49887 0
M  V30 16981 H 1625.29 1.5348 3.59944 0
M  V30 16982 H 1624.91 -0.138913 3.97357 0
M  V30 16983 N 1625.91 -1.50602 0.464402 0
M  V30 16984 C 1626.82 -2.32142 -0.338721 0
M  V30 16985 C 1627.84 -1.4223 -1.00233 0
M  V30 16986 O 1629.01 -1.75288 -0.99177 0
M  V30 16987 C 1626.08 -3.16725 -1.41019 0
M  V30 16988 C 1625.14 -4.22449 -0.76388 0
M  V30 16989 C 1624.37 -5.0299 -1.78429 0
M  V30 16990 O 1624.59 -4.84516 -3.00999 0
M  V30 16991 O 1623.53 -5.86338 -1.35982 0
M  V30 16992 H 1627.35 -3.01927 0.327695 0
M  V30 16993 H 1624.94 -1.47675 0.226379 0
M  V30 16994 H 1626.82 -3.69228 -2.03097 0
M  V30 16995 H 1625.5 -2.49675 -2.06019 0
M  V30 16996 H 1624.4 -3.73955 -0.104318 0
M  V30 16997 H 1625.74 -4.9195 -0.156929 0
M  V30 16998 N 1627.39 -0.19675 -1.56367 0
M  V30 16999 C 1628.3 0.735372 -2.22777 0
M  V30 17000 C 1629.31 1.23336 -1.22737 0
M  V30 17001 O 1630.49 1.28017 -1.55479 0
M  V30 17002 C 1627.56 1.93706 -2.8754 0
M  V30 17003 C 1626.62 1.48348 -4.02854 0
M  V30 17004 C 1625.85 2.62788 -4.64519 0
M  V30 17005 O 1626.07 3.80311 -4.25111 0
M  V30 17006 O 1625.01 2.35406 -5.53956 0
M  V30 17007 H 1628.83 0.199788 -3.03042 0
M  V30 17008 H 1626.42 0.0326149 -1.49364 0
M  V30 17009 H 1628.3 2.63934 -3.28507 0
M  V30 17010 H 1626.97 2.46121 -2.10252 0
M  V30 17011 H 1625.88 0.749939 -3.66506 0
M  V30 17012 H 1627.21 1.00597 -4.8181 0
M  V30 17013 N 1628.87 1.57413 0.0768405 0
M  V30 17014 C 1630.09 1.91607 0.793833 0
M  V30 17015 C 1630.52 0.792708 1.70581 0
M  V30 17016 O 1629.87 -0.25475 1.79501 0
M  V30 17017 C 1629.92 3.24736 1.56776 0
M  V30 17018 O 1629.03 3.13613 2.67807 0
M  V30 17019 H 1628.37 0.627572 0.216908 0
M  V30 17020 H 1630.9 2.04547 0.0465957 0
M  V30 17021 H 1630.91 3.58488 1.94809 0
M  V30 17022 H 1629.58 4.06077 0.898588 0
M  V30 17023 H 1628.16 2.91411 2.32668 0
M  V30 17024 N 1630.34 -0.348112 1.53707 0
M  V30 17025 C 1631.59 -1.09048 1.70987 0
M  V30 17026 C 1631.92 -1.88444 0.469305 0
M  V30 17027 O 1631.2 -1.87037 -0.533629 0
M  V30 17028 C 1631.48 -2.03542 2.97057 0
M  V30 17029 C 1631.33 -1.27638 4.3131 0
M  V30 17030 C 1632.65 -3.03424 3.18782 0
M  V30 17031 H 1629.77 -0.395049 0.622178 0
M  V30 17032 H 1632.41 -0.369498 1.86373 0
M  V30 17033 H 1630.56 -2.65021 2.8407 0
M  V30 17034 H 1632.24 -0.688079 4.56139 0
M  V30 17035 H 1630.48 -0.578349 4.29927 0
M  V30 17036 H 1631.15 -1.96891 5.15692 0
M  V30 17037 H 1633.63 -2.52056 3.31069 0
M  V30 17038 H 1632.5 -3.66748 4.08396 0
M  V30 17039 H 1632.76 -3.74553 2.34866 0
M  V30 17040 N 1631.82 -1.45363 -0.608876 0
M  V30 17041 C 1632.76 -1.48425 -1.73336 0
M  V30 17042 C 1633.73 -0.340757 -1.58989 0
M  V30 17043 O 1634.92 -0.541066 -1.80568 0
M  V30 17044 C 1632.04 -1.33807 -3.11149 0
M  V30 17045 C 1631.09 -2.52005 -3.44087 0
M  V30 17046 S 1631.92 -4.14477 -3.39071 0
M  V30 17047 C 1633.08 -4.02321 -4.79467 0
M  V30 17048 H 1633.31 -2.43568 -1.70475 0
M  V30 17049 H 1630.85 -1.32931 -0.785418 0
M  V30 17050 H 1632.8 -1.2606 -3.90665 0
M  V30 17051 H 1631.46 -0.401365 -3.11525 0
M  V30 17052 H 1630.66 -2.37699 -4.44427 0
M  V30 17053 H 1630.26 -2.56606 -2.72083 0
M  V30 17054 H 1632.55 -3.67386 -5.6924 0
M  V30 17055 H 1633.49 -5.02569 -4.98829 0
M  V30 17056 H 1633.9 -3.34 -4.55087 0
M  V30 17057 N 1633.3 0.851265 -1.32632 0
M  V30 17058 C 1634.23 1.97562 -1.24465 0
M  V30 17059 C 1635.21 1.69619 -0.127777 0
M  V30 17060 O 1636.4 1.9162 -0.315509 0
M  V30 17061 C 1633.53 3.33467 -0.970423 0
M  V30 17062 C 1632.48 3.75772 -2.0489 0
M  V30 17063 C 1631.81 5.09345 -1.62702 0
M  V30 17064 C 1633.11 3.90876 -3.4643 0
M  V30 17065 H 1634.8 2.04653 -2.18535 0
M  V30 17066 H 1632.35 0.983252 -1.05205 0
M  V30 17067 H 1634.3 4.11681 -0.899825 0
M  V30 17068 H 1633.02 3.26599 0.00591373 0
M  V30 17069 H 1631.68 2.99812 -2.1097 0
M  V30 17070 H 1631.33 4.98937 -0.638039 0
M  V30 17071 H 1631.03 5.38621 -2.34864 0
M  V30 17072 H 1632.55 5.90048 -1.57085 0
M  V30 17073 H 1633.97 4.59434 -3.42919 0
M  V30 17074 H 1632.37 4.31574 -4.1697 0
M  V30 17075 H 1633.44 2.93689 -3.85843 0
M  V30 17076 N 1634.78 1.15898 1.06796 0
M  V30 17077 C 1636.06 0.847701 1.76276 0
M  V30 17078 C 1636.44 -0.655537 2.00664 0
M  V30 17079 O 1635.78 -1.60171 1.62964 0
M  V30 17080 C 1635.99 1.66475 3.06736 0
M  V30 17081 C 1637.34 1.87452 3.80982 0
M  V30 17082 O 1638.37 1.63298 3.16563 0
M  V30 17083 O 1637.22 2.27942 4.96694 0
M  V30 17084 H 1634.32 0.312308 0.765763 0
M  V30 17085 H 1636.86 1.26507 1.13111 0
M  V30 17086 H 1635.64 2.68508 2.84638 0
M  V30 17087 H 1635.26 1.24409 3.77635 0
M  V30 17088 N 1636.26 -1.25243 0.956659 0
M  V30 17089 C 1637.19 -2.28159 0.496574 0
M  V30 17090 C 1638.17 -1.63814 -0.458132 0
M  V30 17091 O 1639.35 -1.90897 -0.356648 0
M  V30 17092 C 1636.48 -3.46573 -0.22454 0
M  V30 17093 C 1635.44 -4.2311 0.645104 0
M  V30 17094 C 1634.76 -5.343 -0.206867 0
M  V30 17095 C 1636.06 -4.85562 1.92422 0
M  V30 17096 H 1637.76 -2.66895 1.35675 0
M  V30 17097 H 1635.3 -1.28301 0.653827 0
M  V30 17098 H 1637.26 -4.17695 -0.55755 0
M  V30 17099 H 1635.98 -3.06833 -1.11898 0
M  V30 17100 H 1634.64 -3.53774 0.961228 0
M  V30 17101 H 1634.29 -4.908 -1.10112 0
M  V30 17102 H 1633.99 -5.86423 0.371714 0
M  V30 17103 H 1635.51 -6.08253 -0.534798 0
M  V30 17104 H 1636.92 -5.48817 1.65749 0
M  V30 17105 H 1635.32 -5.47871 2.44862 0
M  V30 17106 H 1636.39 -4.07634 2.62607 0
M  V30 17107 N 1637.73 -0.725468 -1.3991 0
M  V30 17108 C 1638.7 -0.0878956 -2.29031 0
M  V30 17109 C 1639.7 0.677105 -1.45849 0
M  V30 17110 O 1640.89 0.507538 -1.66642 0
M  V30 17111 C 1638.02 0.885087 -3.2921 0
M  V30 17112 H 1639.21 -0.872957 -2.86914 0
M  V30 17113 H 1636.77 -0.490715 -1.48397 0
M  V30 17114 H 1637.5 1.69685 -2.76365 0
M  V30 17115 H 1637.29 0.339297 -3.90629 0
M  V30 17116 H 1638.78 1.32806 -3.9592 0
M  V30 17117 N 1639.21 1.50354 -0.472382 0
M  V30 17118 C 1640.16 2.28555 0.321118 0
M  V30 17119 C 1641.13 1.33665 0.98605 0
M  V30 17120 O 1642.31 1.62603 0.998239 0
M  V30 17121 C 1639.45 3.15586 1.39641 0
M  V30 17122 C 1638.57 4.25508 0.746129 0
M  V30 17123 C 1637.7 4.99794 1.79943 0
M  V30 17124 C 1636.74 6.01589 1.12946 0
M  V30 17125 N 1635.88 6.69149 2.12567 0
M  V30 17126 H 1640.72 2.95913 -0.352051 0
M  V30 17127 H 1638.26 1.45926 -0.185461 0
M  V30 17128 H 1640.21 3.64397 2.03152 0
M  V30 17129 H 1638.84 2.50271 2.03873 0
M  V30 17130 H 1637.9 3.804 -0.00157718 0
M  V30 17131 H 1639.21 4.98326 0.217335 0
M  V30 17132 H 1638.36 5.5233 2.51031 0
M  V30 17133 H 1637.1 4.26684 2.36203 0
M  V30 17134 H 1636.11 5.48312 0.404207 0
M  V30 17135 H 1637.33 6.76672 0.573735 0
M  V30 17136 H 1635.28 5.9883 2.67841 0
M  V30 17137 H 1635.19 7.37847 1.64676 0
M  V30 17138 H 1636.46 7.26301 2.83031 0
M  V30 17139 N 1640.69 0.205039 1.56261 0
M  V30 17140 C 1642.11 -0.150644 1.58887 0
M  V30 17141 C 1642.31 -1.60256 1.22148 0
M  V30 17142 O 1641.36 -2.33991 0.948912 0
M  V30 17143 C 1642.68 0.160711 3.0027 0
M  V30 17144 C 1644.22 0.101616 3.12835 0
M  V30 17145 C 1644.7 0.386417 4.56367 0
M  V30 17146 N 1646.19 0.335392 4.61984 0
M  V30 17147 C 1646.93 0.529473 5.7095 0
M  V30 17148 N 1646.42 0.784441 6.88345 0
M  V30 17149 N 1648.21 0.463044 5.6019 0
M  V30 17150 H 1640.37 1.15238 1.78421 0
M  V30 17151 H 1642.63 0.460698 0.82853 0
M  V30 17152 H 1642.33 1.1678 3.31746 0
M  V30 17153 H 1642.21 -0.532067 3.73429 0
M  V30 17154 H 1644.6 -0.896093 2.81166 0
M  V30 17155 H 1644.68 0.827622 2.42041 0
M  V30 17156 H 1644.32 1.38149 4.88751 0
M  V30 17157 H 1644.25 -0.360592 5.25364 0
M  V30 17158 H 1646.74 0.145346 3.7762 0
M  V30 17159 H 1647.05 0.921077 7.67291 0
M  V30 17160 H 1645.4 0.821448 6.90128 0
M  V30 17161 H 1648.59 0.2642 4.67354 0
M  V30 17162 H 1648.76 0.617712 6.45049 0
M  V30 17163 N 1642.17 -1.57451 -0.0684915 0
M  V30 17164 C 1643.39 -1.92025 -0.78366 0
M  V30 17165 C 1643.82 -0.801743 -1.70158 0
M  V30 17166 O 1643.18 0.245227 -1.79634 0
M  V30 17167 C 1643.23 -3.25563 -1.55051 0
M  V30 17168 O 1642.33 -3.15029 -2.6614 0
M  V30 17169 H 1641.67 -0.628714 -0.213576 0
M  V30 17170 H 1644.2 -2.04569 -0.0357474 0
M  V30 17171 H 1644.21 -3.59516 -1.92905 0
M  V30 17172 H 1642.89 -4.06547 -0.87704 0
M  V30 17173 H 1641.46 -2.9264 -2.31119 0
M  V30 17174 N 1643.65 0.339955 -1.5389 0
M  V30 17175 C 1645.06 0.683287 -1.44234 0
M  V30 17176 C 1645.26 1.92298 -0.601976 0
M  V30 17177 O 1644.32 2.52324 -0.0943623 0
M  V30 17178 C 1645.63 0.872576 -2.87761 0
M  V30 17179 C 1647.18 0.970965 -2.97559 0
M  V30 17180 C 1647.66 1.19254 -4.42202 0
M  V30 17181 N 1649.15 1.25966 -4.45743 0
M  V30 17182 C 1649.88 1.44869 -5.54798 0
M  V30 17183 N 1649.38 1.6092 -6.73852 0
M  V30 17184 N 1651.17 1.47445 -5.42417 0
M  V30 17185 H 1643.32 -0.475086 -2.07019 0
M  V30 17186 H 1645.58 -0.150644 -0.935954 0
M  V30 17187 H 1645.29 0.033117 -3.51684 0
M  V30 17188 H 1645.16 1.77326 -3.32919 0
M  V30 17189 H 1647.55 1.80094 -2.33774 0
M  V30 17190 H 1647.63 0.0471065 -2.55757 0
M  V30 17191 H 1647.28 0.367482 -5.06569 0
M  V30 17192 H 1647.21 2.13002 -4.81599 0
M  V30 17193 H 1649.7 1.15072 -3.59954 0
M  V30 17194 H 1650.01 1.74989 -7.52727 0
M  V30 17195 H 1648.36 1.58049 -6.7679 0
M  V30 17196 H 1651.55 1.34489 -4.48364 0
M  V30 17197 H 1651.72 1.61834 -6.27466 0
M  V30 17198 N 1645.13 1.45684 0.601159 0
M  V30 17199 C 1646.35 1.53806 1.39135 0
M  V30 17200 C 1646.78 0.173625 1.87297 0
M  V30 17201 O 1646.13 -0.842931 1.60513 0
M  V30 17202 C 1646.18 2.53201 2.56752 0
M  V30 17203 O 1645.29 2.05427 3.57594 0
M  V30 17204 H 1644.63 0.51824 0.415118 0
M  V30 17205 H 1647.16 1.91095 0.731006 0
M  V30 17206 H 1647.17 2.72215 3.03912 0
M  V30 17207 H 1645.84 3.52294 2.21047 0
M  V30 17208 H 1644.42 1.96318 3.17039 0
M  V30 17209 N 1646.6 -0.84422 1.33082 0
M  V30 17210 C 1647.85 -1.59596 1.2399 0
M  V30 17211 C 1648.17 -1.94016 -0.19566 0
M  V30 17212 O 1647.44 -1.60512 -1.12306 0
M  V30 17213 H 1646.02 -0.591727 0.455926 0
M  V30 17214 H 1648.68 -1.00924 1.66735 0
M  V30 17215 H 1647.78 -2.52829 1.82986 0
M  V30 17216 N 1648.08 -1.16463 -1.0618 0
M  V30 17217 C 1649.03 -0.87224 -2.13683 0
M  V30 17218 C 1650 0.179784 -1.65124 0
M  V30 17219 O 1651.18 0.0447406 -1.90748 0
M  V30 17220 C 1648.32 -0.380728 -3.42993 0
M  V30 17221 C 1647.44 -1.49571 -4.05281 0
M  V30 17222 C 1646.57 -0.959099 -5.2247 0
M  V30 17223 C 1645.61 -2.05021 -5.76743 0
M  V30 17224 N 1644.75 -1.5291 -6.85247 0
M  V30 17225 H 1649.59 -1.79288 -2.38033 0
M  V30 17226 H 1647.12 -0.894379 -1.16787 0
M  V30 17227 H 1649.08 -0.0773816 -4.17128 0
M  V30 17228 H 1647.71 0.502966 -3.18857 0
M  V30 17229 H 1646.76 -1.915 -3.28682 0
M  V30 17230 H 1648.08 -2.31904 -4.41613 0
M  V30 17231 H 1647.23 -0.609003 -6.03636 0
M  V30 17232 H 1645.97 -0.105086 -4.87587 0
M  V30 17233 H 1644.97 -2.40899 -4.94214 0
M  V30 17234 H 1646.2 -2.90821 -6.13678 0
M  V30 17235 H 1644.15 -0.697639 -6.5228 0
M  V30 17236 H 1644.06 -2.28859 -7.20527 0
M  V30 17237 H 1645.33 -1.20762 -7.70089 0
M  V30 17238 N 1649.56 1.24734 -0.963288 0
M  V30 17239 C 1650.81 1.92686 -0.622766 0
M  V30 17240 C 1651.13 1.75357 0.841442 0
M  V30 17241 O 1650.39 1.09757 1.62025 0
M  V30 17242 C 1650.69 3.44867 -0.938151 0
M  V30 17243 C 1650.35 3.82361 -2.38979 0
M  V30 17244 C 1649.02 3.92307 -2.78655 0
M  V30 17245 C 1651.37 4.00775 -3.3321 0
M  V30 17246 C 1648.7 4.1808 -4.11614 0
M  V30 17247 C 1651.05 4.28043 -4.65792 0
M  V30 17248 C 1649.71 4.36207 -5.05252 0
M  V30 17249 H 1648.98 0.705088 -0.227886 0
M  V30 17250 H 1651.63 1.48107 -1.21395 0
M  V30 17251 H 1649.93 3.90905 -0.264676 0
M  V30 17252 H 1651.63 3.95645 -0.653134 0
M  V30 17253 H 1648.22 3.75182 -2.07212 0
M  V30 17254 H 1652.41 3.92497 -3.03743 0
M  V30 17255 H 1647.66 4.22619 -4.41818 0
M  V30 17256 H 1651.84 4.41236 -5.3878 0
M  V30 17257 H 1649.46 4.55931 -6.08301 0
M  V30 17258 N 1651.04 0.732878 1.39523 0
M  V30 17259 C 1652.45 0.408236 1.54291 0
M  V30 17260 C 1652.65 -1.08114 1.7004 0
M  V30 17261 O 1651.71 -1.86726 1.6997 0
M  V30 17262 C 1653.02 1.1894 2.76177 0
M  V30 17263 C 1654.57 1.17742 2.9001 0
M  V30 17264 C 1655.05 1.94111 4.14831 0
M  V30 17265 N 1656.54 1.91266 4.21867 0
M  V30 17266 C 1657.27 2.47167 5.17394 0
M  V30 17267 N 1656.77 3.11696 6.18723 0
M  V30 17268 N 1658.56 2.37212 5.09595 0
M  V30 17269 H 1650.71 1.69839 1.27548 0
M  V30 17270 H 1652.97 0.718844 0.618035 0
M  V30 17271 H 1652.68 2.24321 2.70875 0
M  V30 17272 H 1652.55 0.792439 3.68782 0
M  V30 17273 H 1654.94 0.131752 2.94806 0
M  V30 17274 H 1655.02 1.61374 1.98474 0
M  V30 17275 H 1654.67 2.98677 4.10797 0
M  V30 17276 H 1654.6 1.47886 5.05408 0
M  V30 17277 H 1657.09 1.44254 3.49284 0
M  V30 17278 H 1657.4 3.51823 6.8807 0
M  V30 17279 H 1655.75 3.15785 6.19116 0
M  V30 17280 H 1658.94 1.86444 4.29367 0
M  V30 17281 H 1659.11 2.81076 5.83866 0
M  V30 17282 N 1652.52 -1.50101 0.480349 0
M  V30 17283 C 1653.45 -2.31581 -0.298718 0
M  V30 17284 C 1654.43 -1.38905 -0.981798 0
M  V30 17285 O 1655.61 -1.67823 -0.977188 0
M  V30 17286 C 1652.74 -3.18891 -1.37571 0
M  V30 17287 C 1651.7 -4.20194 -0.813704 0
M  V30 17288 C 1651.02 -4.96302 -1.98968 0
M  V30 17289 C 1652.32 -5.21985 0.181295 0
M  V30 17290 H 1654.02 -2.96961 0.381349 0
M  V30 17291 H 1651.56 -1.42809 0.184842 0
M  V30 17292 H 1653.51 -3.74694 -1.92828 0
M  V30 17293 H 1652.24 -2.51414 -2.08467 0
M  V30 17294 H 1650.9 -3.65506 -0.283034 0
M  V30 17295 H 1650.55 -4.2529 -2.68584 0
M  V30 17296 H 1650.25 -5.64833 -1.61981 0
M  V30 17297 H 1651.77 -5.54943 -2.54698 0
M  V30 17298 H 1653.18 -5.72604 -0.28242 0
M  V30 17299 H 1651.58 -5.98289 0.465916 0
M  V30 17300 H 1652.65 -4.72162 1.10413 0
M  V30 17301 N 1653.99 -0.213323 -1.5615 0
M  V30 17302 C 1655.24 0.421221 -1.98377 0
M  V30 17303 C 1655.57 1.59998 -1.10065 0
M  V30 17304 O 1654.85 1.93869 -0.15654 0
M  V30 17305 C 1655.13 0.86375 -3.49587 0
M  V30 17306 C 1654.98 -0.318077 -4.48674 0
M  V30 17307 C 1656.3 1.72285 -4.04976 0
M  V30 17308 H 1653.42 0.151635 -0.721232 0
M  V30 17309 H 1656.06 -0.307907 -1.87488 0
M  V30 17310 H 1654.21 1.48503 -3.58998 0
M  V30 17311 H 1655.89 -0.956094 -4.51283 0
M  V30 17312 H 1654.13 -0.966881 -4.22888 0
M  V30 17313 H 1654.8 0.0343662 -5.51989 0
M  V30 17314 H 1657.28 1.19872 -3.98459 0
M  V30 17315 H 1656.15 2.0014 -5.11112 0
M  V30 17316 H 1656.41 2.68336 -3.51352 0
M  V30 17317 N 1655.47 1.57485 0.0601405 0
M  V30 17318 C 1656.7 1.92051 0.769681 0
M  V30 17319 C 1657.12 0.810364 1.70524 0
M  V30 17320 O 1656.47 -0.215527 1.81223 0
M  V30 17321 C 1656.52 3.26423 1.55339 0
M  V30 17322 O 1656.24 4.3317 0.655423 0
M  V30 17323 C 1657.75 3.75076 2.36289 0
M  V30 17324 H 1654.97 0.63454 0.218175 0
M  V30 17325 H 1657.51 2.04482 0.0269308 0
M  V30 17326 H 1655.66 3.15483 2.24831 0
M  V30 17327 H 1656.08 5.10548 1.20171 0
M  V30 17328 H 1657.55 4.71695 2.86719 0
M  V30 17329 H 1658.03 3.04677 3.16336 0
M  V30 17330 H 1658.64 3.88998 1.71932 0
M  V30 17331 N 1656.95 -0.331789 1.54068 0
M  V30 17332 C 1657.9 -1.40798 1.82879 0
M  V30 17333 C 1658.87 -1.51753 0.675292 0
M  V30 17334 O 1660.05 -1.67105 0.920905 0
M  V30 17335 C 1657.19 -2.7728 2.0545 0
M  V30 17336 C 1656.31 -2.75022 3.33147 0
M  V30 17337 C 1655.44 -4.03297 3.45723 0
M  V30 17338 C 1654.48 -3.95314 4.67326 0
M  V30 17339 N 1653.62 -5.15303 4.76872 0
M  V30 17340 H 1658.46 -1.15529 2.74695 0
M  V30 17341 H 1655.99 -0.559411 1.36048 0
M  V30 17342 H 1657.95 -3.56611 2.16528 0
M  V30 17343 H 1656.58 -3.00875 1.16935 0
M  V30 17344 H 1655.63 -1.87729 3.30851 0
M  V30 17345 H 1656.95 -2.65003 4.22581 0
M  V30 17346 H 1656.1 -4.91057 3.56297 0
M  V30 17347 H 1654.84 -4.16112 2.54367 0
M  V30 17348 H 1653.84 -3.05939 4.56817 0
M  V30 17349 H 1655.07 -3.84072 5.60058 0
M  V30 17350 H 1653.01 -5.28639 3.88429 0
M  V30 17351 H 1652.93 -5.07588 5.60259 0
M  V30 17352 H 1654.2 -6.04801 4.91769 0
M  V30 17353 N 1658.43 -1.46001 -0.593424 0
M  V30 17354 C 1659.68 -1.50755 -1.352 0
M  V30 17355 C 1660 -0.154929 -1.93882 0
M  V30 17356 O 1659.26 0.848161 -1.76365 0
M  V30 17357 C 1659.56 -2.54568 -2.50858 0
M  V30 17358 C 1659.22 -3.98888 -2.10236 0
M  V30 17359 C 1657.89 -4.38182 -1.98872 0
M  V30 17360 C 1660.24 -4.89591 -1.78746 0
M  V30 17361 C 1657.57 -5.66057 -1.5426 0
M  V30 17362 C 1659.92 -6.17892 -1.35617 0
M  V30 17363 C 1658.58 -6.56103 -1.22822 0
M  V30 17364 H 1657.85 -0.551652 -0.494734 0
M  V30 17365 H 1660.5 -1.79422 -0.669327 0
M  V30 17366 H 1658.8 -2.19523 -3.24526 0
M  V30 17367 H 1660.5 -2.5548 -3.09081 0
M  V30 17368 H 1657.09 -3.67822 -2.20012 0
M  V30 17369 H 1661.27 -4.59959 -1.86416 0
M  V30 17370 H 1656.53 -5.94444 -1.42988 0
M  V30 17371 H 1660.7 -6.87609 -1.10301 0
M  V30 17372 H 1658.33 -7.55086 -0.880285 0
M  V30 17373 N 1659.91 0.83715 -1.33527 0
M  V30 17374 C 1660.85 1.94709 -1.23924 0
M  V30 17375 C 1661.82 1.65684 -0.117494 0
M  V30 17376 O 1663.01 1.88489 -0.296057 0
M  V30 17377 C 1660.15 3.3071 -0.986146 0
M  V30 17378 C 1659.26 3.72121 -2.19432 0
M  V30 17379 C 1658.4 4.96999 -1.87524 0
M  V30 17380 C 1657.44 5.3095 -3.04563 0
M  V30 17381 N 1656.57 6.47006 -2.72632 0
M  V30 17382 H 1661.41 2.02255 -2.18854 0
M  V30 17383 H 1658.95 0.989703 -1.08827 0
M  V30 17384 H 1660.91 4.09065 -0.819834 0
M  V30 17385 H 1659.54 3.22716 -0.0735786 0
M  V30 17386 H 1658.59 2.89274 -2.47032 0
M  V30 17387 H 1659.9 3.93192 -3.06923 0
M  V30 17388 H 1659.06 5.83107 -1.67546 0
M  V30 17389 H 1657.79 4.77901 -0.972714 0
M  V30 17390 H 1656.8 4.43346 -3.25153 0
M  V30 17391 H 1658.02 5.51995 -3.95573 0
M  V30 17392 H 1655.97 6.29391 -1.8494 0
M  V30 17393 H 1655.89 6.6818 -3.53654 0
M  V30 17394 H 1657.16 7.3622 -2.56125 0
M  V30 17395 N 1661.38 1.17024 1.05561 0
M  V30 17396 C 1662.33 0.88356 2.13218 0
M  V30 17397 C 1663.3 -0.171025 1.65217 0
M  V30 17398 O 1664.49 -0.0346242 1.90769 0
M  V30 17399 C 1661.63 0.398912 3.42787 0
M  V30 17400 C 1660.74 1.51718 4.04482 0
M  V30 17401 C 1659.87 0.986793 5.21954 0
M  V30 17402 C 1658.91 2.08077 5.75648 0
M  V30 17403 N 1658.05 1.56542 6.84426 0
M  V30 17404 H 1662.89 1.80548 2.37079 0
M  V30 17405 H 1660.43 0.90056 1.16311 0
M  V30 17406 H 1662.39 0.0995018 4.17081 0
M  V30 17407 H 1661.02 -0.48605 3.1912 0
M  V30 17408 H 1660.07 1.9324 3.27662 0
M  V30 17409 H 1661.38 2.34243 4.40377 0
M  V30 17410 H 1660.53 0.641006 6.03304 0
M  V30 17411 H 1659.27 0.130942 4.87524 0
M  V30 17412 H 1658.28 2.43517 4.9293 0
M  V30 17413 H 1659.5 2.94071 6.12127 0
M  V30 17414 H 1657.45 0.732221 6.51901 0
M  V30 17415 H 1657.37 2.32677 7.19303 0
M  V30 17416 H 1658.63 1.24844 7.69438 0
M  V30 17417 N 1662.86 -1.24221 0.969889 0
M  V30 17418 C 1663.77 -2.29001 0.509467 0
M  V30 17419 C 1664.79 -1.68587 -0.430637 0
M  V30 17420 O 1665.96 -1.99106 -0.303142 0
M  V30 17421 C 1663.03 -3.46174 -0.190906 0
M  V30 17422 C 1662.09 -4.21982 0.789296 0
M  V30 17423 C 1661.32 -5.3356 0.122252 0
M  V30 17424 O 1661.55 -5.59909 -1.08896 0
M  V30 17425 O 1660.48 -5.9635 0.815517 0
M  V30 17426 H 1664.31 -2.70506 1.38058 0
M  V30 17427 H 1661.89 -1.29955 0.737028 0
M  V30 17428 H 1663.77 -4.1733 -0.584244 0
M  V30 17429 H 1662.45 -3.06642 -1.03695 0
M  V30 17430 H 1661.36 -3.53192 1.23313 0
M  V30 17431 H 1662.69 -4.65337 1.60382 0
M  V30 17432 N 1664.34 -0.740267 -1.39132 0
M  V30 17433 C 1665.29 -0.103744 -2.30567 0
M  V30 17434 C 1666.26 0.724026 -1.49489 0
M  V30 17435 O 1667.44 0.682904 -1.7816 0
M  V30 17436 C 1664.58 0.793587 -3.35851 0
M  V30 17437 C 1663.7 -0.0473671 -4.31974 0
M  V30 17438 C 1662.83 0.851726 -5.24327 0
M  V30 17439 C 1661.87 0.00633633 -6.121 0
M  V30 17440 N 1661.01 0.861652 -6.96793 0
M  V30 17441 H 1665.85 -0.889087 -2.84428 0
M  V30 17442 H 1663.38 -0.450093 -1.40045 0
M  V30 17443 H 1665.34 1.32834 -3.95488 0
M  V30 17444 H 1663.97 1.54485 -2.83433 0
M  V30 17445 H 1663.02 -0.699601 -3.73911 0
M  V30 17446 H 1664.34 -0.700806 -4.93852 0
M  V30 17447 H 1663.49 1.45413 -5.89016 0
M  V30 17448 H 1662.23 1.53893 -4.62783 0
M  V30 17449 H 1661.23 -0.608833 -5.46419 0
M  V30 17450 H 1662.46 -0.677731 -6.7571 0
M  V30 17451 H 1660.4 1.53405 -6.37811 0
M  V30 17452 H 1660.32 0.264812 -7.55536 0
M  V30 17453 H 1661.59 1.44945 -7.65905 0
M  V30 17454 N 1665.82 1.49844 -0.488302 0
M  V30 17455 C 1666.77 2.30515 0.310703 0
M  V30 17456 C 1667.76 1.38559 0.974569 0
M  V30 17457 O 1668.97 1.5567 0.903708 0
M  V30 17458 H 1665.34 0.742517 0.119049 0
M  V30 17459 H 1667.31 2.95842 -0.389849 0
M  V30 17460 C 1666.06 3.19575 1.36994 0
M  V30 17461 H 1665.38 3.90253 0.868497 0
M  V30 17462 H 1666.82 3.78984 1.90123 0
M  V30 17463 C 1665.28 2.38324 2.38124 0
M  V30 17464 O 1665.81 2.07842 3.43751 0
M  V30 17465 N 1664.02 2.00583 2.10273 0
M  V30 17466 H 1663.57 2.25572 1.24399 0
M  V30 17467 H 1663.52 1.46525 2.78169 0
M  V30 17468 N 1667.3 0.221601 1.56034 0
M  V30 17469 C 1668.24 -0.704963 2.2166 0
M  V30 17470 C 1669.24 -1.19966 1.19601 0
M  V30 17471 O 1670.44 -1.15949 1.37681 0
M  V30 17472 H 1666.82 -0.245758 0.710709 0
M  V30 17473 H 1668.79 -0.128041 2.98125 0
M  V30 17474 C 1667.54 -1.90234 2.91043 0
M  V30 17475 H 1666.86 -1.53079 3.69333 0
M  V30 17476 H 1668.3 -2.52844 3.40361 0
M  V30 17477 C 1666.76 -2.75777 1.93516 0
M  V30 17478 O 1667.29 -3.74534 1.45214 0
M  V30 17479 N 1665.5 -2.41815 1.61165 0
M  V30 17480 H 1665.04 -1.61561 2.00639 0
M  V30 17481 H 1665 -2.9933 0.96172 0
M  V30 17482 N 1668.77 -1.57515 -0.0517878 0
M  V30 17483 C 1669.72 -2.05051 -1.05937 0
M  V30 17484 C 1670.69 -0.935032 -1.37282 0
M  V30 17485 O 1671.88 -1.20408 -1.48009 0
M  V30 17486 C 1669.02 -2.51594 -2.36208 0
M  V30 17487 C 1668.13 -3.76843 -2.11219 0
M  V30 17488 C 1667.26 -4.12088 -3.35197 0
M  V30 17489 C 1666.3 -5.30318 -3.05662 0
M  V30 17490 N 1665.44 -5.61104 -4.22026 0
M  V30 17491 H 1670.28 -2.90891 -0.647027 0
M  V30 17492 H 1667.82 -1.43842 -0.307891 0
M  V30 17493 H 1669.78 -2.76638 -3.12293 0
M  V30 17494 H 1668.41 -1.68704 -2.75207 0
M  V30 17495 H 1667.46 -3.5902 -1.25734 0
M  V30 17496 H 1668.77 -4.63057 -1.85416 0
M  V30 17497 H 1667.92 -4.38139 -4.19666 0
M  V30 17498 H 1666.66 -3.24479 -3.64094 0
M  V30 17499 H 1665.67 -5.04043 -2.19592 0
M  V30 17500 H 1666.89 -6.19561 -2.78067 0
M  V30 17501 H 1664.84 -4.76456 -4.50917 0
M  V30 17502 H 1664.76 -6.4178 -3.99568 0
M  V30 17503 H 1666.02 -5.91719 -5.07434 0
M  V30 17504 N 1670.25 0.323614 -1.54242 0
M  V30 17505 C 1671.2 1.4184 -1.84348 0
M  V30 17506 C 1672.2 1.53553 -0.715384 0
M  V30 17507 O 1673.4 1.5594 -0.899045 0
M  V30 17508 H 1669.78 0.473326 -0.584352 0
M  V30 17509 H 1671.75 1.13672 -2.75901 0
M  V30 17510 C 1670.5 2.78059 -2.08755 0
M  V30 17511 H 1669.82 2.69819 -2.95021 0
M  V30 17512 H 1671.26 3.53731 -2.33774 0
M  V30 17513 C 1669.72 3.25229 -0.879076 0
M  V30 17514 O 1670.25 4.01603 -0.0883125 0
M  V30 17515 N 1668.45 2.82272 -0.690726 0
M  V30 17516 H 1668 2.20283 -1.33542 0
M  V30 17517 H 1667.96 3.14185 0.116344 0
M  V30 17518 N 1671.73 1.46313 0.585673 0
M  V30 17519 C 1672.68 1.56653 1.69495 0
M  V30 17520 C 1673.65 0.411007 1.60935 0
M  V30 17521 O 1674.83 0.627369 1.80191 0
M  V30 17522 C 1671.97 1.55996 3.0783 0
M  V30 17523 C 1671.09 2.82261 3.27036 0
M  V30 17524 C 1670.22 2.73129 4.55603 0
M  V30 17525 C 1669.26 3.94346 4.68143 0
M  V30 17526 N 1668.4 3.83617 5.88032 0
M  V30 17527 H 1673.24 2.51407 1.59995 0
M  V30 17528 H 1670.77 1.24729 0.779821 0
M  V30 17529 H 1672.73 1.53602 3.87895 0
M  V30 17530 H 1671.36 0.647766 3.16234 0
M  V30 17531 H 1670.41 2.94648 2.40596 0
M  V30 17532 H 1671.73 3.72107 3.32171 0
M  V30 17533 H 1670.88 2.68823 5.43893 0
M  V30 17534 H 1669.62 1.80917 4.52902 0
M  V30 17535 H 1668.62 3.98987 3.78272 0
M  V30 17536 H 1669.85 4.8765 4.72625 0
M  V30 17537 H 1667.8 2.9419 5.86334 0
M  V30 17538 H 1667.71 4.67117 5.94422 0
M  V30 17539 H 1668.98 3.83281 6.7876 0
M  V30 17540 N 1673.21 -0.830057 1.33969 0
M  V30 17541 C 1674.12 -1.97244 1.27012 0
M  V30 17542 C 1675.14 -1.73076 0.179075 0
M  V30 17543 O 1676.31 -1.97301 0.404262 0
M  V30 17544 C 1673.38 -3.31409 1.01827 0
M  V30 17545 C 1672.44 -3.68633 2.20018 0
M  V30 17546 C 1671.67 -4.96397 1.96025 0
M  V30 17547 O 1671.89 -5.63014 0.91494 0
M  V30 17548 O 1670.83 -5.31331 2.82791 0
M  V30 17549 H 1674.65 -2.06056 2.23103 0
M  V30 17550 H 1672.24 -0.964399 1.14104 0
M  V30 17551 H 1674.12 -4.11779 0.895337 0
M  V30 17552 H 1672.8 -3.23581 0.0877091 0
M  V30 17553 H 1671.7 -2.88738 2.37869 0
M  V30 17554 H 1673.04 -3.81138 3.11439 0
M  V30 17555 N 1674.69 -1.17582 -1.04939 0
M  V30 17556 C 1675.65 -0.897095 -2.10914 0
M  V30 17557 C 1676.65 0.113823 -1.60397 0
M  V30 17558 O 1677.84 -0.118635 -1.73796 0
M  V30 17559 C 1674.97 -0.344251 -3.39157 0
M  V30 17560 H 1676.17 -1.83674 -2.37074 0
M  V30 17561 H 1673.72 -0.986634 -1.21224 0
M  V30 17562 H 1674.45 0.602417 -3.18656 0
M  V30 17563 H 1674.24 -1.07287 -3.77137 0
M  V30 17564 H 1675.73 -0.167644 -4.17263 0
M  V30 17565 N 1676.17 1.23705 -0.976463 0
M  V30 17566 C 1677.12 2.22789 -0.484676 0
M  V30 17567 C 1678.1 1.5482 0.43814 0
M  V30 17568 O 1679.29 1.74965 0.267635 0
M  V30 17569 C 1676.42 3.42624 0.21541 0
M  V30 17570 C 1675.51 4.17827 -0.726745 0
M  V30 17571 N 1675.9 4.70053 -1.86771 0
M  V30 17572 C 1674.2 4.42728 -0.539282 0
M  V30 17573 C 1674.9 5.27229 -2.45773 0
M  V30 17574 N 1673.87 5.14932 -1.742 0
M  V30 17575 H 1677.67 2.60795 -1.35511 0
M  V30 17576 H 1675.19 1.39191 -0.836644 0
M  V30 17577 H 1677.19 4.12775 0.585009 0
M  V30 17578 H 1675.85 3.06135 1.08218 0
M  V30 17579 H 1676.86 4.66519 -2.24901 0
M  V30 17580 H 1673.53 4.16541 0.282799 0
M  V30 17581 H 1674.92 5.78284 -3.42106 0
M  V30 17582 N 1677.64 0.747635 1.38738 0
M  V30 17583 C 1678.87 0.310484 2.05063 0
M  V30 17584 C 1679.29 -1.05078 1.56013 0
M  V30 17585 O 1678.65 -1.66842 0.709461 0
M  V30 17586 C 1678.7 0.335837 3.59033 0
M  V30 17587 O 1677.8 -0.672218 4.06884 0
M  V30 17588 H 1677.14 0.138591 0.649375 0
M  V30 17589 H 1679.67 1.01709 1.77529 0
M  V30 17590 H 1679.68 0.184631 4.07582 0
M  V30 17591 H 1678.36 1.32906 3.94092 0
M  V30 17592 H 1676.94 -0.486112 3.69718 0
M  V30 17593 N 1679.12 -1.49583 0.496242 0
M  V30 17594 C 1680.35 -2.07342 -0.0490986 0
M  V30 17595 C 1680.77 -1.35474 -1.30493 0
M  V30 17596 O 1680.13 -0.410005 -1.76603 0
M  V30 17597 C 1680.18 -3.59427 -0.290601 0
M  V30 17598 O 1679.28 -3.89111 -1.36626 0
M  V30 17599 H 1678.62 -0.663562 0.0241141 0
M  V30 17600 H 1681.15 -1.92452 0.6945 0
M  V30 17601 H 1681.16 -4.04627 -0.523549 0
M  V30 17602 H 1679.84 -4.11147 0.626959 0
M  V30 17603 H 1678.41 -3.55726 -1.11864 0
M  V30 17604 N 1680.6 -0.229873 -1.55915 0
M  V30 17605 C 1681.53 0.671321 -2.23642 0
M  V30 17606 C 1682.51 1.19461 -1.21091 0
M  V30 17607 O 1683.7 1.23708 -1.49699 0
M  V30 17608 C 1680.83 1.87595 -2.92276 0
M  V30 17609 C 1679.78 1.48616 -4.01369 0
M  V30 17610 C 1679.11 2.77024 -4.57342 0
M  V30 17611 C 1680.41 0.669928 -5.17986 0
M  V30 17612 H 1682.1 0.106622 -2.9921 0
M  V30 17613 H 1679.65 0.0498418 -1.43914 0
M  V30 17614 H 1681.6 2.51191 -3.3835 0
M  V30 17615 H 1680.32 2.46576 -2.14168 0
M  V30 17616 H 1678.98 0.873623 -3.56038 0
M  V30 17617 H 1678.63 3.34166 -3.75955 0
M  V30 17618 H 1678.33 2.51674 -5.30975 0
M  V30 17619 H 1679.85 3.41548 -5.0614 0
M  V30 17620 H 1681.27 1.20978 -5.6039 0
M  V30 17621 H 1679.66 0.513174 -5.97902 0
M  V30 17622 H 1680.73 -0.321644 -4.83832 0
M  V30 17623 N 1682.08 1.5754 0.0434337 0
M  V30 17624 C 1683.33 1.88235 0.735652 0
M  V30 17625 C 1683.65 0.825698 1.76656 0
M  V30 17626 O 1682.92 -0.142424 1.95382 0
M  V30 17627 H 1681.5 0.694661 0.274692 0
M  V30 17628 H 1684.16 1.94896 0.0127911 0
M  V30 17629 H 1683.25 2.86659 1.23421 0
M  V30 17630 N 1683.56 -0.31543 1.54411 0
M  V30 17631 C 1684.52 -1.37154 1.83634 0
M  V30 17632 C 1685.52 -1.44349 0.708518 0
M  V30 17633 O 1686.71 -1.44235 0.976824 0
M  V30 17634 C 1683.84 -2.758 2.00368 0
M  V30 17635 H 1685.03 -1.12493 2.78002 0
M  V30 17636 H 1682.59 -0.551346 1.46253 0
M  V30 17637 H 1683.32 -3.05704 1.08238 0
M  V30 17638 H 1683.11 -2.7197 2.82445 0
M  V30 17639 H 1684.6 -3.52187 2.24397 0
M  V30 17640 N 1685.03 -1.46622 -0.577906 0
M  V30 17641 C 1686.45 -1.46287 -1.16004 0
M  V30 17642 C 1686.8 -0.206307 -1.95112 0
M  V30 17643 O 1685.92 0.690275 -2.05096 0
M  V30 17644 C 1686.52 -2.65042 -2.1104 0
M  V30 17645 C 1685.08 -2.67733 -2.64567 0
M  V30 17646 C 1684.22 -2.39053 -1.40531 0
M  V30 17647 H 1687.17 -1.54432 -0.365585 0
M  V30 17648 H 1687.19 -2.40834 -2.94583 0
M  V30 17649 H 1686.71 -3.56481 -1.53436 0
M  V30 17650 H 1684.81 -1.80379 -3.26028 0
M  V30 17651 H 1684.92 -3.67836 -3.06974 0
M  V30 17652 H 1683.28 -1.89209 -1.70506 0
M  V30 17653 H 1684.07 -3.32674 -0.847509 0
M  V30 17654 N 1686.51 0.822941 -1.34408 0
M  V30 17655 C 1687.76 1.58149 -1.26951 0
M  V30 17656 C 1688.09 1.93538 0.160222 0
M  V30 17657 O 1687.37 1.60021 1.1056 0
M  V30 17658 C 1687.65 2.88101 -2.16032 0
M  V30 17659 C 1687.5 2.59293 -3.67542 0
M  V30 17660 C 1688.82 3.89673 -2.04556 0
M  V30 17661 H 1685.94 0.573811 -0.462504 0
M  V30 17662 H 1688.58 0.948017 -1.64659 0
M  V30 17663 H 1686.73 3.42162 -1.84003 0
M  V30 17664 H 1688.4 2.11542 -4.09936 0
M  V30 17665 H 1686.65 1.92738 -3.88632 0
M  V30 17666 H 1687.32 3.51962 -4.25238 0
M  V30 17667 H 1689.79 3.44965 -2.32677 0
M  V30 17668 H 1688.67 4.78404 -2.69111 0
M  V30 17669 H 1688.93 4.30113 -1.02253 0
M  V30 17670 N 1687.99 1.18137 1.04314 0
M  V30 17671 C 1688.94 0.874118 2.10578 0
M  V30 17672 C 1689.92 -0.155094 1.60151 0
M  V30 17673 O 1691.12 0.0485958 1.76933 0
M  V30 17674 C 1688.25 0.3989 3.40975 0
M  V30 17675 C 1687.33 1.46004 3.98175 0
M  V30 17676 N 1687.72 2.67584 4.29223 0
M  V30 17677 C 1686.02 1.31997 4.2602 0
M  V30 17678 C 1686.72 3.35835 4.74963 0
M  V30 17679 N 1685.7 2.63216 4.75624 0
M  V30 17680 H 1689.5 1.79837 2.32456 0
M  V30 17681 H 1687.01 1.0714 1.22044 0
M  V30 17682 H 1689.01 0.160295 4.16592 0
M  V30 17683 H 1687.67 -0.519041 3.20525 0
M  V30 17684 H 1688.68 3.04473 4.18947 0
M  V30 17685 H 1685.36 0.464377 4.14909 0
M  V30 17686 H 1686.75 4.39727 5.08026 0
M  V30 17687 N 1689.47 -1.23186 0.98301 0
M  V30 17688 C 1690.4 -2.27054 0.544858 0
M  V30 17689 C 1691.38 -1.64749 -0.423281 0
M  V30 17690 O 1692.56 -1.91611 -0.316075 0
M  V30 17691 C 1689.69 -3.46972 -0.150976 0
M  V30 17692 C 1688.65 -4.21647 0.734707 0
M  V30 17693 C 1687.97 -5.34618 -0.0934874 0
M  V30 17694 C 1689.27 -4.81372 2.02679 0
M  V30 17695 H 1690.97 -2.63957 1.41305 0
M  V30 17696 H 1688.51 -1.26885 0.680895 0
M  V30 17697 H 1690.47 -4.18784 -0.468825 0
M  V30 17698 H 1689.19 -3.09137 -1.05364 0
M  V30 17699 H 1687.85 -3.51655 1.03605 0
M  V30 17700 H 1687.5 -4.93025 -0.996768 0
M  V30 17701 H 1687.2 -5.85503 0.496019 0
M  V30 17702 H 1688.72 -6.09251 -0.405658 0
M  V30 17703 H 1690.14 -5.45178 1.77353 0
M  V30 17704 H 1688.53 -5.42554 2.56429 0
M  V30 17705 H 1689.6 -4.01972 2.71194 0
M  V30 17706 N 1690.95 -0.754982 -1.38339 0
M  V30 17707 C 1692.19 -0.321184 -2.00848 0
M  V30 17708 C 1692.55 1.08546 -1.58857 0
M  V30 17709 O 1691.84 1.7332 -0.816737 0
M  V30 17710 C 1692.03 -0.383719 -3.55334 0
M  V30 17711 C 1691.86 -1.7949 -4.12327 0
M  V30 17712 C 1690.63 -2.41176 -4.4403 0
M  V30 17713 C 1692.83 -2.75178 -4.3449 0
M  V30 17714 N 1690.81 -3.74241 -4.86638 0
M  V30 17715 C 1692.18 -3.93011 -4.79523 0
M  V30 17716 C 1694.24 -2.72683 -4.16592 0
M  V30 17717 C 1692.94 -5.0871 -5.08534 0
M  V30 17718 C 1694.97 -3.87541 -4.46728 0
M  V30 17719 C 1694.33 -5.04112 -4.91986 0
M  V30 17720 H 1690.43 -0.164217 -0.764563 0
M  V30 17721 H 1693.01 -0.985233 -1.67932 0
M  V30 17722 H 1691.18 0.250068 -3.87594 0
M  V30 17723 H 1692.92 0.0705302 -4.04639 0
M  V30 17724 H 1689.67 -1.9293 -4.32522 0
M  V30 17725 H 1690.1 -4.4261 -5.12275 0
M  V30 17726 H 1694.74 -1.8374 -3.80788 0
M  V30 17727 H 1692.46 -5.98266 -5.43234 0
M  V30 17728 H 1696.04 -3.86931 -4.34483 0
M  V30 17729 H 1694.92 -5.91514 -5.1486 0
M  V30 17730 N 1692.42 1.49318 -0.504168 0
M  V30 17731 C 1693.67 2.02062 0.039149 0
M  V30 17732 C 1693.99 1.38577 1.37191 0
M  V30 17733 O 1693.26 0.542179 1.88248 0
M  V30 17734 H 1691.84 0.746796 0.0174575 0
M  V30 17735 H 1694.51 1.83308 -0.66213 0
M  V30 17736 H 1693.6 3.11656 0.166496 0
M  V30 17737 N 1693.9 0.238138 1.5579 0
M  V30 17738 C 1695.13 -0.393422 2.03125 0
M  V30 17739 C 1695.55 -1.52168 1.11761 0
M  V30 17740 O 1694.9 -1.82034 0.130341 0
M  V30 17741 C 1694.95 -0.909474 3.49873 0
M  V30 17742 O 1694.67 0.17381 4.37755 0
M  V30 17743 C 1696.18 -1.61261 4.12928 0
M  V30 17744 H 1693.4 -0.0945077 0.664311 0
M  V30 17745 H 1695.94 0.359442 2.01316 0
M  V30 17746 H 1694.09 -1.61255 3.52244 0
M  V30 17747 H 1694.51 -0.216641 5.24052 0
M  V30 17748 H 1695.98 -1.92551 5.17328 0
M  V30 17749 H 1696.46 -2.53155 3.589 0
M  V30 17750 H 1697.07 -0.954326 4.14455 0
M  V30 17751 N 1695.38 -1.57561 -0.0350783 0
M  V30 17752 C 1696.29 -2.09558 -1.05464 0
M  V30 17753 C 1697.31 -1.03288 -1.40027 0
M  V30 17754 O 1698.48 -1.34987 -1.49467 0
M  V30 17755 C 1695.55 -2.55966 -2.33842 0
M  V30 17756 C 1694.61 -3.76693 -2.05915 0
M  V30 17757 C 1693.84 -4.20878 -3.28172 0
M  V30 17758 O 1694.06 -3.64634 -4.38632 0
M  V30 17759 O 1693 -5.13367 -3.14225 0
M  V30 17760 H 1696.82 -2.9682 -0.642771 0
M  V30 17761 H 1694.41 -1.47265 -0.251668 0
M  V30 17762 H 1696.29 -2.86173 -3.09327 0
M  V30 17763 H 1694.97 -1.71818 -2.74336 0
M  V30 17764 H 1693.87 -3.51514 -1.28018 0
M  V30 17765 H 1695.21 -4.61807 -1.70281 0
M  V30 17766 N 1696.86 0.307236 -1.54576 0
M  V30 17767 C 1697.77 1.4014 -1.88143 0
M  V30 17768 C 1698.78 1.5579 -0.774952 0
M  V30 17769 O 1699.96 1.70574 -1.07082 0
M  V30 17770 C 1697.03 2.74613 -2.11633 0
M  V30 17771 C 1696.09 2.68001 -3.35371 0
M  V30 17772 C 1695.32 3.96061 -3.57731 0
M  V30 17773 O 1695.54 4.95119 -2.83219 0
M  V30 17774 O 1694.48 3.98331 -4.51238 0
M  V30 17775 H 1698.3 1.14677 -2.81217 0
M  V30 17776 H 1695.89 0.502739 -1.40687 0
M  V30 17777 H 1697.77 3.54186 -2.2832 0
M  V30 17778 H 1696.44 2.99933 -1.21746 0
M  V30 17779 H 1695.35 1.86922 -3.24054 0
M  V30 17780 H 1696.68 2.47635 -4.25368 0
M  V30 17781 N 1698.34 1.46926 0.570122 0
M  V30 17782 C 1699.58 1.53113 1.32982 0
M  V30 17783 C 1699.92 0.187401 1.93294 0
M  V30 17784 O 1699.19 -0.802585 1.77169 0
M  V30 17785 C 1699.47 2.63936 2.44969 0
M  V30 17786 C 1699.33 4.07882 1.8961 0
M  V30 17787 C 1700.65 2.70753 3.46959 0
M  V30 17788 H 1697.76 0.557398 0.482158 0
M  V30 17789 H 1700.41 1.78923 0.639259 0
M  V30 17790 H 1698.56 2.42059 3.03874 0
M  V30 17791 H 1700.23 4.41084 1.35066 0
M  V30 17792 H 1698.47 4.16768 1.20361 0
M  V30 17793 H 1699.14 4.81175 2.70508 0
M  V30 17794 H 1701.62 2.90452 2.97954 0
M  V30 17795 H 1700.49 3.50093 4.2276 0
M  V30 17796 H 1700.76 1.77299 4.04991 0
M  V30 17797 N 1699.82 -0.815801 1.34842 0
M  V30 17798 C 1700.78 -1.90871 1.2689 0
M  V30 17799 C 1701.78 -1.59762 0.182445 0
M  V30 17800 O 1702.97 -1.68667 0.435543 0
M  V30 17801 C 1700.1 -3.27081 0.960774 0
M  V30 17802 H 1701.29 -1.99343 2.24059 0
M  V30 17803 H 1698.85 -1.0106 1.19233 0
M  V30 17804 H 1699.58 -3.24299 -0.00744059 0
M  V30 17805 H 1699.37 -3.51045 1.74671 0
M  V30 17806 H 1700.86 -4.07101 0.930494 0
M  V30 17807 N 1701.29 -1.18689 -1.03686 0
M  V30 17808 C 1702.26 -0.919415 -2.09951 0
M  V30 17809 C 1703.26 0.0968042 -1.60508 0
M  V30 17810 O 1704.45 -0.137062 -1.7366 0
M  V30 17811 C 1701.58 -0.380204 -3.38773 0
M  V30 17812 H 1702.77 -1.86178 -2.35112 0
M  V30 17813 H 1700.32 -0.999435 -1.20171 0
M  V30 17814 H 1701.06 0.568586 -3.19277 0
M  V30 17815 H 1700.84 -1.11281 -3.75977 0
M  V30 17816 H 1702.33 -0.211891 -4.17062 0
M  V30 17817 N 1702.77 1.22662 -0.989529 0
M  V30 17818 C 1704.02 1.91904 -0.674128 0
M  V30 17819 C 1704.37 1.75664 0.78485 0
M  V30 17820 O 1703.67 1.11266 1.55982 0
M  V30 17821 C 1703.86 3.428 -1.01109 0
M  V30 17822 C 1703.69 3.73719 -2.50128 0
M  V30 17823 C 1702.46 3.93916 -3.16477 0
M  V30 17824 C 1704.66 3.78467 -3.48234 0
M  V30 17825 N 1702.64 4.12119 -4.55007 0
M  V30 17826 C 1704.01 4.01771 -4.72208 0
M  V30 17827 C 1706.06 3.61301 -3.42587 0
M  V30 17828 C 1704.77 4.09689 -5.91225 0
M  V30 17829 C 1706.79 3.70477 -4.60978 0
M  V30 17830 C 1706.16 3.94226 -5.83751 0
M  V30 17831 H 1702.25 0.723035 -0.297899 0
M  V30 17832 H 1704.84 1.47676 -1.26885 0
M  V30 17833 H 1703.01 3.85843 -0.444975 0
M  V30 17834 H 1704.74 3.99413 -0.652024 0
M  V30 17835 H 1701.5 3.91195 -2.66953 0
M  V30 17836 H 1701.92 4.25155 -5.26852 0
M  V30 17837 H 1706.56 3.41928 -2.48687 0
M  V30 17838 H 1704.28 4.27866 -6.85533 0
M  V30 17839 H 1707.87 3.58537 -4.58195 0
M  V30 17840 H 1706.75 4.01151 -6.7383 0
M  V30 17841 N 1704.25 0.762308 1.37937 0
M  V30 17842 C 1705.18 0.156036 2.32978 0
M  V30 17843 C 1706.16 -0.693795 1.55308 0
M  V30 17844 O 1707.35 -0.633195 1.83587 0
M  V30 17845 C 1704.48 -0.731199 3.39515 0
M  V30 17846 C 1703.43 0.0165834 4.27997 0
M  V30 17847 C 1702.76 -0.989476 5.25465 0
M  V30 17848 C 1704.06 1.19009 5.08561 0
M  V30 17849 H 1705.75 0.949978 2.83929 0
M  V30 17850 H 1703.3 0.458269 1.36513 0
M  V30 17851 H 1705.25 -1.16507 4.04974 0
M  V30 17852 H 1703.97 -1.55756 2.87067 0
M  V30 17853 H 1702.63 0.431128 3.64056 0
M  V30 17854 H 1702.28 -1.81013 4.69301 0
M  V30 17855 H 1701.98 -0.493738 5.85522 0
M  V30 17856 H 1703.5 -1.42248 5.93799 0
M  V30 17857 H 1704.92 0.833336 5.67211 0
M  V30 17858 H 1703.31 1.61727 5.77896 0
M  V30 17859 H 1704.38 1.99879 4.41788 0
M  V30 17860 N 1705.73 -1.49049 0.51208 0
M  V30 17861 C 1706.64 -2.33102 -0.264695 0
M  V30 17862 C 1707.65 -1.45347 -0.956571 0
M  V30 17863 O 1708.83 -1.78355 -0.935501 0
M  V30 17864 C 1705.89 -3.21051 -1.30871 0
M  V30 17865 C 1704.96 -4.24666 -0.629094 0
M  V30 17866 C 1704.19 -5.08412 -1.62337 0
M  V30 17867 O 1704.41 -4.93847 -2.85432 0
M  V30 17868 O 1703.35 -5.90368 -1.17259 0
M  V30 17869 H 1707.17 -3.00732 0.423585 0
M  V30 17870 H 1704.76 -1.4688 0.273246 0
M  V30 17871 H 1706.64 -3.75503 -1.91248 0
M  V30 17872 H 1705.31 -2.56103 -1.97972 0
M  V30 17873 H 1704.22 -3.74097 0.0147056 0
M  V30 17874 H 1705.55 -4.922 -0.000339859 0
M  V30 17875 N 1707.21 -0.246397 -1.55662 0
M  V30 17876 C 1708.16 0.667276 -2.18017 0
M  V30 17877 C 1709.14 1.13957 -1.1359 0
M  V30 17878 O 1710.33 1.08942 -1.39501 0
M  V30 17879 C 1707.46 1.86414 -2.88279 0
M  V30 17880 C 1706.55 1.41037 -3.99962 0
M  V30 17881 N 1706.94 0.670796 -5.01332 0
M  V30 17882 C 1705.24 1.69569 -4.12507 0
M  V30 17883 C 1705.94 0.43594 -5.80064 0
M  V30 17884 N 1704.91 1 -5.34323 0
M  V30 17885 H 1708.71 0.0940693 -2.93749 0
M  V30 17886 H 1706.23 -0.048692 -1.62327 0
M  V30 17887 H 1708.23 2.5297 -3.31379 0
M  V30 17888 H 1706.89 2.44158 -2.14049 0
M  V30 17889 H 1707.9 0.320958 -5.16905 0
M  V30 17890 H 1704.57 2.28455 -3.49449 0
M  V30 17891 H 1705.96 -0.154438 -6.71722 0
M  V30 17892 N 1708.68 1.57577 0.026722 0
M  V30 17893 C 1709.61 2.09748 1.02605 0
M  V30 17894 C 1710.59 1.00054 1.37562 0
M  V30 17895 O 1711.78 1.2759 1.46405 0
M  V30 17896 C 1708.91 2.57881 2.32626 0
M  V30 17897 C 1707.86 3.7186 2.11905 0
M  V30 17898 C 1707.19 4.06208 3.47706 0
M  V30 17899 C 1708.49 5.00198 1.50332 0
M  V30 17900 H 1710.18 2.93494 0.591753 0
M  V30 17901 H 1707.73 1.41188 0.283199 0
M  V30 17902 H 1709.68 2.93 3.02868 0
M  V30 17903 H 1708.41 1.71222 2.7812 0
M  V30 17904 H 1707.07 3.37094 1.44096 0
M  V30 17905 H 1706.71 3.16611 3.90853 0
M  V30 17906 H 1706.41 4.82982 3.34667 0
M  V30 17907 H 1707.94 4.43863 4.19306 0
M  V30 17908 H 1709.35 5.33259 2.10494 0
M  V30 17909 H 1707.75 5.81599 1.4786 0
M  V30 17910 H 1708.82 4.82623 0.469405 0
M  V30 17911 N 1710.16 -0.299034 1.54737 0
M  V30 17912 C 1711.39 -1.05723 1.7843 0
M  V30 17913 C 1711.81 -1.80089 0.543094 0
M  V30 17914 O 1711.17 -1.74083 -0.506438 0
M  V30 17915 C 1711.22 -2.01193 2.99255 0
M  V30 17916 O 1710.32 -3.09528 2.72518 0
M  V30 17917 H 1709.66 -0.303614 0.590521 0
M  V30 17918 H 1712.19 -0.335859 2.01825 0
M  V30 17919 H 1712.2 -2.43623 3.27279 0
M  V30 17920 H 1710.88 -1.46472 3.89254 0
M  V30 17921 H 1709.45 -2.71599 2.55516 0
M  V30 17922 N 1711.64 -1.47227 -0.562322 0
M  V30 17923 C 1712.57 -1.62204 -1.67965 0
M  V30 17924 C 1713.55 -0.471638 -1.63431 0
M  V30 17925 O 1714.74 -0.70036 -1.81131 0
M  V30 17926 C 1711.87 -1.63127 -3.06605 0
M  V30 17927 C 1710.82 -2.77343 -3.25983 0
M  V30 17928 C 1710.15 -2.63336 -4.65358 0
M  V30 17929 C 1711.45 -4.18983 -3.1185 0
M  V30 17930 H 1713.14 -2.55739 -1.55686 0
M  V30 17931 H 1710.69 -1.23075 -0.747561 0
M  V30 17932 H 1712.64 -1.72197 -3.84612 0
M  V30 17933 H 1711.36 -0.661501 -3.19831 0
M  V30 17934 H 1710.02 -2.67776 -2.50383 0
M  V30 17935 H 1709.67 -1.64398 -4.75376 0
M  V30 17936 H 1709.37 -3.39957 -4.79273 0
M  V30 17937 H 1710.89 -2.74327 -5.45506 0
M  V30 17938 H 1712.31 -4.29554 -3.79679 0
M  V30 17939 H 1710.7 -4.96351 -3.37277 0
M  V30 17940 H 1711.77 -4.37709 -2.08661 0
M  V30 17941 N 1713.12 0.808639 -1.35273 0
M  V30 17942 C 1714.36 1.57901 -1.29794 0
M  V30 17943 C 1714.72 1.91582 0.126611 0
M  V30 17944 O 1715.92 2.67056 0.305745 0
M  V30 17945 C 1714.19 2.83433 -2.17716 0
M  V30 17946 S 1715.75 3.73856 -2.29732 0
M  V30 17947 H 1712.57 0.541041 -0.461298 0
M  V30 17948 H 1715.17 0.954024 -1.70642 0
M  V30 17949 H 1713.88 2.5671 -3.202 0
M  V30 17950 H 1713.41 3.50919 -1.77818 0
M  V30 17951 H 1715.42 4.73595 -1.48063 0
M  V30 17952 N 1714.6 1.19237 1.03055 0
M  V30 17953 C 1715.51 0.943876 2.14775 0
M  V30 17954 C 1716.52 -0.0955384 1.73738 0
M  V30 17955 O 1717.7 0.0887187 2.01204 0
M  V30 17956 C 1714.76 0.48402 3.43305 0
M  V30 17957 C 1713.82 1.59262 3.98665 0
M  V30 17958 C 1713.06 1.15461 5.21061 0
M  V30 17959 O 1713.28 0.0174841 5.70397 0
M  V30 17960 O 1712.21 1.95648 5.69215 0
M  V30 17961 H 1716.04 1.87894 2.38599 0
M  V30 17962 H 1713.63 0.975046 1.13195 0
M  V30 17963 H 1715.51 0.236135 4.20738 0
M  V30 17964 H 1714.18 -0.422626 3.20929 0
M  V30 17965 H 1713.09 1.89464 3.22574 0
M  V30 17966 H 1714.42 2.47576 4.25402 0
M  V30 17967 N 1716.07 -1.22136 0.99602 0
M  V30 17968 C 1717.3 -1.94696 0.691168 0
M  V30 17969 C 1717.71 -1.73754 -0.748749 0
M  V30 17970 O 1717.06 -1.03561 -1.51726 0
M  V30 17971 C 1717.12 -3.47498 0.921152 0
M  V30 17972 C 1716.78 -3.92179 2.34616 0
M  V30 17973 C 1717.78 -3.99603 3.32585 0
M  V30 17974 C 1715.46 -4.24741 2.68142 0
M  V30 17975 C 1717.46 -4.38968 4.62153 0
M  V30 17976 C 1715.14 -4.63785 3.97928 0
M  V30 17977 C 1716.14 -4.70867 4.94745 0
M  V30 17978 O 1715.83 -5.09026 6.22212 0
M  V30 17979 H 1715.56 -0.626231 0.25458 0
M  V30 17980 H 1718.12 -1.56152 1.33438 0
M  V30 17981 H 1716.35 -3.86069 0.220769 0
M  V30 17982 H 1718.04 -4.01274 0.61107 0
M  V30 17983 H 1718.8 -3.74634 3.08017 0
M  V30 17984 H 1714.68 -4.18431 1.93485 0
M  V30 17985 H 1718.22 -4.44411 5.37721 0
M  V30 17986 H 1714.12 -4.88207 4.22285 0
M  V30 17987 H 1714.89 -5.27089 6.26195 0
M  V30 17988 N 1717.55 -0.769612 -1.37531 0
M  V30 17989 C 1718.5 -0.152627 -2.30295 0
M  V30 17990 C 1719.47 0.692154 -1.50992 0
M  V30 17991 O 1720.65 0.64496 -1.79569 0
M  V30 17992 C 1717.79 0.72217 -3.37459 0
M  V30 17993 C 1716.91 -0.138985 -4.31776 0
M  V30 17994 C 1716.04 0.740317 -5.26016 0
M  V30 17995 C 1715.08 -0.1235 -6.11975 0
M  V30 17996 N 1714.22 0.713658 -6.98464 0
M  V30 17997 H 1719.06 -0.949218 -2.82478 0
M  V30 17998 H 1716.6 -0.479697 -1.39059 0
M  V30 17999 H 1718.55 1.24415 -3.98217 0
M  V30 18000 H 1717.18 1.48438 -2.86646 0
M  V30 18001 H 1716.24 -0.778756 -3.72343 0
M  V30 18002 H 1717.55 -0.805402 -4.92255 0
M  V30 18003 H 1716.7 1.32887 -5.91968 0
M  V30 18004 H 1715.44 1.44042 -4.65943 0
M  V30 18005 H 1714.45 -0.7246 -5.45004 0
M  V30 18006 H 1715.67 -0.820907 -6.7412 0
M  V30 18007 H 1713.62 1.39842 -6.40921 0
M  V30 18008 H 1713.53 0.104492 -7.55928 0
M  V30 18009 H 1714.8 1.28667 -7.68808 0
M  V30 18010 N 1719.03 1.48775 -0.519977 0
M  V30 18011 C 1720.31 1.95429 0.0816701 0
M  V30 18012 C 1720.69 1.46199 1.52279 0
M  V30 18013 O 1720.04 0.684057 2.1802 0
M  V30 18014 C 1720.25 3.48991 -0.0252472 0
M  V30 18015 C 1721.59 4.24372 0.139099 0
M  V30 18016 O 1722.62 3.56166 0.0490322 0
M  V30 18017 O 1721.48 5.45524 0.326426 0
M  V30 18018 H 1718.57 0.822637 0.0848378 0
M  V30 18019 H 1721.12 1.5934 -0.583865 0
M  V30 18020 H 1719.89 3.77514 -1.02951 0
M  V30 18021 H 1719.51 3.91749 0.679588 0
M  V30 18022 N 1720.51 0.254649 1.55529 0
M  V30 18023 C 1721.76 -0.368461 1.98306 0
M  V30 18024 C 1722.07 -1.585 1.14617 0
M  V30 18025 O 1723.28 -2.27975 1.47443 0
M  V30 18026 C 1721.73 -0.70693 3.52889 0
M  V30 18027 C 1721.34 0.488648 4.45327 0
M  V30 18028 C 1723.08 -1.2938 4.04303 0
M  V30 18029 C 1720.99 0.125903 5.91266 0
M  V30 18030 H 1719.92 -0.141444 0.740614 0
M  V30 18031 H 1722.57 0.356085 1.80012 0
M  V30 18032 H 1720.95 -1.48982 3.66907 0
M  V30 18033 H 1722.13 1.26587 4.43071 0
M  V30 18034 H 1720.44 0.990969 4.04436 0
M  V30 18035 H 1723.04 -1.57866 5.10864 0
M  V30 18036 H 1723.38 -2.22088 3.52112 0
M  V30 18037 H 1723.92 -0.573647 3.93642 0
M  V30 18038 H 1720.66 1.02032 6.4751 0
M  V30 18039 H 1720.18 -0.614969 5.96639 0
M  V30 18040 H 1721.85 -0.289174 6.46353 0
M  V30 18041 N 1721.99 -1.57589 -0.0183649 0
M  V30 18042 C 1723.23 -1.89757 -0.707008 0
M  V30 18043 C 1723.56 -0.853257 -1.74785 0
M  V30 18044 O 1722.82 0.144406 -1.95166 0
M  V30 18045 C 1723.12 -3.28677 -1.4038 0
M  V30 18046 C 1722.78 -4.48142 -0.497917 0
M  V30 18047 C 1721.44 -4.80558 -0.248444 0
M  V30 18048 C 1723.8 -5.21046 0.126883 0
M  V30 18049 C 1721.12 -5.8326 0.634428 0
M  V30 18050 C 1723.48 -6.24686 0.997521 0
M  V30 18051 C 1722.14 -6.5557 1.25635 0
M  V30 18052 H 1721.41 -0.694369 -0.258713 0
M  V30 18053 H 1724.06 -1.91471 0.0332176 0
M  V30 18054 H 1722.36 -3.23 -2.21761 0
M  V30 18055 H 1724.06 -3.50818 -1.94236 0
M  V30 18056 H 1720.65 -4.22803 -0.702519 0
M  V30 18057 H 1724.83 -4.96272 -0.0528705 0
M  V30 18058 H 1720.09 -6.05558 0.843157 0
M  V30 18059 H 1724.26 -6.80315 1.48811 0
M  V30 18060 H 1721.89 -7.34972 1.94218 0
M  V30 18061 N 1723.46 0.290824 -1.54893 0
M  V30 18062 C 1724.69 1.04344 -1.78661 0
M  V30 18063 C 1725.11 1.80578 -0.551083 0
M  V30 18064 O 1724.46 1.76091 0.479394 0
M  V30 18065 C 1724.52 2.01604 -3.00064 0
M  V30 18066 O 1724.24 1.28461 -4.18843 0
M  V30 18067 C 1725.74 2.88822 -3.36298 0
M  V30 18068 H 1722.96 0.309018 -0.595608 0
M  V30 18069 H 1725.5 0.327011 -2.01868 0
M  V30 18070 H 1723.66 2.68735 -2.79035 0
M  V30 18071 H 1724.07 1.93864 -4.87357 0
M  V30 18072 H 1725.54 3.52898 -4.24461 0
M  V30 18073 H 1726.02 3.5766 -2.54904 0
M  V30 18074 H 1726.63 2.27208 -3.59523 0
M  V30 18075 N 1724.94 1.47523 0.554506 0
M  V30 18076 C 1726.36 1.33101 0.880699 0
M  V30 18077 C 1726.56 0.323524 1.98886 0
M  V30 18078 O 1725.61 -0.263996 2.51116 0
M  V30 18079 C 1726.93 2.725 1.27138 0
M  V30 18080 C 1728.48 2.80805 1.38266 0
M  V30 18081 C 1728.95 4.20851 1.80688 0
M  V30 18082 N 1730.44 4.23406 1.87834 0
M  V30 18083 C 1731.18 5.28684 2.21993 0
M  V30 18084 N 1730.67 6.44264 2.54746 0
M  V30 18085 N 1732.47 5.16063 2.2279 0
M  V30 18086 H 1724.62 2.11661 -0.177062 0
M  V30 18087 H 1726.88 0.947856 -0.0165508 0
M  V30 18088 H 1726.59 3.47669 0.53093 0
M  V30 18089 H 1726.46 3.04445 2.22695 0
M  V30 18090 H 1728.85 2.05907 2.11391 0
M  V30 18091 H 1728.93 2.52511 0.408901 0
M  V30 18092 H 1728.57 4.96256 1.08131 0
M  V30 18093 H 1728.5 4.46572 2.79071 0
M  V30 18094 H 1730.99 3.40025 1.64897 0
M  V30 18095 H 1731.31 7.20351 2.79846 0
M  V30 18096 H 1729.65 6.4758 2.52321 0
M  V30 18097 H 1732.84 4.24793 1.96642 0
M  V30 18098 H 1733.01 5.98216 2.49081 0
M  V30 18099 N 1726.42 -0.801453 1.357 0
M  V30 18100 C 1727.37 -1.90299 1.2558 0
M  V30 18101 C 1728.35 -1.602 0.149922 0
M  V30 18102 O 1729.55 -1.72837 0.381622 0
M  V30 18103 C 1726.68 -3.2732 1.0352 0
M  V30 18104 C 1725.76 -3.63468 2.18522 0
M  V30 18105 N 1726.15 -3.71014 3.43777 0
M  V30 18106 C 1724.45 -3.93455 2.10022 0
M  V30 18107 C 1725.15 -4.03052 4.19433 0
M  V30 18108 N 1724.13 -4.17405 3.48244 0
M  V30 18109 H 1727.93 -1.94341 2.20474 0
M  V30 18110 H 1725.44 -0.996323 1.28247 0
M  V30 18111 H 1727.44 -4.06081 0.943586 0
M  V30 18112 H 1726.1 -3.24561 0.095163 0
M  V30 18113 H 1727.11 -3.53961 3.78064 0
M  V30 18114 H 1723.79 -3.98691 1.23903 0
M  V30 18115 H 1725.18 -4.15914 5.27698 0
M  V30 18116 N 1727.9 -1.19782 -1.02421 0
M  V30 18117 C 1729.18 -0.912541 -1.73009 0
M  V30 18118 C 1729.56 0.58061 -2.02958 0
M  V30 18119 O 1728.9 1.54013 -1.68797 0
M  V30 18120 C 1729.11 -1.77745 -3.00346 0
M  V30 18121 C 1730.46 -2.01462 -3.73762 0
M  V30 18122 O 1731.49 -1.74935 -3.10284 0
M  V30 18123 O 1730.34 -2.46219 -4.87892 0
M  V30 18124 H 1727.44 -0.340513 -0.753644 0
M  V30 18125 H 1729.98 -1.30618 -1.08338 0
M  V30 18126 H 1728.76 -2.78887 -2.74477 0
M  V30 18127 H 1728.38 -1.38339 -3.72757 0
M  V30 18128 N 1729.38 1.21606 -1.00248 0
M  V30 18129 C 1730.63 1.89922 -0.679152 0
M  V30 18130 C 1730.94 1.78793 0.793246 0
M  V30 18131 O 1732.15 2.42113 1.22856 0
M  V30 18132 C 1730.6 3.40548 -1.16427 0
M  V30 18133 C 1730.21 3.60293 -2.66257 0
M  V30 18134 C 1731.95 4.14506 -0.915714 0
M  V30 18135 C 1729.86 5.04669 -3.08323 0
M  V30 18136 H 1728.79 0.711232 -0.250329 0
M  V30 18137 H 1731.44 1.37663 -1.21331 0
M  V30 18138 H 1729.82 3.92046 -0.558177 0
M  V30 18139 H 1731 3.19245 -3.32294 0
M  V30 18140 H 1729.31 2.99683 -2.891 0
M  V30 18141 H 1731.91 5.20932 -1.20558 0
M  V30 18142 H 1732.25 4.16037 0.148068 0
M  V30 18143 H 1732.79 3.69064 -1.48448 0
M  V30 18144 H 1729.52 5.08284 -4.13917 0
M  V30 18145 H 1729.04 5.46583 -2.46996 0
M  V30 18146 H 1730.72 5.7316 -3.00162 0
M  V30 18147 N 1730.86 0.776895 1.37121 0
M  V30 18148 C 1732.27 0.457116 1.52914 0
M  V30 18149 C 1732.47 -1.0265 1.73394 0
M  V30 18150 O 1731.53 -1.81224 1.75824 0
M  V30 18151 C 1732.84 1.27667 2.72253 0
M  V30 18152 C 1734.39 1.26909 2.86117 0
M  V30 18153 C 1734.86 2.0721 4.08446 0
M  V30 18154 N 1736.35 2.04591 4.15568 0
M  V30 18155 C 1737.09 2.63502 5.09268 0
M  V30 18156 N 1736.59 3.31222 6.08493 0
M  V30 18157 N 1738.38 2.53304 5.0179 0
M  V30 18158 H 1730.53 1.73811 1.2208 0
M  V30 18159 H 1732.79 0.738142 0.594853 0
M  V30 18160 H 1732.5 2.32825 2.63601 0
M  V30 18161 H 1732.37 0.909363 3.66074 0
M  V30 18162 H 1734.76 0.225476 2.94237 0
M  V30 18163 H 1734.84 1.67607 1.9324 0
M  V30 18164 H 1734.48 3.11595 4.01087 0
M  V30 18165 H 1734.41 1.63891 5.00447 0
M  V30 18166 H 1736.91 1.55293 3.44518 0
M  V30 18167 H 1737.22 3.73535 6.76529 0
M  V30 18168 H 1735.56 3.35322 6.08756 0
M  V30 18169 H 1738.75 2.00009 4.23218 0
M  V30 18170 H 1738.93 2.99509 5.74629 0
M  V30 18171 N 1732.33 -1.48497 0.527859 0
M  V30 18172 C 1733.58 -2.02099 -0.00699772 0
M  V30 18173 C 1733.9 -1.40742 -1.34969 0
M  V30 18174 O 1733.17 -0.572059 -1.87361 0
M  V30 18175 H 1731.75 -0.746979 -0.00557445 0
M  V30 18176 H 1734.41 -1.82231 0.691209 0
M  V30 18177 H 1733.51 -3.11881 -0.116893 0
M  V30 18178 N 1733.81 -0.262893 -1.55392 0
M  V30 18179 C 1735.04 0.363972 -2.04181 0
M  V30 18180 C 1735.46 1.49585 -1.14044 0
M  V30 18181 O 1734.82 1.80785 -0.136553 0
M  V30 18182 C 1734.87 0.834041 -3.50822 0
M  V30 18183 O 1733.97 1.94234 -3.63795 0
M  V30 18184 H 1733.31 0.0771193 -0.659506 0
M  V30 18185 H 1735.84 -0.393623 -2.00778 0
M  V30 18186 H 1735.85 1.13304 -3.91952 0
M  V30 18187 H 1734.53 0.00584833 -4.159 0
M  V30 18188 H 1733.1 1.64681 -3.34566 0
M  V30 18189 N 1735.29 1.57597 0.0100073 0
M  V30 18190 C 1736.2 2.11209 1.02117 0
M  V30 18191 C 1737.22 1.05503 1.38366 0
M  V30 18192 O 1738.39 1.37348 1.47301 0
M  V30 18193 C 1735.46 2.59654 2.2974 0
M  V30 18194 C 1734.52 3.79921 1.99896 0
M  V30 18195 C 1733.75 4.26046 3.21435 0
M  V30 18196 O 1733.97 3.71566 4.32775 0
M  V30 18197 O 1732.91 5.18301 3.06018 0
M  V30 18198 H 1736.73 2.97805 0.595469 0
M  V30 18199 H 1734.32 1.47647 0.228208 0
M  V30 18200 H 1736.2 2.91058 3.04735 0
M  V30 18201 H 1734.88 1.76161 2.71568 0
M  V30 18202 H 1733.78 3.53506 1.22409 0
M  V30 18203 H 1735.12 4.64457 1.62912 0
M  V30 18204 N 1736.77 -0.282606 1.55045 0
M  V30 18205 C 1737.7 -1.35347 1.90272 0
M  V30 18206 C 1738.68 -1.52001 0.763532 0
M  V30 18207 O 1739.86 -1.65204 1.02085 0
M  V30 18208 C 1736.99 -2.71464 2.16621 0
M  V30 18209 C 1735.95 -2.69554 3.32453 0
M  V30 18210 C 1735.27 -4.09132 3.4426 0
M  V30 18211 C 1736.57 -2.29669 4.69094 0
M  V30 18212 H 1738.27 -1.06113 2.79965 0
M  V30 18213 H 1735.81 -0.509018 1.34703 0
M  V30 18214 H 1737.77 -3.46482 2.39851 0
M  V30 18215 H 1736.49 -3.02261 1.23717 0
M  V30 18216 H 1735.15 -1.96993 3.09175 0
M  V30 18217 H 1734.8 -4.37136 2.4884 0
M  V30 18218 H 1734.5 -4.08751 4.22133 0
M  V30 18219 H 1736.02 -4.85903 3.69771 0
M  V30 18220 H 1737.44 -2.94407 4.91932 0
M  V30 18221 H 1735.83 -2.40467 5.49814 0
M  V30 18222 H 1736.9 -1.24796 4.68566 0
M  V30 18223 N 1738.25 -1.47815 -0.546675 0
M  V30 18224 C 1739.18 -1.63976 -1.66235 0
M  V30 18225 C 1740.16 -0.488945 -1.62921 0
M  V30 18226 O 1741.34 -0.719532 -1.80378 0
M  V30 18227 C 1738.47 -1.6637 -3.04858 0
M  V30 18228 C 1737.43 -2.80785 -3.23023 0
M  V30 18229 C 1736.75 -2.68257 -4.62539 0
M  V30 18230 C 1738.05 -4.22267 -3.07388 0
M  V30 18231 H 1739.75 -2.57375 -1.52965 0
M  V30 18232 H 1737.29 -1.23861 -0.734465 0
M  V30 18233 H 1739.24 -1.76266 -3.82764 0
M  V30 18234 H 1737.97 -0.695386 -3.19111 0
M  V30 18235 H 1736.63 -2.70417 -2.47529 0
M  V30 18236 H 1736.28 -1.69431 -4.73606 0
M  V30 18237 H 1735.98 -3.45022 -4.75641 0
M  V30 18238 H 1737.5 -2.80097 -5.42566 0
M  V30 18239 H 1738.91 -4.33557 -3.75102 0
M  V30 18240 H 1737.31 -4.999 -3.31994 0
M  V30 18241 H 1738.38 -4.39897 -2.04006 0
M  V30 18242 N 1739.72 0.794246 -1.36123 0
M  V30 18243 C 1740.67 1.8963 -1.26588 0
M  V30 18244 C 1741.66 1.60118 -0.158415 0
M  V30 18245 O 1742.85 1.72632 -0.390783 0
M  V30 18246 C 1739.98 3.26767 -1.05255 0
M  V30 18247 C 1739.06 3.62304 -2.20447 0
M  V30 18248 N 1739.46 3.69185 -3.4574 0
M  V30 18249 C 1737.75 3.92336 -2.12106 0
M  V30 18250 C 1738.45 4.00822 -4.21565 0
M  V30 18251 N 1737.43 4.15553 -3.50453 0
M  V30 18252 H 1741.23 1.93169 -2.21501 0
M  V30 18253 H 1738.75 0.989508 -1.28773 0
M  V30 18254 H 1740.74 4.05575 -0.965108 0
M  V30 18255 H 1739.4 3.24505 -0.112374 0
M  V30 18256 H 1740.41 3.51951 -3.79935 0
M  V30 18257 H 1737.09 3.98028 -1.26016 0
M  V30 18258 H 1738.48 4.1311 -5.29896 0
M  V30 18259 N 1741.2 1.20323 1.01785 0
M  V30 18260 C 1742.13 0.974819 2.12178 0
M  V30 18261 C 1743.11 -0.0957637 1.6983 0
M  V30 18262 O 1744.3 0.0614963 1.94103 0
M  V30 18263 C 1741.43 0.524739 3.43313 0
M  V30 18264 C 1740.38 1.53842 3.99395 0
M  V30 18265 C 1739.71 0.945021 5.26283 0
M  V30 18266 C 1741.01 2.92179 4.3293 0
M  V30 18267 H 1742.7 1.8981 2.31544 0
M  V30 18268 H 1740.25 0.914025 1.11273 0
M  V30 18269 H 1742.2 0.352182 4.19926 0
M  V30 18270 H 1740.92 -0.434161 3.23701 0
M  V30 18271 H 1739.58 1.69832 3.24889 0
M  V30 18272 H 1739.23 -0.0217709 5.02995 0
M  V30 18273 H 1738.93 1.62201 5.64769 0
M  V30 18274 H 1740.46 0.783504 6.05552 0
M  V30 18275 H 1741.87 2.79708 5.00436 0
M  V30 18276 H 1740.27 3.56773 4.82528 0
M  V30 18277 H 1741.34 3.43997 3.41752 0
M  V30 18278 N 1742.68 -1.21073 1.00892 0
M  V30 18279 C 1743.59 -2.27265 0.582065 0
M  V30 18280 C 1744.61 -1.69872 -0.376785 0
M  V30 18281 O 1745.78 -1.99969 -0.239644 0
M  V30 18282 C 1742.85 -3.46606 -0.0806764 0
M  V30 18283 C 1741.91 -4.19257 0.923147 0
M  V30 18284 C 1741.14 -5.32901 0.291938 0
M  V30 18285 O 1741.36 -5.6309 -0.910282 0
M  V30 18286 O 1740.3 -5.93453 1.00483 0
M  V30 18287 H 1744.12 -2.65977 1.46594 0
M  V30 18288 H 1741.71 -1.27544 0.777999 0
M  V30 18289 H 1743.59 -4.18978 -0.451177 0
M  V30 18290 H 1742.27 -3.09785 -0.93887 0
M  V30 18291 H 1741.17 -3.4909 1.34488 0
M  V30 18292 H 1742.51 -4.59999 1.75106 0
M  V30 18293 N 1744.16 -0.784156 -1.36707 0
M  V30 18294 C 1745.57 -0.465219 -1.52669 0
M  V30 18295 C 1745.77 1.01729 -1.73935 0
M  V30 18296 O 1744.83 1.80289 -1.76783 0
M  V30 18297 C 1746.14 -1.29109 -2.71572 0
M  V30 18298 C 1747.69 -1.28424 -2.8544 0
M  V30 18299 C 1748.17 -2.09373 -4.07341 0
M  V30 18300 N 1749.66 -2.06792 -4.14477 0
M  V30 18301 C 1750.39 -2.66199 -5.07864 0
M  V30 18302 N 1749.89 -3.34445 -6.06728 0
M  V30 18303 N 1751.68 -2.55962 -5.0044 0
M  V30 18304 H 1743.83 -1.74456 -1.21156 0
M  V30 18305 H 1746.1 -0.741286 -0.59093 0
M  V30 18306 H 1745.8 -2.34219 -2.62363 0
M  V30 18307 H 1745.68 -0.928764 -3.65587 0
M  V30 18308 H 1748.06 -0.241077 -2.94114 0
M  V30 18309 H 1748.14 -1.68629 -1.92348 0
M  V30 18310 H 1747.79 -3.13718 -3.99429 0
M  V30 18311 H 1747.72 -1.66542 -4.99571 0
M  V30 18312 H 1750.21 -1.57118 -3.43689 0
M  V30 18313 H 1750.52 -3.77118 -6.74538 0
M  V30 18314 H 1748.87 -3.38546 -6.06969 0
M  V30 18315 H 1752.06 -2.02251 -4.22152 0
M  V30 18316 H 1752.23 -3.02553 -5.73032 0
M  V30 18317 N 1745.64 1.48215 -0.535727 0
M  V30 18318 C 1747.05 1.58417 -0.193977 0
M  V30 18319 C 1747.25 1.53705 1.30296 0
M  V30 18320 O 1746.31 1.42913 2.08164 0
M  V30 18321 C 1747.62 2.89819 -0.8016 0
M  V30 18322 C 1749.17 3.03359 -0.770858 0
M  V30 18323 C 1749.64 4.3743 -1.35716 0
M  V30 18324 N 1751.14 4.44012 -1.31938 0
M  V30 18325 C 1751.87 5.4627 -1.74287 0
M  V30 18326 N 1751.37 6.55454 -2.24393 0
M  V30 18327 N 1753.16 5.37187 -1.65489 0
M  V30 18328 H 1745.31 1.49521 -1.50855 0
M  V30 18329 H 1747.57 0.710306 -0.627829 0
M  V30 18330 H 1747.28 2.98939 -1.85278 0
M  V30 18331 H 1747.15 3.76144 -0.282036 0
M  V30 18332 H 1749.54 2.93848 0.271577 0
M  V30 18333 H 1749.62 2.1863 -1.32795 0
M  V30 18334 H 1749.27 4.47696 -2.39855 0
M  V30 18335 H 1749.2 5.20856 -0.775696 0
M  V30 18336 H 1751.69 3.65695 -0.952653 0
M  V30 18337 H 1752 7.29626 -2.54686 0
M  V30 18338 H 1750.34 6.56402 -2.2839 0
M  V30 18339 H 1753.54 4.50785 -1.26138 0
M  V30 18340 H 1753.71 6.16747 -1.98814 0
M  V30 18341 N 1747.11 0.27113 1.5525 0
M  V30 18342 C 1748.39 -0.398374 1.915 0
M  V30 18343 C 1748.77 -1.74026 1.19491 0
M  V30 18344 O 1748.12 -2.26242 0.320425 0
M  V30 18345 C 1748.33 -0.542589 3.44756 0
M  V30 18346 C 1749.68 -0.827326 4.16462 0
M  V30 18347 O 1750.7 -0.627548 3.50628 0
M  V30 18348 O 1749.56 -1.20917 5.32955 0
M  V30 18349 H 1746.65 -0.217479 0.797892 0
M  V30 18350 H 1749.2 0.316988 1.66713 0
M  V30 18351 H 1747.97 0.401926 3.8923 0
M  V30 18352 H 1747.6 -1.30757 3.75484 0
M  V30 18353 N 1748.59 -1.576 -0.00164943 0
M  V30 18354 C 1749.52 -2.11354 -0.992554 0
M  V30 18355 C 1750.5 -1.0223 -1.35952 0
M  V30 18356 O 1751.69 -1.29904 -1.44356 0
M  V30 18357 C 1748.82 -2.61549 -2.28494 0
M  V30 18358 C 1747.77 -3.75185 -2.05962 0
M  V30 18359 C 1747.1 -4.11688 -3.412 0
M  V30 18360 C 1748.4 -5.02526 -1.42355 0
M  V30 18361 H 1750.09 -2.94398 -0.544986 0
M  V30 18362 H 1747.64 -1.4162 -0.260702 0
M  V30 18363 H 1749.59 -2.97782 -2.98168 0
M  V30 18364 H 1748.32 -1.75625 -2.75361 0
M  V30 18365 H 1746.97 -3.39343 -1.38714 0
M  V30 18366 H 1746.62 -3.22789 -3.85767 0
M  V30 18367 H 1746.32 -4.88246 -3.2694 0
M  V30 18368 H 1747.85 -4.50478 -4.12192 0
M  V30 18369 H 1749.26 -5.3654 -2.01984 0
M  V30 18370 H 1747.66 -5.83878 -1.38589 0
M  V30 18371 H 1748.73 -4.83308 -0.392565 0
M  V30 18372 N 1750.07 0.274379 -1.55193 0
M  V30 18373 C 1751.02 1.33913 -1.87978 0
M  V30 18374 C 1751.99 1.49142 -0.731149 0
M  V30 18375 O 1753.17 1.63572 -0.98229 0
M  V30 18376 C 1750.31 2.69464 -2.156 0
M  V30 18377 C 1749.43 2.62468 -3.43125 0
M  V30 18378 C 1748.56 3.90188 -3.60453 0
M  V30 18379 C 1747.6 3.77697 -4.81675 0
M  V30 18380 N 1746.74 4.97249 -4.95669 0
M  V30 18381 H 1751.58 1.05254 -2.78793 0
M  V30 18382 H 1749.11 0.508532 -1.3803 0
M  V30 18383 H 1751.07 3.48329 -2.29614 0
M  V30 18384 H 1749.7 2.96328 -1.28021 0
M  V30 18385 H 1748.75 1.7532 -3.3759 0
M  V30 18386 H 1750.07 2.49137 -4.32125 0
M  V30 18387 H 1749.22 4.77495 -3.74277 0
M  V30 18388 H 1747.96 4.06384 -2.69635 0
M  V30 18389 H 1746.96 2.88774 -4.67857 0
M  V30 18390 H 1748.19 3.63022 -5.73927 0
M  V30 18391 H 1746.13 5.13858 -4.07781 0
M  V30 18392 H 1746.05 4.86444 -5.78712 0
M  V30 18393 H 1747.32 5.86132 -5.13877 0
M  V30 18394 N 1751.55 1.48103 0.538828 0
M  V30 18395 C 1752.83 1.46155 1.29992 0
M  V30 18396 C 1753.21 0.16841 2.10427 0
M  V30 18397 O 1752.55 -0.849967 2.12103 0
M  V30 18398 C 1752.76 2.71826 2.18888 0
M  V30 18399 C 1754.11 3.19794 2.79315 0
M  V30 18400 O 1755.14 2.72681 2.2918 0
M  V30 18401 O 1753.99 4.0175 3.70485 0
M  V30 18402 H 1751.09 0.583293 0.586258 0
M  V30 18403 H 1753.63 1.60326 0.556212 0
M  V30 18404 H 1752.41 3.57462 1.59176 0
M  V30 18405 H 1752.03 2.60332 3.00521 0
M  V30 18406 N 1753.03 -0.787016 1.36542 0
M  V30 18407 C 1753.96 -1.91399 1.33749 0
M  V30 18408 C 1754.94 -1.68817 0.208559 0
M  V30 18409 O 1756.12 -1.89896 0.406574 0
M  V30 18410 C 1753.25 -3.28457 1.12842 0
M  V30 18411 C 1752.21 -3.65568 2.22585 0
M  V30 18412 C 1751.53 -5.01002 1.86818 0
M  V30 18413 C 1752.83 -3.73902 3.64684 0
M  V30 18414 H 1754.53 -1.93993 2.2805 0
M  V30 18415 H 1752.07 -0.931937 1.09777 0
M  V30 18416 H 1754.03 -4.06919 1.09522 0
M  V30 18417 H 1752.75 -3.26256 0.149918 0
M  V30 18418 H 1751.41 -2.89405 2.25035 0
M  V30 18419 H 1751.06 -4.95325 0.875361 0
M  V30 18420 H 1750.76 -5.26802 2.60294 0
M  V30 18421 H 1752.28 -5.81881 1.85058 0
M  V30 18422 H 1753.69 -4.4255 3.64448 0
M  V30 18423 H 1752.09 -4.11188 4.37086 0
M  V30 18424 H 1753.16 -2.74946 3.99416 0
M  V30 18425 N 1754.5 -1.20861 -1.01145 0
M  V30 18426 C 1755.75 -1.0199 -1.74478 0
M  V30 18427 C 1756.07 0.4484 -1.89775 0
M  V30 18428 O 1755.34 1.32386 -1.44398 0
M  V30 18429 H 1753.92 -0.37439 -0.646406 0
M  V30 18430 H 1756.59 -1.5206 -1.21917 0
M  V30 18431 H 1755.68 -1.48251 -2.74642 0
M  V30 18432 N 1755.98 1.20536 -1.01532 0
M  V30 18433 C 1757.23 1.90152 -0.704973 0
M  V30 18434 C 1757.56 1.78569 0.763343 0
M  V30 18435 O 1756.84 1.16906 1.55445 0
M  V30 18436 C 1757.12 3.41589 -1.1397 0
M  V30 18437 C 1756.97 3.62113 -2.66823 0
M  V30 18438 C 1758.29 4.34335 -0.709984 0
M  V30 18439 H 1755.41 0.690524 -0.257577 0
M  V30 18440 H 1758.05 1.41959 -1.26284 0
M  V30 18441 H 1756.2 3.82765 -0.66505 0
M  V30 18442 H 1757.87 3.30197 -3.2213 0
M  V30 18443 H 1756.12 3.05626 -3.07855 0
M  V30 18444 H 1756.79 4.68261 -2.92294 0
M  V30 18445 H 1759.26 4.00799 -1.11801 0
M  V30 18446 H 1758.14 5.38915 -1.04221 0
M  V30 18447 H 1758.4 4.40391 0.388408 0
M  V30 18448 N 1757.46 0.791395 1.36289 0
M  V30 18449 C 1758.69 0.376696 2.03442 0
M  V30 18450 C 1759.1 -1.00753 1.59669 0
M  V30 18451 O 1758.46 -1.64657 0.787042 0
M  V30 18452 C 1758.51 0.433074 3.58897 0
M  V30 18453 O 1758.23 1.76272 4.01073 0
M  V30 18454 C 1759.73 0.00925475 4.43299 0
M  V30 18455 H 1756.95 0.154989 0.652855 0
M  V30 18456 H 1759.5 1.07079 1.74225 0
M  V30 18457 H 1757.65 -0.212623 3.86816 0
M  V30 18458 H 1758.07 1.71492 4.95672 0
M  V30 18459 H 1759.54 0.0998386 5.5191 0
M  V30 18460 H 1760.02 -1.04362 4.26621 0
M  V30 18461 H 1760.62 0.627518 4.20645 0
M  V30 18462 N 1758.94 -1.47929 0.54358 0
M  V30 18463 C 1759.89 -2.29827 -0.211706 0
M  V30 18464 C 1760.86 -1.38217 -0.921154 0
M  V30 18465 O 1762.04 -1.67181 -0.919522 0
M  V30 18466 C 1759.18 -3.21889 -1.24425 0
M  V30 18467 C 1758.29 -4.28583 -0.542264 0
M  V30 18468 C 1757.43 -5.0781 -1.55892 0
M  V30 18469 C 1756.47 -6.06293 -0.841146 0
M  V30 18470 N 1755.61 -6.78528 -1.80399 0
M  V30 18471 H 1760.45 -2.93896 0.492835 0
M  V30 18472 H 1757.98 -1.44875 0.254873 0
M  V30 18473 H 1759.94 -3.73674 -1.85535 0
M  V30 18474 H 1758.57 -2.59713 -1.917 0
M  V30 18475 H 1757.62 -3.79959 0.183069 0
M  V30 18476 H 1758.93 -4.98796 0.0206703 0
M  V30 18477 H 1758.09 -5.63678 -2.24393 0
M  V30 18478 H 1756.83 -4.37468 -2.15576 0
M  V30 18479 H 1755.83 -5.49616 -0.14214 0
M  V30 18480 H 1757.06 -6.78639 -0.250232 0
M  V30 18481 H 1755 -6.10927 -2.38965 0
M  V30 18482 H 1754.92 -7.44863 -1.29285 0
M  V30 18483 H 1756.19 -7.38978 -2.48056 0
M  V30 18484 N 1760.42 -0.27936 -1.55104 0
M  V30 18485 C 1761.66 0.336703 -1.99985 0
M  V30 18486 C 1762 1.55186 -1.16752 0
M  V30 18487 O 1761.27 1.93031 -0.238626 0
M  V30 18488 C 1761.55 0.714701 -3.52936 0
M  V30 18489 C 1761.41 -0.508088 -4.46921 0
M  V30 18490 C 1762.73 1.54953 -4.11919 0
M  V30 18491 H 1759.85 0.120908 -0.727015 0
M  V30 18492 H 1762.49 -0.38715 -1.86014 0
M  V30 18493 H 1760.64 1.33143 -3.64973 0
M  V30 18494 H 1762.31 -1.14664 -4.46822 0
M  V30 18495 H 1760.55 -1.14537 -4.18406 0
M  V30 18496 H 1761.22 -0.199782 -5.51638 0
M  V30 18497 H 1763.7 1.02864 -4.03185 0
M  V30 18498 H 1762.58 1.78282 -5.1914 0
M  V30 18499 H 1762.84 2.53192 -3.62417 0
M  V30 18500 N 1761.9 1.57599 -0.0067085 0
M  V30 18501 C 1763.14 1.90481 0.675393 0
M  V30 18502 C 1763.46 0.881481 1.73939 0
M  V30 18503 O 1762.73 -0.0801928 1.95736 0
M  V30 18504 H 1761.31 0.703048 0.252452 0
M  V30 18505 H 1763.98 1.94838 -0.04922 0
M  V30 18506 H 1763.07 2.90441 1.14239 0
M  V30 18507 N 1763.37 -0.266145 1.55336 0
M  V30 18508 C 1764.32 -1.33159 1.85075 0
M  V30 18509 C 1765.31 -1.44381 0.710142 0
M  V30 18510 O 1766.5 -1.47946 0.971644 0
M  V30 18511 C 1763.63 -2.69063 2.13214 0
M  V30 18512 C 1762.71 -2.61924 3.33552 0
M  V30 18513 N 1763.11 -2.24407 4.53294 0
M  V30 18514 C 1761.4 -2.92973 3.36278 0
M  V30 18515 C 1762.1 -2.27428 5.35398 0
M  V30 18516 N 1761.08 -2.66173 4.73976 0
M  V30 18517 H 1764.88 -1.03172 2.75196 0
M  V30 18518 H 1762.4 -0.474782 1.55305 0
M  V30 18519 H 1764.39 -3.45929 2.32677 0
M  V30 18520 H 1763.05 -2.99933 1.2438 0
M  V30 18521 H 1764.06 -1.9627 4.79269 0
M  V30 18522 H 1760.74 -3.2851 2.57658 0
M  V30 18523 H 1762.13 -2.00925 6.41154 0
M  V30 18524 N 1764.85 -1.48386 -0.530967 0
M  V30 18525 C 1765.78 -1.57405 -1.65224 0
M  V30 18526 C 1766.76 -0.424555 -1.5696 0
M  V30 18527 O 1767.95 -0.63602 -1.77446 0
M  V30 18528 C 1765.07 -1.50112 -3.03618 0
M  V30 18529 C 1764.12 -2.6989 -3.30245 0
M  V30 18530 S 1764.95 -4.31867 -3.16624 0
M  V30 18531 C 1766.11 -4.27171 -4.57466 0
M  V30 18532 H 1766.34 -2.52262 -1.57324 0
M  V30 18533 H 1763.87 -1.36907 -0.713851 0
M  V30 18534 H 1765.83 -1.46591 -3.83434 0
M  V30 18535 H 1764.49 -0.565934 -3.0896 0
M  V30 18536 H 1763.69 -2.60923 -4.31202 0
M  V30 18537 H 1763.29 -2.70668 -2.58098 0
M  V30 18538 H 1765.58 -3.97044 -5.48965 0
M  V30 18539 H 1766.52 -5.28304 -4.71487 0
M  V30 18540 H 1766.93 -3.57653 -4.36743 0
M  V30 18541 N 1766.33 0.779763 -1.36958 0
M  V30 18542 C 1767.28 1.89278 -1.32071 0
M  V30 18543 C 1768.25 1.65037 -0.18766 0
M  V30 18544 O 1769.43 1.87064 -0.375736 0
M  V30 18545 C 1766.57 3.2623 -1.12552 0
M  V30 18546 C 1765.68 3.62479 -2.35017 0
M  V30 18547 C 1764.82 4.88599 -2.08434 0
M  V30 18548 C 1763.86 5.17555 -3.26808 0
M  V30 18549 N 1763 6.3486 -2.99828 0
M  V30 18550 H 1767.84 1.9279 -2.27235 0
M  V30 18551 H 1765.37 0.942656 -1.12927 0
M  V30 18552 H 1767.33 4.0522 -0.992595 0
M  V30 18553 H 1765.96 3.22114 -0.210387 0
M  V30 18554 H 1765.01 2.78536 -2.59079 0
M  V30 18555 H 1766.32 3.7982 -3.23324 0
M  V30 18556 H 1765.48 5.75476 -1.92127 0
M  V30 18557 H 1764.22 4.73346 -1.17453 0
M  V30 18558 H 1763.22 4.29156 -3.43664 0
M  V30 18559 H 1764.45 5.34721 -4.18629 0
M  V30 18560 H 1762.39 6.20981 -2.11468 0
M  V30 18561 H 1762.31 6.52579 -3.81676 0
M  V30 18562 H 1763.58 7.24695 -2.8712 0
M  V30 18563 N 1767.81 1.21396 1.00503 0
M  V30 18564 C 1769.22 0.971304 1.26641 0
M  V30 18565 C 1769.42 -0.342336 1.98571 0
M  V30 18566 O 1768.48 -1.068 2.28801 0
M  V30 18567 C 1769.79 2.16186 2.09008 0
M  V30 18568 C 1771.34 2.20411 2.22234 0
M  V30 18569 C 1771.82 3.38984 3.07983 0
M  V30 18570 N 1773.31 3.3907 3.15572 0
M  V30 18571 C 1774.04 4.27467 3.82177 0
M  V30 18572 N 1773.54 5.26062 4.50811 0
M  V30 18573 N 1775.33 4.15276 3.78817 0
M  V30 18574 H 1767.48 2.05875 0.522436 0
M  V30 18575 H 1769.74 0.901496 0.293272 0
M  V30 18576 H 1769.45 3.11383 1.63504 0
M  V30 18577 H 1769.32 2.15243 3.09758 0
M  V30 18578 H 1771.71 1.25769 2.66957 0
M  V30 18579 H 1771.79 2.25397 1.20954 0
M  V30 18580 H 1771.44 4.33919 2.63964 0
M  V30 18581 H 1771.37 3.31236 4.09378 0
M  V30 18582 H 1773.86 2.67718 2.66713 0
M  V30 18583 H 1774.17 5.89815 4.99338 0
M  V30 18584 H 1772.52 5.29987 4.49599 0
M  V30 18585 H 1775.71 3.37511 3.24351 0
M  V30 18586 H 1775.88 4.84375 4.30448 0
M  V30 18587 N 1769.29 -1.19996 1.0217 0
M  V30 18588 C 1770.53 -1.88818 0.709281 0
M  V30 18589 C 1770.85 -1.80032 -0.764702 0
M  V30 18590 O 1772.05 -2.44037 -1.18988 0
M  V30 18591 C 1770.51 -3.38652 1.2183 0
M  V30 18592 C 1770.12 -3.56012 2.71955 0
M  V30 18593 C 1771.86 -4.12996 0.981542 0
M  V30 18594 C 1769.77 -4.997 3.16313 0
M  V30 18595 H 1768.7 -0.70716 0.261613 0
M  V30 18596 H 1771.35 -1.35715 1.23506 0
M  V30 18597 H 1769.73 -3.91109 0.620478 0
M  V30 18598 H 1770.91 -3.13918 3.37331 0
M  V30 18599 H 1769.22 -2.95046 2.93831 0
M  V30 18600 H 1771.82 -5.18948 1.28831 0
M  V30 18601 H 1772.16 -4.1622 -0.0818616 0
M  V30 18602 H 1772.69 -3.66656 1.543 0
M  V30 18603 H 1769.43 -5.01635 4.21951 0
M  V30 18604 H 1768.95 -5.42585 2.5566 0
M  V30 18605 H 1770.63 -5.68312 3.09242 0
M  V30 18606 N 1770.76 -0.798611 -1.35867 0
M  V30 18607 C 1771.69 -0.217751 -2.32482 0
M  V30 18608 C 1772.67 0.652374 -1.57093 0
M  V30 18609 O 1773.86 0.584297 -1.85202 0
M  V30 18610 C 1770.99 0.640925 -3.41335 0
M  V30 18611 C 1769.94 -0.130053 -4.27802 0
M  V30 18612 C 1769.27 0.849811 -5.27904 0
M  V30 18613 C 1770.57 -1.32451 -5.05227 0
M  V30 18614 H 1772.26 -1.02492 -2.81311 0
M  V30 18615 H 1769.81 -0.494302 -1.3525 0
M  V30 18616 H 1771.76 1.05729 -4.07921 0
M  V30 18617 H 1770.49 1.4809 -2.91096 0
M  V30 18618 H 1769.15 -0.5275 -3.62785 0
M  V30 18619 H 1768.79 1.68507 -4.73935 0
M  V30 18620 H 1768.49 0.338323 -5.86625 0
M  V30 18621 H 1770.02 1.26455 -5.97362 0
M  V30 18622 H 1771.43 -0.983429 -5.64802 0
M  V30 18623 H 1769.83 -1.76992 -5.73405 0
M  V30 18624 H 1770.9 -2.11522 -4.36333 0
M  V30 18625 N 1772.24 1.47639 -0.551417 0
M  V30 18626 C 1773.48 2.04382 -0.0274854 0
M  V30 18627 C 1773.85 1.41714 1.29542 0
M  V30 18628 O 1775.05 1.8947 1.90669 0
M  V30 18629 C 1773.32 3.57332 0.0698769 0
M  V30 18630 S 1774.88 4.35455 0.540771 0
M  V30 18631 H 1771.69 0.710648 -0.0223553 0
M  V30 18632 H 1774.3 1.81083 -0.73684 0
M  V30 18633 H 1773 4.00468 -0.897406 0
M  V30 18634 H 1772.53 3.85118 0.802962 0
M  V30 18635 H 1774.55 4.62342 1.80152 0
M  V30 18636 N 1773.72 0.287581 1.54954 0
M  V30 18637 C 1774.97 -0.324967 1.9947 0
M  V30 18638 C 1775.29 -1.55437 1.17747 0
M  V30 18639 O 1774.56 -1.9403 0.270067 0
M  V30 18640 H 1773.14 -0.123062 0.736794 0
M  V30 18641 H 1775.8 0.395805 1.90839 0
M  V30 18642 H 1774.9 -0.606265 3.06155 0
M  V30 18643 N 1775.2 -1.57593 0.0150662 0
M  V30 18644 C 1776.45 -1.90392 -0.66587 0
M  V30 18645 C 1776.76 -0.891694 -1.74092 0
M  V30 18646 O 1777.97 -1.11043 -2.47753 0
M  V30 18647 C 1776.42 -3.38026 -1.23558 0
M  V30 18648 C 1776.03 -4.47577 -0.19455 0
M  V30 18649 C 1777.77 -3.79913 -1.89384 0
M  V30 18650 C 1775.68 -5.86299 -0.7751 0
M  V30 18651 H 1774.61 -0.710474 -0.252473 0
M  V30 18652 H 1777.26 -1.83334 0.0780739 0
M  V30 18653 H 1775.64 -3.3997 -2.03068 0
M  V30 18654 H 1776.82 -4.57172 0.577061 0
M  V30 18655 H 1775.13 -4.14805 0.364134 0
M  V30 18656 H 1777.73 -4.809 -2.3375 0
M  V30 18657 H 1778.07 -3.14225 -2.73072 0
M  V30 18658 H 1778.61 -3.80333 -1.16585 0
M  V30 18659 H 1775.35 -6.55496 0.0233354 0
M  V30 18660 H 1774.87 -5.80338 -1.51552 0
M  V30 18661 H 1776.54 -6.3443 -1.26915 0
M  V30 18662 N 1776.68 0.257904 -1.55475 0
M  V30 18663 C 1777.62 1.31912 -1.89388 0
M  V30 18664 C 1778.59 1.48358 -0.746927 0
M  V30 18665 O 1779.78 1.62521 -0.999584 0
M  V30 18666 C 1776.92 2.67162 -2.18446 0
M  V30 18667 C 1776.03 2.58814 -3.45889 0
M  V30 18668 C 1775.17 3.86343 -3.64571 0
M  V30 18669 C 1774.21 3.72567 -4.85654 0
M  V30 18670 N 1773.34 4.91964 -5.00915 0
M  V30 18671 H 1778.18 1.02291 -2.79894 0
M  V30 18672 H 1775.72 0.493864 -1.38562 0
M  V30 18673 H 1777.68 3.45874 -2.33296 0
M  V30 18674 H 1776.31 2.94954 -1.31157 0
M  V30 18675 H 1775.36 1.7173 -3.39431 0
M  V30 18676 H 1776.67 2.4454 -4.34743 0
M  V30 18677 H 1775.83 4.73498 -3.79321 0
M  V30 18678 H 1774.56 4.03501 -2.7393 0
M  V30 18679 H 1773.57 2.83795 -4.70893 0
M  V30 18680 H 1774.79 3.56914 -5.77745 0
M  V30 18681 H 1772.74 5.09505 -4.13208 0
M  V30 18682 H 1772.66 4.80279 -5.83839 0
M  V30 18683 H 1773.93 5.80649 -5.20064 0
M  V30 18684 N 1778.15 1.48666 0.52309 0
M  V30 18685 C 1779.06 1.66396 1.65377 0
M  V30 18686 C 1780.08 0.546469 1.65196 0
M  V30 18687 O 1781.26 0.818413 1.84022 0
M  V30 18688 C 1778.32 1.70602 3.01821 0
M  V30 18689 C 1777.38 2.94028 3.12803 0
M  V30 18690 C 1776.62 2.98024 4.42739 0
M  V30 18691 O 1776.84 2.10232 5.30244 0
M  V30 18692 O 1775.77 3.90266 4.58231 0
M  V30 18693 H 1779.6 2.62138 1.53354 0
M  V30 18694 H 1777.18 1.32148 0.696948 0
M  V30 18695 H 1779.07 1.75849 3.82956 0
M  V30 18696 H 1777.74 0.780346 3.14153 0
M  V30 18697 H 1776.65 2.9431 2.30938 0
M  V30 18698 H 1777.98 3.86003 3.0539 0
M  V30 18699 N 1779.63 -0.772489 1.37369 0
M  V30 18700 C 1780.56 -1.89969 1.35772 0
M  V30 18701 C 1781.54 -1.68586 0.226452 0
M  V30 18702 O 1782.73 -1.89454 0.426692 0
M  V30 18703 C 1779.86 -3.27242 1.16319 0
M  V30 18704 C 1778.81 -3.63187 2.2645 0
M  V30 18705 C 1778.14 -4.98992 1.92121 0
M  V30 18706 C 1779.44 -3.70013 3.6863 0
M  V30 18707 H 1781.13 -1.91564 2.30095 0
M  V30 18708 H 1778.68 -0.920241 1.10759 0
M  V30 18709 H 1780.63 -4.05734 1.13832 0
M  V30 18710 H 1779.36 -3.26078 0.184513 0
M  V30 18711 H 1778.01 -2.87001 2.28091 0
M  V30 18712 H 1777.66 -4.94368 0.927848 0
M  V30 18713 H 1777.36 -5.24012 2.65867 0
M  V30 18714 H 1778.89 -5.79886 1.91219 0
M  V30 18715 H 1780.3 -4.38659 3.69122 0
M  V30 18716 H 1778.7 -4.06529 4.41423 0
M  V30 18717 H 1779.77 -2.70694 4.02309 0
M  V30 18718 N 1781.11 -1.21927 -0.998575 0
M  V30 18719 C 1782.34 -1.06735 -1.77827 0
M  V30 18720 C 1782.76 0.378154 -1.8426 0
M  V30 18721 O 1782.12 1.27301 -1.2909 0
M  V30 18722 C 1782.17 -1.67662 -3.19252 0
M  V30 18723 O 1781.27 -0.926448 -4.01859 0
M  V30 18724 H 1780.61 -0.375241 -0.547805 0
M  V30 18725 H 1783.14 -1.61605 -1.25478 0
M  V30 18726 H 1783.15 -1.72151 -3.69903 0
M  V30 18727 H 1781.83 -2.72854 -3.13885 0
M  V30 18728 H 1780.4 -0.957145 -3.60407 0
M  V30 18729 N 1782.59 1.19452 -1.02805 0
M  V30 18730 C 1784 1.41147 -0.744969 0
M  V30 18731 C 1784.2 1.90008 0.670765 0
M  V30 18732 O 1783.26 2.0763 1.43688 0
M  V30 18733 C 1784.57 2.42328 -1.78039 0
M  V30 18734 C 1786.12 2.56076 -1.79984 0
M  V30 18735 C 1786.6 3.6051 -2.82483 0
M  V30 18736 N 1788.09 3.68005 -2.81294 0
M  V30 18737 C 1788.82 4.48502 -3.57258 0
M  V30 18738 N 1788.32 5.32711 -4.42934 0
M  V30 18739 N 1790.11 4.43144 -3.45803 0
M  V30 18740 H 1782.26 0.860569 -1.94185 0
M  V30 18741 H 1784.53 0.44042 -0.839484 0
M  V30 18742 H 1784.23 2.13448 -2.79523 0
M  V30 18743 H 1784.11 3.41491 -1.60199 0
M  V30 18744 H 1786.49 2.84279 -0.791782 0
M  V30 18745 H 1786.57 1.57069 -2.01898 0
M  V30 18746 H 1786.22 3.33049 -3.83459 0
M  V30 18747 H 1786.15 4.59166 -2.57827 0
M  V30 18748 H 1788.64 3.07863 -2.19154 0
M  V30 18749 H 1788.95 5.9125 -4.97637 0
M  V30 18750 H 1787.3 5.32175 -4.47007 0
M  V30 18751 H 1790.49 3.76399 -2.78283 0
M  V30 18752 H 1790.66 5.0564 -4.05256 0
M  V30 18753 N 1784.07 0.805805 1.35442 0
M  V30 18754 C 1785.29 0.397179 2.03561 0
M  V30 18755 C 1785.72 -0.983665 1.6033 0
M  V30 18756 O 1785.07 -1.63683 0.779586 0
M  V30 18757 C 1785.12 0.487813 3.57285 0
M  V30 18758 O 1784.23 -0.499039 4.09369 0
M  V30 18759 H 1783.57 0.166009 0.642913 0
M  V30 18760 H 1786.1 1.09147 1.73055 0
M  V30 18761 H 1786.11 0.357334 4.06432 0
M  V30 18762 H 1784.78 1.49501 3.88101 0
M  V30 18763 H 1783.36 -0.328864 3.71447 0
M  V30 18764 N 1785.54 -1.47344 0.559239 0
M  V30 18765 C 1786.51 -2.28516 -0.17688 0
M  V30 18766 C 1787.51 -1.37065 -0.840823 0
M  V30 18767 O 1788.7 -1.59676 -0.696373 0
M  V30 18768 C 1785.83 -3.16803 -1.25892 0
M  V30 18769 H 1787.02 -2.95068 0.536174 0
M  V30 18770 H 1784.58 -1.53067 0.316263 0
M  V30 18771 H 1785.31 -2.54947 -2.00431 0
M  V30 18772 H 1785.1 -3.84108 -0.787625 0
M  V30 18773 H 1786.59 -3.77958 -1.77589 0
M  V30 18774 N 1787.02 -0.295795 -1.54799 0
M  V30 18775 C 1788.43 0.19789 -1.85648 0
M  V30 18776 C 1788.78 1.53834 -1.21776 0
M  V30 18777 O 1787.91 2.10218 -0.513554 0
M  V30 18778 C 1788.5 0.365844 -3.36819 0
M  V30 18779 C 1787.06 0.80375 -3.67718 0
M  V30 18780 C 1786.21 -0.0909572 -2.77151 0
M  V30 18781 H 1789.16 -0.516968 -1.50044 0
M  V30 18782 H 1789.18 1.20123 -3.61041 0
M  V30 18783 H 1788.69 -0.60991 -3.83278 0
M  V30 18784 H 1786.8 1.79024 -3.26774 0
M  V30 18785 H 1786.91 0.626745 -4.74983 0
M  V30 18786 H 1785.27 0.428882 -2.51063 0
M  V30 18787 H 1786.06 -1.06297 -3.26429 0
M  V30 18788 N 1788.5 1.57583 -0.0234236 0
M  V30 18789 C 1789.46 2.08797 0.945325 0
M  V30 18790 C 1790.46 1.00189 1.25773 0
M  V30 18791 O 1791.65 1.2637 1.19901 0
M  V30 18792 C 1788.79 2.54906 2.26353 0
M  V30 18793 H 1789.98 2.95671 0.50187 0
M  V30 18794 H 1787.53 1.54679 0.224507 0
M  V30 18795 H 1788.27 1.71345 2.75339 0
M  V30 18796 H 1788.05 3.34247 2.04991 0
M  V30 18797 H 1789.54 2.94774 2.95801 0
M  V30 18798 N 1789.98 -0.249655 1.5561 0
M  V30 18799 C 1791.23 -0.979529 1.77576 0
M  V30 18800 C 1791.56 -1.85078 0.588198 0
M  V30 18801 O 1790.83 -1.90052 -0.4136 0
M  V30 18802 C 1791.12 -1.84238 3.094 0
M  V30 18803 C 1790.97 -0.9995 4.38554 0
M  V30 18804 C 1792.29 -2.82536 3.37433 0
M  V30 18805 H 1789.41 -0.354681 0.646042 0
M  V30 18806 H 1792.05 -0.250224 1.88345 0
M  V30 18807 H 1790.2 -2.46419 3.0035 0
M  V30 18808 H 1791.87 -0.396599 4.59592 0
M  V30 18809 H 1790.11 -0.30376 4.32735 0
M  V30 18810 H 1790.79 -1.63697 5.27169 0
M  V30 18811 H 1793.26 -2.30491 3.46429 0
M  V30 18812 H 1792.14 -3.40033 4.30893 0
M  V30 18813 H 1792.4 -3.58859 2.58211 0
M  V30 18814 N 1791.46 -1.48941 -0.515198 0
M  V30 18815 C 1792.37 -1.67271 -1.64492 0
M  V30 18816 C 1793.38 -0.555222 -1.64904 0
M  V30 18817 O 1794.56 -0.828161 -1.83585 0
M  V30 18818 C 1791.62 -1.722 -3.00912 0
M  V30 18819 C 1790.69 -2.95683 -3.11239 0
M  V30 18820 C 1789.92 -3.00368 -4.41152 0
M  V30 18821 O 1790.14 -2.13041 -5.29122 0
M  V30 18822 O 1789.08 -3.92691 -4.56155 0
M  V30 18823 H 1792.9 -2.62947 -1.51962 0
M  V30 18824 H 1790.49 -1.32515 -0.68993 0
M  V30 18825 H 1792.37 -1.77877 -3.82018 0
M  V30 18826 H 1791.04 -0.796995 -3.13735 0
M  V30 18827 H 1789.95 -2.95531 -2.29374 0
M  V30 18828 H 1791.28 -3.87617 -3.03338 0
M  V30 18829 N 1792.94 0.765193 -1.37777 0
M  V30 18830 C 1793.9 1.8603 -1.33886 0
M  V30 18831 C 1794.9 1.58974 -0.241614 0
M  V30 18832 O 1796.09 1.66935 -0.497843 0
M  V30 18833 C 1793.22 3.2329 -1.08151 0
M  V30 18834 H 1794.41 1.9089 -2.31303 0
M  V30 18835 H 1791.97 0.965653 -1.22902 0
M  V30 18836 H 1792.7 3.24103 -0.112926 0
M  V30 18837 H 1792.49 3.4432 -1.8758 0
M  V30 18838 H 1793.98 4.03367 -1.08095 0
M  V30 18839 O 1794.45 1.3373 0.905451 0
M  V30 18840 H 1795.14 1.17475 1.54011 0
M  V30 END ATOM
M  V30 BEGIN BOND
M  V30 END BOND
M  V30 END CTAB
M  END
$$$$
